data_job_06859
_audit_creation_date              2018-12-19
_audit_creation_method            'Materials Studio'
_symmetry_space_group_name_H-M    'P1'
_symmetry_Int_Tables_number       1
_symmetry_cell_setting            triclinic
loop_
_symmetry_equiv_pos_as_xyz
  x,y,z
_cell_length_a                    29.2305
_cell_length_b                    33.7616
_cell_length_c                    42.3729
_cell_angle_alpha                 90.0000
_cell_angle_beta                  147.6123
_cell_angle_gamma                 90.0000
loop_
_atom_site_label
_atom_site_type_symbol
_atom_site_fract_x
_atom_site_fract_y
_atom_site_fract_z
_atom_site_U_iso_or_equiv
_atom_site_adp_type
_atom_site_occupancy
C1     C     0.09951   0.14919   0.59650   0.00000  Uiso   1.00
C2     C     0.14964   0.16427   0.65413   0.00000  Uiso   1.00
C3     C     0.23277   0.17850   0.70196   0.00000  Uiso   1.00
C4     C     0.26730   0.19089   0.75059   0.00000  Uiso   1.00
C5     C     0.35230   0.21456   0.83997   0.00000  Uiso   1.00
C6     C     0.07161   0.10718   0.58853   0.00000  Uiso   1.00
C7     C     0.08913   0.07342   0.58120   0.00000  Uiso   1.00
C8     C     0.05795   0.03776   0.57460   0.00000  Uiso   1.00
C9     C     0.02175   0.97281   0.56209   0.00000  Uiso   1.00
C10    C     0.01800   0.17385   0.54775   0.00000  Uiso   1.00
C11    C     0.99042   0.19615   0.50612   0.00000  Uiso   1.00
C12    C     0.91409   0.21661   0.46518   0.00000  Uiso   1.00
C13    C     0.79465   0.25518   0.38936   0.00000  Uiso   1.00
C14    C     0.01299   0.14589   0.59780   0.00000  Uiso   1.00
C15    C     0.10264   0.16247   0.65483   0.00000  Uiso   1.00
C16    C     0.13705   0.17485   0.70340   0.00000  Uiso   1.00
C17    C     0.22022   0.18910   0.75130   0.00000  Uiso   1.00
C18    C     0.02461   0.10539   0.58923   0.00000  Uiso   1.00
C19    C     0.99340   0.06977   0.58264   0.00000  Uiso   1.00
C20    C     0.01087   0.03596   0.57531   0.00000  Uiso   1.00
C21    C     0.97100   0.17206   0.54846   0.00000  Uiso   1.00
C22    C     0.89469   0.19249   0.50757   0.00000  Uiso   1.00
C23    C     0.86701   0.21481   0.46589   0.00000  Uiso   1.00
H24    H     0.13610   0.15058   0.59595   0.00000  Uiso   1.00
H25    H     0.26913   0.17988   0.70140   0.00000  Uiso   1.00
H26    H     0.12549   0.07482   0.58065   0.00000  Uiso   1.00
H27    H     0.02680   0.19753   0.50559   0.00000  Uiso   1.00
H28    H     0.39590   0.21156   0.81863   0.00000  Uiso   1.00
H29    H     0.09301   0.99003   0.56400   0.00000  Uiso   1.00
H30    H     0.88491   0.24878   0.40572   0.00000  Uiso   1.00
H31    H     0.97639   0.14449   0.59835   0.00000  Uiso   1.00
H32    H     0.10066   0.17345   0.70394   0.00000  Uiso   1.00
H33    H     0.95703   0.06839   0.58319   0.00000  Uiso   1.00
H34    H     0.85834   0.19110   0.50813   0.00000  Uiso   1.00
H35    H     0.25917   0.20634   0.82069   0.00000  Uiso   1.00
H36    H     0.95628   0.98481   0.56606   0.00000  Uiso   1.00
H37    H     0.74818   0.24357   0.40778   0.00000  Uiso   1.00
O38    O     0.41217   0.22810   0.88908   0.00000  Uiso   1.00
O39    O     0.01478   0.93747   0.55501   0.00000  Uiso   1.00
O40    O     0.74176   0.27695   0.34735   0.00000  Uiso   1.00
N41    N     0.34666   0.20636   0.80462   0.00000  Uiso   1.00
N42    N     0.06349   0.99925   0.56657   0.00000  Uiso   1.00
N43    N     0.86892   0.24115   0.41858   0.00000  Uiso   1.00
N44    N     0.27308   0.20355   0.80573   0.00000  Uiso   1.00
N45    N     0.98991   0.99644   0.56768   0.00000  Uiso   1.00
N46    N     0.79535   0.23834   0.41969   0.00000  Uiso   1.00
C47    C     0.24515   0.73051   0.86637   0.00000  Uiso   1.00
C48    C     0.25691   0.75957   0.84602   0.00000  Uiso   1.00
C49    C     0.32640   0.76090   0.86620   0.00000  Uiso   1.00
C50    C     0.32513   0.78971   0.84208   0.00000  Uiso   1.00
C51    C     0.35381   0.83083   0.81701   0.00000  Uiso   1.00
C52    C     0.23206   0.75571   0.88822   0.00000  Uiso   1.00
C53    C     0.28066   0.75378   0.94388   0.00000  Uiso   1.00
C54    C     0.25847   0.77933   0.95528   0.00000  Uiso   1.00
C55    C     0.24853   0.81442   0.99571   0.00000  Uiso   1.00
C56    C     0.16026   0.70968   0.81094   0.00000  Uiso   1.00
C57    C     0.64847   0.16906   0.80162   0.00000  Uiso   1.00
C58    C     0.56581   0.15586   0.74796   0.00000  Uiso   1.00
C59    C     0.44439   0.11949   0.66840   0.00000  Uiso   1.00
C60    C     0.11933   0.77930   0.78766   0.00000  Uiso   1.00
C61    C     0.18857   0.78608   0.80327   0.00000  Uiso   1.00
C62    C     0.18719   0.81489   0.77911   0.00000  Uiso   1.00
C63    C     0.25667   0.81626   0.79925   0.00000  Uiso   1.00
C64    C     0.16372   0.78221   0.84547   0.00000  Uiso   1.00
C65    C     0.14145   0.80777   0.85679   0.00000  Uiso   1.00
C66    C     0.19000   0.80588   0.91245   0.00000  Uiso   1.00
C67    C     0.09191   0.73619   0.76818   0.00000  Uiso   1.00
C68    C     0.00926   0.72305   0.71453   0.00000  Uiso   1.00
C69    C     0.49735   0.18241   0.70513   0.00000  Uiso   1.00
H70    H     0.29836   0.70987   0.89966   0.00000  Uiso   1.00
H71    H     0.37928   0.74039   0.89929   0.00000  Uiso   1.00
H72    H     0.33354   0.73326   0.97695   0.00000  Uiso   1.00
H73    H     0.70137   0.14856   0.83472   0.00000  Uiso   1.00
H74    H     0.43887   0.78592   0.88004   0.00000  Uiso   1.00
H75    H     0.34241   0.77089   0.04379   0.00000  Uiso   1.00
H76    H     0.56370   0.09226   0.74386   0.00000  Uiso   1.00
H77    H     0.06612   0.79994   0.75437   0.00000  Uiso   1.00
H78    H     0.13429   0.83540   0.74603   0.00000  Uiso   1.00
H79    H     0.08856   0.82827   0.82370   0.00000  Uiso   1.00
H80    H     0.95639   0.74356   0.68146   0.00000  Uiso   1.00
H81    H     0.24004   0.86303   0.75565   0.00000  Uiso   1.00
H82    H     0.14357   0.84799   0.91941   0.00000  Uiso   1.00
H83    H     0.36487   0.16937   0.61947   0.00000  Uiso   1.00
O84    O     0.38851   0.84618   0.81499   0.00000  Uiso   1.00
O85    O     0.26194   0.82645   0.02983   0.00000  Uiso   1.00
O86    O     0.39629   0.09211   0.63632   0.00000  Uiso   1.00
N87    N     0.38271   0.79920   0.85190   0.00000  Uiso   1.00
N88    N     0.29253   0.78514   0.00501   0.00000  Uiso   1.00
N89    N     0.53196   0.11815   0.72460   0.00000  Uiso   1.00
N90    N     0.27572   0.84069   0.78497   0.00000  Uiso   1.00
N91    N     0.18554   0.82664   0.93807   0.00000  Uiso   1.00
N92    N     0.42497   0.15964   0.65766   0.00000  Uiso   1.00
C93    C     0.37162   0.13578   0.14556   0.00000  Uiso   1.00
C94    C     0.40260   0.09361   0.15770   0.00000  Uiso   1.00
C95    C     0.48713   0.08124   0.20699   0.00000  Uiso   1.00
C96    C     0.50225   0.04141   0.20988   0.00000  Uiso   1.00
C97    C     0.56057   0.97996   0.23552   0.00000  Uiso   1.00
C98    C     0.31873   0.14716   0.08592   0.00000  Uiso   1.00
C99    C     0.33273   0.17981   0.07487   0.00000  Uiso   1.00
C100   C     0.27724   0.18505   0.01733   0.00000  Uiso   1.00
C101   C     0.20529   0.20675   0.93154   0.00000  Uiso   1.00
C102   C     0.80892   0.63318   0.13650   0.00000  Uiso   1.00
C103   C     0.81467   0.65409   0.16796   0.00000  Uiso   1.00
C104   C     0.75091   0.64758   0.15300   0.00000  Uiso   1.00
C105   C     0.66375   0.64757   0.14574   0.00000  Uiso   1.00
C106   C     0.24816   0.08704   0.06303   0.00000  Uiso   1.00
C107   C     0.33554   0.06713   0.11286   0.00000  Uiso   1.00
C108   C     0.35054   0.02731   0.11568   0.00000  Uiso   1.00
C109   C     0.43508   0.01488   0.16497   0.00000  Uiso   1.00
C110   C     0.25167   0.12068   0.04109   0.00000  Uiso   1.00
C111   C     0.19614   0.12588   0.98355   0.00000  Uiso   1.00
C112   C     0.21006   0.15853   0.97242   0.00000  Uiso   1.00
C113   C     0.74187   0.60670   0.09167   0.00000  Uiso   1.00
C114   C     0.67808   0.60016   0.07665   0.00000  Uiso   1.00
C115   C     0.68373   0.62105   0.10809   0.00000  Uiso   1.00
H116   H     0.42382   0.15640   0.18046   0.00000  Uiso   1.00
H117   H     0.53901   0.10175   0.24167   0.00000  Uiso   1.00
H118   H     0.38462   0.20030   0.10957   0.00000  Uiso   1.00
H119   H     0.86657   0.67458   0.20265   0.00000  Uiso   1.00
H120   H     0.63714   0.02948   0.28976   0.00000  Uiso   1.00
H121   H     0.31160   0.23729   0.01121   0.00000  Uiso   1.00
H122   H     0.77352   0.68306   0.20749   0.00000  Uiso   1.00
H123   H     0.19595   0.06642   0.02812   0.00000  Uiso   1.00
H124   H     0.29863   0.00683   0.08098   0.00000  Uiso   1.00
H125   H     0.14425   0.10538   0.94887   0.00000  Uiso   1.00
H126   H     0.62620   0.57966   0.04195   0.00000  Uiso   1.00
H127   H     0.44205   0.95244   0.15933   0.00000  Uiso   1.00
H128   H     0.11650   0.16025   0.88078   0.00000  Uiso   1.00
H129   H     0.57843   0.60602   0.07706   0.00000  Uiso   1.00
O130   O     0.61125   0.95338   0.26205   0.00000  Uiso   1.00
O131   O     0.18414   0.22603   0.89660   0.00000  Uiso   1.00
O132   O     0.63420   0.65488   0.15412   0.00000  Uiso   1.00
N133   N     0.57713   0.01952   0.25181   0.00000  Uiso   1.00
N134   N     0.27278   0.21381   0.99139   0.00000  Uiso   1.00
N135   N     0.73717   0.66312   0.17488   0.00000  Uiso   1.00
N136   N     0.47215   0.97807   0.18163   0.00000  Uiso   1.00
N137   N     0.16780   0.17236   0.92120   0.00000  Uiso   1.00
N138   N     0.63219   0.62167   0.10470   0.00000  Uiso   1.00
C139   C     0.59951   0.64919   0.59650   0.00000  Uiso   1.00
C140   C     0.64964   0.66427   0.65413   0.00000  Uiso   1.00
C141   C     0.73277   0.67850   0.70196   0.00000  Uiso   1.00
C142   C     0.76730   0.69089   0.75059   0.00000  Uiso   1.00
C143   C     0.85230   0.71456   0.83997   0.00000  Uiso   1.00
C144   C     0.57161   0.60718   0.58853   0.00000  Uiso   1.00
C145   C     0.58913   0.57342   0.58120   0.00000  Uiso   1.00
C146   C     0.55795   0.53776   0.57460   0.00000  Uiso   1.00
C147   C     0.52175   0.47281   0.56209   0.00000  Uiso   1.00
C148   C     0.51800   0.67385   0.54775   0.00000  Uiso   1.00
C149   C     0.49042   0.69615   0.50612   0.00000  Uiso   1.00
C150   C     0.41409   0.71661   0.46518   0.00000  Uiso   1.00
C151   C     0.29465   0.75518   0.38936   0.00000  Uiso   1.00
C152   C     0.51299   0.64589   0.59780   0.00000  Uiso   1.00
C153   C     0.60264   0.66247   0.65483   0.00000  Uiso   1.00
C154   C     0.63705   0.67485   0.70340   0.00000  Uiso   1.00
C155   C     0.72022   0.68910   0.75130   0.00000  Uiso   1.00
C156   C     0.52461   0.60539   0.58923   0.00000  Uiso   1.00
C157   C     0.49340   0.56977   0.58264   0.00000  Uiso   1.00
C158   C     0.51087   0.53596   0.57531   0.00000  Uiso   1.00
C159   C     0.47100   0.67206   0.54846   0.00000  Uiso   1.00
C160   C     0.39469   0.69249   0.50757   0.00000  Uiso   1.00
C161   C     0.36701   0.71481   0.46589   0.00000  Uiso   1.00
H162   H     0.63610   0.65058   0.59595   0.00000  Uiso   1.00
H163   H     0.76913   0.67988   0.70140   0.00000  Uiso   1.00
H164   H     0.62549   0.57482   0.58065   0.00000  Uiso   1.00
H165   H     0.52680   0.69753   0.50559   0.00000  Uiso   1.00
H166   H     0.89590   0.71156   0.81863   0.00000  Uiso   1.00
H167   H     0.59301   0.49003   0.56400   0.00000  Uiso   1.00
H168   H     0.38491   0.74878   0.40572   0.00000  Uiso   1.00
H169   H     0.47639   0.64449   0.59835   0.00000  Uiso   1.00
H170   H     0.60066   0.67345   0.70394   0.00000  Uiso   1.00
H171   H     0.45703   0.56839   0.58319   0.00000  Uiso   1.00
H172   H     0.35834   0.69110   0.50813   0.00000  Uiso   1.00
H173   H     0.75917   0.70634   0.82069   0.00000  Uiso   1.00
H174   H     0.45628   0.48481   0.56606   0.00000  Uiso   1.00
H175   H     0.24818   0.74357   0.40778   0.00000  Uiso   1.00
O176   O     0.91217   0.72810   0.88908   0.00000  Uiso   1.00
O177   O     0.51478   0.43747   0.55501   0.00000  Uiso   1.00
O178   O     0.24176   0.77695   0.34735   0.00000  Uiso   1.00
N179   N     0.84666   0.70636   0.80462   0.00000  Uiso   1.00
N180   N     0.56349   0.49925   0.56657   0.00000  Uiso   1.00
N181   N     0.36892   0.74115   0.41858   0.00000  Uiso   1.00
N182   N     0.77308   0.70355   0.80573   0.00000  Uiso   1.00
N183   N     0.48991   0.49644   0.56768   0.00000  Uiso   1.00
N184   N     0.29535   0.73834   0.41969   0.00000  Uiso   1.00
C185   C     0.74515   0.23051   0.86637   0.00000  Uiso   1.00
C186   C     0.75691   0.25957   0.84602   0.00000  Uiso   1.00
C187   C     0.82640   0.26090   0.86620   0.00000  Uiso   1.00
C188   C     0.82513   0.28971   0.84208   0.00000  Uiso   1.00
C189   C     0.85381   0.33083   0.81701   0.00000  Uiso   1.00
C190   C     0.73206   0.25571   0.88822   0.00000  Uiso   1.00
C191   C     0.78066   0.25378   0.94388   0.00000  Uiso   1.00
C192   C     0.75847   0.27933   0.95528   0.00000  Uiso   1.00
C193   C     0.74853   0.31442   0.99571   0.00000  Uiso   1.00
C194   C     0.66026   0.20968   0.81094   0.00000  Uiso   1.00
C195   C     0.14847   0.66906   0.80162   0.00000  Uiso   1.00
C196   C     0.06581   0.65586   0.74796   0.00000  Uiso   1.00
C197   C     0.94439   0.61949   0.66840   0.00000  Uiso   1.00
C198   C     0.61933   0.27930   0.78766   0.00000  Uiso   1.00
C199   C     0.68857   0.28608   0.80327   0.00000  Uiso   1.00
C200   C     0.68719   0.31489   0.77911   0.00000  Uiso   1.00
C201   C     0.75667   0.31626   0.79925   0.00000  Uiso   1.00
C202   C     0.66372   0.28221   0.84547   0.00000  Uiso   1.00
C203   C     0.64145   0.30777   0.85679   0.00000  Uiso   1.00
C204   C     0.69000   0.30588   0.91245   0.00000  Uiso   1.00
C205   C     0.59191   0.23619   0.76818   0.00000  Uiso   1.00
C206   C     0.50926   0.22305   0.71453   0.00000  Uiso   1.00
C207   C     0.99735   0.68241   0.70513   0.00000  Uiso   1.00
H208   H     0.79836   0.20987   0.89966   0.00000  Uiso   1.00
H209   H     0.87928   0.24039   0.89929   0.00000  Uiso   1.00
H210   H     0.83354   0.23326   0.97695   0.00000  Uiso   1.00
H211   H     0.20137   0.64856   0.83472   0.00000  Uiso   1.00
H212   H     0.93887   0.28592   0.88004   0.00000  Uiso   1.00
H213   H     0.84241   0.27089   0.04379   0.00000  Uiso   1.00
H214   H     0.06370   0.59226   0.74386   0.00000  Uiso   1.00
H215   H     0.56612   0.29994   0.75437   0.00000  Uiso   1.00
H216   H     0.63429   0.33540   0.74603   0.00000  Uiso   1.00
H217   H     0.58856   0.32827   0.82370   0.00000  Uiso   1.00
H218   H     0.45639   0.24356   0.68146   0.00000  Uiso   1.00
H219   H     0.74004   0.36303   0.75565   0.00000  Uiso   1.00
H220   H     0.64357   0.34799   0.91941   0.00000  Uiso   1.00
H221   H     0.86487   0.66937   0.61947   0.00000  Uiso   1.00
O222   O     0.88851   0.34618   0.81499   0.00000  Uiso   1.00
O223   O     0.76194   0.32645   0.02983   0.00000  Uiso   1.00
O224   O     0.89629   0.59211   0.63632   0.00000  Uiso   1.00
N225   N     0.88271   0.29920   0.85190   0.00000  Uiso   1.00
N226   N     0.79253   0.28514   0.00501   0.00000  Uiso   1.00
N227   N     0.03196   0.61815   0.72460   0.00000  Uiso   1.00
N228   N     0.77572   0.34069   0.78497   0.00000  Uiso   1.00
N229   N     0.68554   0.32664   0.93807   0.00000  Uiso   1.00
N230   N     0.92497   0.65964   0.65766   0.00000  Uiso   1.00
C231   C     0.87162   0.63578   0.14556   0.00000  Uiso   1.00
C232   C     0.90260   0.59361   0.15770   0.00000  Uiso   1.00
C233   C     0.98713   0.58124   0.20699   0.00000  Uiso   1.00
C234   C     0.00225   0.54141   0.20988   0.00000  Uiso   1.00
C235   C     0.06057   0.47996   0.23552   0.00000  Uiso   1.00
C236   C     0.81873   0.64716   0.08592   0.00000  Uiso   1.00
C237   C     0.83273   0.67981   0.07487   0.00000  Uiso   1.00
C238   C     0.77724   0.68505   0.01733   0.00000  Uiso   1.00
C239   C     0.70529   0.70675   0.93154   0.00000  Uiso   1.00
C240   C     0.30892   0.13318   0.13650   0.00000  Uiso   1.00
C241   C     0.31467   0.15409   0.16796   0.00000  Uiso   1.00
C242   C     0.25091   0.14758   0.15300   0.00000  Uiso   1.00
C243   C     0.16375   0.14757   0.14574   0.00000  Uiso   1.00
C244   C     0.74816   0.58704   0.06303   0.00000  Uiso   1.00
C245   C     0.83554   0.56713   0.11286   0.00000  Uiso   1.00
C246   C     0.85054   0.52731   0.11568   0.00000  Uiso   1.00
C247   C     0.93508   0.51488   0.16497   0.00000  Uiso   1.00
C248   C     0.75167   0.62068   0.04109   0.00000  Uiso   1.00
C249   C     0.69614   0.62588   0.98355   0.00000  Uiso   1.00
C250   C     0.71006   0.65853   0.97242   0.00000  Uiso   1.00
C251   C     0.24187   0.10670   0.09167   0.00000  Uiso   1.00
C252   C     0.17808   0.10016   0.07665   0.00000  Uiso   1.00
C253   C     0.18373   0.12105   0.10809   0.00000  Uiso   1.00
H254   H     0.92382   0.65640   0.18046   0.00000  Uiso   1.00
H255   H     0.03901   0.60175   0.24167   0.00000  Uiso   1.00
H256   H     0.88462   0.70030   0.10957   0.00000  Uiso   1.00
H257   H     0.36657   0.17458   0.20265   0.00000  Uiso   1.00
H258   H     0.13714   0.52948   0.28976   0.00000  Uiso   1.00
H259   H     0.81160   0.73729   0.01121   0.00000  Uiso   1.00
H260   H     0.27352   0.18306   0.20749   0.00000  Uiso   1.00
H261   H     0.69595   0.56642   0.02812   0.00000  Uiso   1.00
H262   H     0.79863   0.50683   0.08098   0.00000  Uiso   1.00
H263   H     0.64425   0.60538   0.94887   0.00000  Uiso   1.00
H264   H     0.12620   0.07966   0.04195   0.00000  Uiso   1.00
H265   H     0.94205   0.45244   0.15933   0.00000  Uiso   1.00
H266   H     0.61650   0.66025   0.88078   0.00000  Uiso   1.00
H267   H     0.07843   0.10602   0.07706   0.00000  Uiso   1.00
O268   O     0.11125   0.45338   0.26205   0.00000  Uiso   1.00
O269   O     0.68414   0.72603   0.89660   0.00000  Uiso   1.00
O270   O     0.13420   0.15488   0.15412   0.00000  Uiso   1.00
N271   N     0.07713   0.51952   0.25181   0.00000  Uiso   1.00
N272   N     0.77278   0.71381   0.99139   0.00000  Uiso   1.00
N273   N     0.23717   0.16312   0.17488   0.00000  Uiso   1.00
N274   N     0.97215   0.47807   0.18163   0.00000  Uiso   1.00
N275   N     0.66780   0.67236   0.92120   0.00000  Uiso   1.00
N276   N     0.13219   0.12167   0.10470   0.00000  Uiso   1.00
C277   C     0.90049   0.14919   0.90350   0.00000  Uiso   1.00
C278   C     0.85036   0.16427   0.84587   0.00000  Uiso   1.00
C279   C     0.76723   0.17850   0.79804   0.00000  Uiso   1.00
C280   C     0.73270   0.19089   0.74941   0.00000  Uiso   1.00
C281   C     0.64770   0.21456   0.66003   0.00000  Uiso   1.00
C282   C     0.92839   0.10718   0.91147   0.00000  Uiso   1.00
C283   C     0.91087   0.07342   0.91880   0.00000  Uiso   1.00
C284   C     0.94205   0.03776   0.92540   0.00000  Uiso   1.00
C285   C     0.97825   0.97281   0.93791   0.00000  Uiso   1.00
C286   C     0.98200   0.17385   0.95225   0.00000  Uiso   1.00
C287   C     0.00958   0.19615   0.99388   0.00000  Uiso   1.00
C288   C     0.08591   0.21661   0.03482   0.00000  Uiso   1.00
C289   C     0.20535   0.25518   0.11064   0.00000  Uiso   1.00
C290   C     0.98701   0.14589   0.90220   0.00000  Uiso   1.00
C291   C     0.89736   0.16247   0.84517   0.00000  Uiso   1.00
C292   C     0.86295   0.17485   0.79660   0.00000  Uiso   1.00
C293   C     0.77978   0.18910   0.74870   0.00000  Uiso   1.00
C294   C     0.97539   0.10539   0.91077   0.00000  Uiso   1.00
C295   C     0.00660   0.06977   0.91736   0.00000  Uiso   1.00
C296   C     0.98913   0.03596   0.92469   0.00000  Uiso   1.00
C297   C     0.02900   0.17206   0.95154   0.00000  Uiso   1.00
C298   C     0.10531   0.19249   0.99243   0.00000  Uiso   1.00
C299   C     0.13299   0.21481   0.03411   0.00000  Uiso   1.00
H300   H     0.86390   0.15058   0.90405   0.00000  Uiso   1.00
H301   H     0.73087   0.17988   0.79860   0.00000  Uiso   1.00
H302   H     0.87451   0.07482   0.91935   0.00000  Uiso   1.00
H303   H     0.97320   0.19753   0.99441   0.00000  Uiso   1.00
H304   H     0.60410   0.21156   0.68137   0.00000  Uiso   1.00
H305   H     0.90699   0.99003   0.93600   0.00000  Uiso   1.00
H306   H     0.11509   0.24878   0.09428   0.00000  Uiso   1.00
H307   H     0.02361   0.14449   0.90165   0.00000  Uiso   1.00
H308   H     0.89934   0.17345   0.79606   0.00000  Uiso   1.00
H309   H     0.04297   0.06839   0.91681   0.00000  Uiso   1.00
H310   H     0.14166   0.19110   0.99187   0.00000  Uiso   1.00
H311   H     0.74083   0.20634   0.67931   0.00000  Uiso   1.00
H312   H     0.04372   0.98481   0.93394   0.00000  Uiso   1.00
H313   H     0.25182   0.24357   0.09222   0.00000  Uiso   1.00
O314   O     0.58783   0.22810   0.61092   0.00000  Uiso   1.00
O315   O     0.98522   0.93747   0.94499   0.00000  Uiso   1.00
O316   O     0.25824   0.27695   0.15265   0.00000  Uiso   1.00
N317   N     0.65334   0.20636   0.69538   0.00000  Uiso   1.00
N318   N     0.93651   0.99925   0.93343   0.00000  Uiso   1.00
N319   N     0.13108   0.24115   0.08142   0.00000  Uiso   1.00
N320   N     0.72692   0.20355   0.69427   0.00000  Uiso   1.00
N321   N     0.01009   0.99644   0.93232   0.00000  Uiso   1.00
N322   N     0.20465   0.23834   0.08031   0.00000  Uiso   1.00
C323   C     0.75485   0.73051   0.63363   0.00000  Uiso   1.00
C324   C     0.74309   0.75957   0.65398   0.00000  Uiso   1.00
C325   C     0.67360   0.76090   0.63380   0.00000  Uiso   1.00
C326   C     0.67487   0.78971   0.65792   0.00000  Uiso   1.00
C327   C     0.64619   0.83083   0.68299   0.00000  Uiso   1.00
C328   C     0.76794   0.75571   0.61178   0.00000  Uiso   1.00
C329   C     0.71934   0.75378   0.55612   0.00000  Uiso   1.00
C330   C     0.74153   0.77933   0.54472   0.00000  Uiso   1.00
C331   C     0.75147   0.81442   0.50429   0.00000  Uiso   1.00
C332   C     0.83974   0.70968   0.68906   0.00000  Uiso   1.00
C333   C     0.35153   0.16906   0.69838   0.00000  Uiso   1.00
C334   C     0.43419   0.15586   0.75204   0.00000  Uiso   1.00
C335   C     0.55561   0.11949   0.83160   0.00000  Uiso   1.00
C336   C     0.88067   0.77930   0.71234   0.00000  Uiso   1.00
C337   C     0.81143   0.78608   0.69673   0.00000  Uiso   1.00
C338   C     0.81281   0.81489   0.72089   0.00000  Uiso   1.00
C339   C     0.74333   0.81626   0.70075   0.00000  Uiso   1.00
C340   C     0.83628   0.78221   0.65453   0.00000  Uiso   1.00
C341   C     0.85855   0.80777   0.64321   0.00000  Uiso   1.00
C342   C     0.81000   0.80588   0.58755   0.00000  Uiso   1.00
C343   C     0.90809   0.73619   0.73182   0.00000  Uiso   1.00
C344   C     0.99074   0.72305   0.78547   0.00000  Uiso   1.00
C345   C     0.50265   0.18241   0.79487   0.00000  Uiso   1.00
H346   H     0.70164   0.70987   0.60034   0.00000  Uiso   1.00
H347   H     0.62072   0.74039   0.60071   0.00000  Uiso   1.00
H348   H     0.66646   0.73326   0.52305   0.00000  Uiso   1.00
H349   H     0.29863   0.14856   0.66528   0.00000  Uiso   1.00
H350   H     0.56113   0.78592   0.61996   0.00000  Uiso   1.00
H351   H     0.65759   0.77089   0.45621   0.00000  Uiso   1.00
H352   H     0.43630   0.09226   0.75614   0.00000  Uiso   1.00
H353   H     0.93388   0.79994   0.74563   0.00000  Uiso   1.00
H354   H     0.86571   0.83540   0.75397   0.00000  Uiso   1.00
H355   H     0.91144   0.82827   0.67630   0.00000  Uiso   1.00
H356   H     0.04361   0.74356   0.81854   0.00000  Uiso   1.00
H357   H     0.75996   0.86303   0.74435   0.00000  Uiso   1.00
H358   H     0.85643   0.84799   0.58059   0.00000  Uiso   1.00
H359   H     0.63513   0.16937   0.88053   0.00000  Uiso   1.00
O360   O     0.61149   0.84618   0.68501   0.00000  Uiso   1.00
O361   O     0.73806   0.82645   0.47017   0.00000  Uiso   1.00
O362   O     0.60371   0.09211   0.86368   0.00000  Uiso   1.00
N363   N     0.61729   0.79920   0.64810   0.00000  Uiso   1.00
N364   N     0.70747   0.78514   0.49499   0.00000  Uiso   1.00
N365   N     0.46804   0.11815   0.77540   0.00000  Uiso   1.00
N366   N     0.72428   0.84069   0.71503   0.00000  Uiso   1.00
N367   N     0.81446   0.82664   0.56193   0.00000  Uiso   1.00
N368   N     0.57503   0.15964   0.84234   0.00000  Uiso   1.00
C369   C     0.62838   0.13578   0.35444   0.00000  Uiso   1.00
C370   C     0.59740   0.09361   0.34230   0.00000  Uiso   1.00
C371   C     0.51287   0.08124   0.29301   0.00000  Uiso   1.00
C372   C     0.49775   0.04141   0.29012   0.00000  Uiso   1.00
C373   C     0.43943   0.97996   0.26448   0.00000  Uiso   1.00
C374   C     0.68127   0.14716   0.41408   0.00000  Uiso   1.00
C375   C     0.66727   0.17981   0.42513   0.00000  Uiso   1.00
C376   C     0.72276   0.18505   0.48267   0.00000  Uiso   1.00
C377   C     0.79471   0.20675   0.56846   0.00000  Uiso   1.00
C378   C     0.19108   0.63318   0.36350   0.00000  Uiso   1.00
C379   C     0.18533   0.65409   0.33204   0.00000  Uiso   1.00
C380   C     0.24909   0.64758   0.34700   0.00000  Uiso   1.00
C381   C     0.33625   0.64757   0.35426   0.00000  Uiso   1.00
C382   C     0.75184   0.08704   0.43697   0.00000  Uiso   1.00
C383   C     0.66446   0.06713   0.38714   0.00000  Uiso   1.00
C384   C     0.64946   0.02731   0.38432   0.00000  Uiso   1.00
C385   C     0.56492   0.01488   0.33503   0.00000  Uiso   1.00
C386   C     0.74833   0.12068   0.45891   0.00000  Uiso   1.00
C387   C     0.80386   0.12588   0.51645   0.00000  Uiso   1.00
C388   C     0.78994   0.15853   0.52758   0.00000  Uiso   1.00
C389   C     0.25813   0.60670   0.40833   0.00000  Uiso   1.00
C390   C     0.32192   0.60016   0.42335   0.00000  Uiso   1.00
C391   C     0.31627   0.62105   0.39191   0.00000  Uiso   1.00
H392   H     0.57618   0.15640   0.31954   0.00000  Uiso   1.00
H393   H     0.46099   0.10175   0.25833   0.00000  Uiso   1.00
H394   H     0.61538   0.20030   0.39043   0.00000  Uiso   1.00
H395   H     0.13343   0.67458   0.29735   0.00000  Uiso   1.00
H396   H     0.36286   0.02948   0.21024   0.00000  Uiso   1.00
H397   H     0.68840   0.23729   0.48879   0.00000  Uiso   1.00
H398   H     0.22648   0.68306   0.29251   0.00000  Uiso   1.00
H399   H     0.80405   0.06642   0.47188   0.00000  Uiso   1.00
H400   H     0.70137   0.00683   0.41902   0.00000  Uiso   1.00
H401   H     0.85575   0.10538   0.55113   0.00000  Uiso   1.00
H402   H     0.37380   0.57966   0.45805   0.00000  Uiso   1.00
H403   H     0.55795   0.95244   0.34067   0.00000  Uiso   1.00
H404   H     0.88350   0.16025   0.61922   0.00000  Uiso   1.00
H405   H     0.42157   0.60602   0.42294   0.00000  Uiso   1.00
O406   O     0.38875   0.95338   0.23795   0.00000  Uiso   1.00
O407   O     0.81586   0.22603   0.60340   0.00000  Uiso   1.00
O408   O     0.36580   0.65488   0.34588   0.00000  Uiso   1.00
N409   N     0.42287   0.01952   0.24819   0.00000  Uiso   1.00
N410   N     0.72722   0.21381   0.50861   0.00000  Uiso   1.00
N411   N     0.26283   0.66312   0.32512   0.00000  Uiso   1.00
N412   N     0.52785   0.97807   0.31837   0.00000  Uiso   1.00
N413   N     0.83220   0.17236   0.57880   0.00000  Uiso   1.00
N414   N     0.36781   0.62167   0.39530   0.00000  Uiso   1.00
C415   C     0.40049   0.64919   0.90350   0.00000  Uiso   1.00
C416   C     0.35036   0.66427   0.84587   0.00000  Uiso   1.00
C417   C     0.26723   0.67850   0.79804   0.00000  Uiso   1.00
C418   C     0.23270   0.69089   0.74941   0.00000  Uiso   1.00
C419   C     0.14770   0.71456   0.66003   0.00000  Uiso   1.00
C420   C     0.42839   0.60718   0.91147   0.00000  Uiso   1.00
C421   C     0.41087   0.57342   0.91880   0.00000  Uiso   1.00
C422   C     0.44205   0.53776   0.92540   0.00000  Uiso   1.00
C423   C     0.47825   0.47281   0.93791   0.00000  Uiso   1.00
C424   C     0.48200   0.67385   0.95225   0.00000  Uiso   1.00
C425   C     0.50958   0.69615   0.99388   0.00000  Uiso   1.00
C426   C     0.58591   0.71661   0.03482   0.00000  Uiso   1.00
C427   C     0.70535   0.75518   0.11064   0.00000  Uiso   1.00
C428   C     0.48701   0.64589   0.90220   0.00000  Uiso   1.00
C429   C     0.39736   0.66247   0.84517   0.00000  Uiso   1.00
C430   C     0.36295   0.67485   0.79660   0.00000  Uiso   1.00
C431   C     0.27978   0.68910   0.74870   0.00000  Uiso   1.00
C432   C     0.47539   0.60539   0.91077   0.00000  Uiso   1.00
C433   C     0.50660   0.56977   0.91736   0.00000  Uiso   1.00
C434   C     0.48913   0.53596   0.92469   0.00000  Uiso   1.00
C435   C     0.52900   0.67206   0.95154   0.00000  Uiso   1.00
C436   C     0.60531   0.69249   0.99243   0.00000  Uiso   1.00
C437   C     0.63299   0.71481   0.03411   0.00000  Uiso   1.00
H438   H     0.36390   0.65058   0.90405   0.00000  Uiso   1.00
H439   H     0.23087   0.67988   0.79860   0.00000  Uiso   1.00
H440   H     0.37451   0.57482   0.91935   0.00000  Uiso   1.00
H441   H     0.47320   0.69753   0.99441   0.00000  Uiso   1.00
H442   H     0.10410   0.71156   0.68137   0.00000  Uiso   1.00
H443   H     0.40699   0.49003   0.93600   0.00000  Uiso   1.00
H444   H     0.61509   0.74878   0.09428   0.00000  Uiso   1.00
H445   H     0.52361   0.64449   0.90165   0.00000  Uiso   1.00
H446   H     0.39934   0.67345   0.79606   0.00000  Uiso   1.00
H447   H     0.54297   0.56839   0.91681   0.00000  Uiso   1.00
H448   H     0.64166   0.69110   0.99187   0.00000  Uiso   1.00
H449   H     0.24083   0.70634   0.67931   0.00000  Uiso   1.00
H450   H     0.54372   0.48481   0.93394   0.00000  Uiso   1.00
H451   H     0.75182   0.74357   0.09222   0.00000  Uiso   1.00
O452   O     0.08783   0.72810   0.61092   0.00000  Uiso   1.00
O453   O     0.48522   0.43747   0.94499   0.00000  Uiso   1.00
O454   O     0.75824   0.77695   0.15265   0.00000  Uiso   1.00
N455   N     0.15334   0.70636   0.69538   0.00000  Uiso   1.00
N456   N     0.43651   0.49925   0.93343   0.00000  Uiso   1.00
N457   N     0.63108   0.74115   0.08142   0.00000  Uiso   1.00
N458   N     0.22692   0.70355   0.69427   0.00000  Uiso   1.00
N459   N     0.51009   0.49644   0.93232   0.00000  Uiso   1.00
N460   N     0.70465   0.73834   0.08031   0.00000  Uiso   1.00
C461   C     0.25485   0.23051   0.63363   0.00000  Uiso   1.00
C462   C     0.24309   0.25957   0.65398   0.00000  Uiso   1.00
C463   C     0.17360   0.26090   0.63380   0.00000  Uiso   1.00
C464   C     0.17487   0.28971   0.65792   0.00000  Uiso   1.00
C465   C     0.14619   0.33083   0.68299   0.00000  Uiso   1.00
C466   C     0.26794   0.25571   0.61178   0.00000  Uiso   1.00
C467   C     0.21934   0.25378   0.55612   0.00000  Uiso   1.00
C468   C     0.24153   0.27933   0.54472   0.00000  Uiso   1.00
C469   C     0.25147   0.31442   0.50429   0.00000  Uiso   1.00
C470   C     0.33974   0.20968   0.68906   0.00000  Uiso   1.00
C471   C     0.85153   0.66906   0.69838   0.00000  Uiso   1.00
C472   C     0.93419   0.65586   0.75204   0.00000  Uiso   1.00
C473   C     0.05561   0.61949   0.83160   0.00000  Uiso   1.00
C474   C     0.38067   0.27930   0.71234   0.00000  Uiso   1.00
C475   C     0.31143   0.28608   0.69673   0.00000  Uiso   1.00
C476   C     0.31281   0.31489   0.72089   0.00000  Uiso   1.00
C477   C     0.24333   0.31626   0.70075   0.00000  Uiso   1.00
C478   C     0.33628   0.28221   0.65453   0.00000  Uiso   1.00
C479   C     0.35855   0.30777   0.64321   0.00000  Uiso   1.00
C480   C     0.31000   0.30588   0.58755   0.00000  Uiso   1.00
C481   C     0.40809   0.23619   0.73182   0.00000  Uiso   1.00
C482   C     0.49074   0.22305   0.78547   0.00000  Uiso   1.00
C483   C     0.00265   0.68241   0.79487   0.00000  Uiso   1.00
H484   H     0.20164   0.20987   0.60034   0.00000  Uiso   1.00
H485   H     0.12072   0.24039   0.60071   0.00000  Uiso   1.00
H486   H     0.16646   0.23326   0.52305   0.00000  Uiso   1.00
H487   H     0.79863   0.64856   0.66528   0.00000  Uiso   1.00
H488   H     0.06113   0.28592   0.61996   0.00000  Uiso   1.00
H489   H     0.15759   0.27089   0.45621   0.00000  Uiso   1.00
H490   H     0.93630   0.59226   0.75614   0.00000  Uiso   1.00
H491   H     0.43388   0.29994   0.74563   0.00000  Uiso   1.00
H492   H     0.36571   0.33540   0.75397   0.00000  Uiso   1.00
H493   H     0.41144   0.32827   0.67630   0.00000  Uiso   1.00
H494   H     0.54361   0.24356   0.81854   0.00000  Uiso   1.00
H495   H     0.25996   0.36303   0.74435   0.00000  Uiso   1.00
H496   H     0.35643   0.34799   0.58059   0.00000  Uiso   1.00
H497   H     0.13513   0.66937   0.88053   0.00000  Uiso   1.00
O498   O     0.11149   0.34618   0.68501   0.00000  Uiso   1.00
O499   O     0.23806   0.32645   0.47017   0.00000  Uiso   1.00
O500   O     0.10371   0.59211   0.86368   0.00000  Uiso   1.00
N501   N     0.11729   0.29920   0.64810   0.00000  Uiso   1.00
N502   N     0.20747   0.28514   0.49499   0.00000  Uiso   1.00
N503   N     0.96804   0.61815   0.77540   0.00000  Uiso   1.00
N504   N     0.22428   0.34069   0.71503   0.00000  Uiso   1.00
N505   N     0.31446   0.32664   0.56193   0.00000  Uiso   1.00
N506   N     0.07503   0.65964   0.84234   0.00000  Uiso   1.00
C507   C     0.12838   0.63578   0.35444   0.00000  Uiso   1.00
C508   C     0.09740   0.59361   0.34230   0.00000  Uiso   1.00
C509   C     0.01287   0.58124   0.29301   0.00000  Uiso   1.00
C510   C     0.99775   0.54141   0.29012   0.00000  Uiso   1.00
C511   C     0.93943   0.47996   0.26448   0.00000  Uiso   1.00
C512   C     0.18127   0.64716   0.41408   0.00000  Uiso   1.00
C513   C     0.16727   0.67981   0.42513   0.00000  Uiso   1.00
C514   C     0.22276   0.68505   0.48267   0.00000  Uiso   1.00
C515   C     0.29471   0.70675   0.56846   0.00000  Uiso   1.00
C516   C     0.69108   0.13318   0.36350   0.00000  Uiso   1.00
C517   C     0.68533   0.15409   0.33204   0.00000  Uiso   1.00
C518   C     0.74909   0.14758   0.34700   0.00000  Uiso   1.00
C519   C     0.83625   0.14757   0.35426   0.00000  Uiso   1.00
C520   C     0.25184   0.58704   0.43697   0.00000  Uiso   1.00
C521   C     0.16446   0.56713   0.38714   0.00000  Uiso   1.00
C522   C     0.14946   0.52731   0.38432   0.00000  Uiso   1.00
C523   C     0.06492   0.51488   0.33503   0.00000  Uiso   1.00
C524   C     0.24833   0.62068   0.45891   0.00000  Uiso   1.00
C525   C     0.30386   0.62588   0.51645   0.00000  Uiso   1.00
C526   C     0.28994   0.65853   0.52758   0.00000  Uiso   1.00
C527   C     0.75813   0.10670   0.40833   0.00000  Uiso   1.00
C528   C     0.82192   0.10016   0.42335   0.00000  Uiso   1.00
C529   C     0.81627   0.12105   0.39191   0.00000  Uiso   1.00
H530   H     0.07618   0.65640   0.31954   0.00000  Uiso   1.00
H531   H     0.96099   0.60175   0.25833   0.00000  Uiso   1.00
H532   H     0.11538   0.70030   0.39043   0.00000  Uiso   1.00
H533   H     0.63343   0.17458   0.29735   0.00000  Uiso   1.00
H534   H     0.86286   0.52948   0.21024   0.00000  Uiso   1.00
H535   H     0.18840   0.73729   0.48879   0.00000  Uiso   1.00
H536   H     0.72648   0.18306   0.29251   0.00000  Uiso   1.00
H537   H     0.30405   0.56642   0.47188   0.00000  Uiso   1.00
H538   H     0.20137   0.50683   0.41902   0.00000  Uiso   1.00
H539   H     0.35575   0.60538   0.55113   0.00000  Uiso   1.00
H540   H     0.87380   0.07966   0.45805   0.00000  Uiso   1.00
H541   H     0.05795   0.45244   0.34067   0.00000  Uiso   1.00
H542   H     0.38350   0.66025   0.61922   0.00000  Uiso   1.00
H543   H     0.92157   0.10602   0.42294   0.00000  Uiso   1.00
O544   O     0.88875   0.45338   0.23795   0.00000  Uiso   1.00
O545   O     0.31586   0.72603   0.60340   0.00000  Uiso   1.00
O546   O     0.86580   0.15488   0.34588   0.00000  Uiso   1.00
N547   N     0.92287   0.51952   0.24819   0.00000  Uiso   1.00
N548   N     0.22722   0.71381   0.50861   0.00000  Uiso   1.00
N549   N     0.76283   0.16312   0.32512   0.00000  Uiso   1.00
N550   N     0.02785   0.47807   0.31837   0.00000  Uiso   1.00
N551   N     0.33220   0.67236   0.57880   0.00000  Uiso   1.00
N552   N     0.86781   0.12167   0.39530   0.00000  Uiso   1.00
C553   C     0.90049   0.85081   0.40350   0.00000  Uiso   1.00
C554   C     0.85036   0.83573   0.34587   0.00000  Uiso   1.00
C555   C     0.76723   0.82150   0.29804   0.00000  Uiso   1.00
C556   C     0.73270   0.80911   0.24941   0.00000  Uiso   1.00
C557   C     0.64770   0.78544   0.16003   0.00000  Uiso   1.00
C558   C     0.92839   0.89282   0.41147   0.00000  Uiso   1.00
C559   C     0.91087   0.92658   0.41880   0.00000  Uiso   1.00
C560   C     0.94205   0.96224   0.42540   0.00000  Uiso   1.00
C561   C     0.97825   0.02719   0.43791   0.00000  Uiso   1.00
C562   C     0.98200   0.82615   0.45225   0.00000  Uiso   1.00
C563   C     0.00958   0.80385   0.49388   0.00000  Uiso   1.00
C564   C     0.08591   0.78339   0.53482   0.00000  Uiso   1.00
C565   C     0.20535   0.74482   0.61064   0.00000  Uiso   1.00
C566   C     0.98701   0.85411   0.40220   0.00000  Uiso   1.00
C567   C     0.89736   0.83753   0.34517   0.00000  Uiso   1.00
C568   C     0.86295   0.82515   0.29660   0.00000  Uiso   1.00
C569   C     0.77978   0.81090   0.24870   0.00000  Uiso   1.00
C570   C     0.97539   0.89461   0.41077   0.00000  Uiso   1.00
C571   C     0.00660   0.93023   0.41736   0.00000  Uiso   1.00
C572   C     0.98913   0.96404   0.42469   0.00000  Uiso   1.00
C573   C     0.02900   0.82794   0.45154   0.00000  Uiso   1.00
C574   C     0.10531   0.80751   0.49243   0.00000  Uiso   1.00
C575   C     0.13299   0.78519   0.53411   0.00000  Uiso   1.00
H576   H     0.86390   0.84942   0.40405   0.00000  Uiso   1.00
H577   H     0.73087   0.82012   0.29860   0.00000  Uiso   1.00
H578   H     0.87451   0.92518   0.41935   0.00000  Uiso   1.00
H579   H     0.97320   0.80247   0.49441   0.00000  Uiso   1.00
H580   H     0.60410   0.78844   0.18137   0.00000  Uiso   1.00
H581   H     0.90699   0.00997   0.43600   0.00000  Uiso   1.00
H582   H     0.11509   0.75122   0.59428   0.00000  Uiso   1.00
H583   H     0.02361   0.85551   0.40165   0.00000  Uiso   1.00
H584   H     0.89934   0.82655   0.29606   0.00000  Uiso   1.00
H585   H     0.04297   0.93161   0.41681   0.00000  Uiso   1.00
H586   H     0.14166   0.80890   0.49187   0.00000  Uiso   1.00
H587   H     0.74083   0.79366   0.17931   0.00000  Uiso   1.00
H588   H     0.04372   0.01519   0.43394   0.00000  Uiso   1.00
H589   H     0.25182   0.75643   0.59222   0.00000  Uiso   1.00
O590   O     0.58783   0.77190   0.11092   0.00000  Uiso   1.00
O591   O     0.98522   0.06253   0.44499   0.00000  Uiso   1.00
O592   O     0.25824   0.72305   0.65265   0.00000  Uiso   1.00
N593   N     0.65334   0.79364   0.19538   0.00000  Uiso   1.00
N594   N     0.93651   0.00075   0.43343   0.00000  Uiso   1.00
N595   N     0.13108   0.75885   0.58142   0.00000  Uiso   1.00
N596   N     0.72692   0.79645   0.19427   0.00000  Uiso   1.00
N597   N     0.01009   0.00356   0.43232   0.00000  Uiso   1.00
N598   N     0.20465   0.76166   0.58031   0.00000  Uiso   1.00
C599   C     0.75485   0.26949   0.13363   0.00000  Uiso   1.00
C600   C     0.74309   0.24043   0.15398   0.00000  Uiso   1.00
C601   C     0.67360   0.23910   0.13380   0.00000  Uiso   1.00
C602   C     0.67487   0.21029   0.15792   0.00000  Uiso   1.00
C603   C     0.64619   0.16917   0.18299   0.00000  Uiso   1.00
C604   C     0.76794   0.24429   0.11178   0.00000  Uiso   1.00
C605   C     0.71934   0.24622   0.05612   0.00000  Uiso   1.00
C606   C     0.74153   0.22067   0.04472   0.00000  Uiso   1.00
C607   C     0.75147   0.18558   0.00429   0.00000  Uiso   1.00
C608   C     0.83974   0.29032   0.18906   0.00000  Uiso   1.00
C609   C     0.35153   0.83094   0.19838   0.00000  Uiso   1.00
C610   C     0.43419   0.84414   0.25204   0.00000  Uiso   1.00
C611   C     0.55561   0.88051   0.33160   0.00000  Uiso   1.00
C612   C     0.88067   0.22070   0.21234   0.00000  Uiso   1.00
C613   C     0.81143   0.21392   0.19673   0.00000  Uiso   1.00
C614   C     0.81281   0.18511   0.22089   0.00000  Uiso   1.00
C615   C     0.74333   0.18374   0.20075   0.00000  Uiso   1.00
C616   C     0.83628   0.21779   0.15453   0.00000  Uiso   1.00
C617   C     0.85855   0.19223   0.14321   0.00000  Uiso   1.00
C618   C     0.81000   0.19412   0.08755   0.00000  Uiso   1.00
C619   C     0.90809   0.26381   0.23182   0.00000  Uiso   1.00
C620   C     0.99074   0.27695   0.28547   0.00000  Uiso   1.00
C621   C     0.50265   0.81759   0.29487   0.00000  Uiso   1.00
H622   H     0.70164   0.29013   0.10034   0.00000  Uiso   1.00
H623   H     0.62072   0.25961   0.10071   0.00000  Uiso   1.00
H624   H     0.66646   0.26674   0.02305   0.00000  Uiso   1.00
H625   H     0.29863   0.85144   0.16528   0.00000  Uiso   1.00
H626   H     0.56113   0.21408   0.11996   0.00000  Uiso   1.00
H627   H     0.65759   0.22911   0.95621   0.00000  Uiso   1.00
H628   H     0.43630   0.90774   0.25614   0.00000  Uiso   1.00
H629   H     0.93388   0.20006   0.24563   0.00000  Uiso   1.00
H630   H     0.86571   0.16460   0.25397   0.00000  Uiso   1.00
H631   H     0.91144   0.17173   0.17630   0.00000  Uiso   1.00
H632   H     0.04361   0.25644   0.31854   0.00000  Uiso   1.00
H633   H     0.75996   0.13697   0.24435   0.00000  Uiso   1.00
H634   H     0.85643   0.15201   0.08059   0.00000  Uiso   1.00
H635   H     0.63513   0.83063   0.38053   0.00000  Uiso   1.00
O636   O     0.61149   0.15382   0.18501   0.00000  Uiso   1.00
O637   O     0.73806   0.17355   0.97017   0.00000  Uiso   1.00
O638   O     0.60371   0.90789   0.36368   0.00000  Uiso   1.00
N639   N     0.61729   0.20080   0.14810   0.00000  Uiso   1.00
N640   N     0.70747   0.21486   0.99499   0.00000  Uiso   1.00
N641   N     0.46804   0.88185   0.27540   0.00000  Uiso   1.00
N642   N     0.72428   0.15931   0.21503   0.00000  Uiso   1.00
N643   N     0.81446   0.17336   0.06193   0.00000  Uiso   1.00
N644   N     0.57503   0.84036   0.34234   0.00000  Uiso   1.00
C645   C     0.62838   0.86422   0.85444   0.00000  Uiso   1.00
C646   C     0.59740   0.90639   0.84230   0.00000  Uiso   1.00
C647   C     0.51287   0.91876   0.79301   0.00000  Uiso   1.00
C648   C     0.49775   0.95859   0.79012   0.00000  Uiso   1.00
C649   C     0.43943   0.02004   0.76448   0.00000  Uiso   1.00
C650   C     0.68127   0.85284   0.91408   0.00000  Uiso   1.00
C651   C     0.66727   0.82019   0.92513   0.00000  Uiso   1.00
C652   C     0.72276   0.81495   0.98267   0.00000  Uiso   1.00
C653   C     0.79471   0.79325   0.06846   0.00000  Uiso   1.00
C654   C     0.19108   0.36682   0.86350   0.00000  Uiso   1.00
C655   C     0.18533   0.34591   0.83204   0.00000  Uiso   1.00
C656   C     0.24909   0.35242   0.84700   0.00000  Uiso   1.00
C657   C     0.33625   0.35243   0.85426   0.00000  Uiso   1.00
C658   C     0.75184   0.91296   0.93697   0.00000  Uiso   1.00
C659   C     0.66446   0.93287   0.88714   0.00000  Uiso   1.00
C660   C     0.64946   0.97269   0.88432   0.00000  Uiso   1.00
C661   C     0.56492   0.98512   0.83503   0.00000  Uiso   1.00
C662   C     0.74833   0.87932   0.95891   0.00000  Uiso   1.00
C663   C     0.80386   0.87412   0.01645   0.00000  Uiso   1.00
C664   C     0.78994   0.84147   0.02758   0.00000  Uiso   1.00
C665   C     0.25813   0.39330   0.90833   0.00000  Uiso   1.00
C666   C     0.32192   0.39984   0.92335   0.00000  Uiso   1.00
C667   C     0.31627   0.37895   0.89191   0.00000  Uiso   1.00
H668   H     0.57618   0.84360   0.81954   0.00000  Uiso   1.00
H669   H     0.46099   0.89825   0.75833   0.00000  Uiso   1.00
H670   H     0.61538   0.79970   0.89043   0.00000  Uiso   1.00
H671   H     0.13343   0.32542   0.79735   0.00000  Uiso   1.00
H672   H     0.36286   0.97052   0.71024   0.00000  Uiso   1.00
H673   H     0.68840   0.76271   0.98879   0.00000  Uiso   1.00
H674   H     0.22648   0.31694   0.79251   0.00000  Uiso   1.00
H675   H     0.80405   0.93358   0.97188   0.00000  Uiso   1.00
H676   H     0.70137   0.99317   0.91902   0.00000  Uiso   1.00
H677   H     0.85575   0.89462   0.05113   0.00000  Uiso   1.00
H678   H     0.37380   0.42034   0.95805   0.00000  Uiso   1.00
H679   H     0.55795   0.04756   0.84067   0.00000  Uiso   1.00
H680   H     0.88350   0.83975   0.11922   0.00000  Uiso   1.00
H681   H     0.42157   0.39398   0.92294   0.00000  Uiso   1.00
O682   O     0.38875   0.04662   0.73795   0.00000  Uiso   1.00
O683   O     0.81586   0.77397   0.10340   0.00000  Uiso   1.00
O684   O     0.36580   0.34512   0.84588   0.00000  Uiso   1.00
N685   N     0.42287   0.98048   0.74819   0.00000  Uiso   1.00
N686   N     0.72722   0.78619   0.00861   0.00000  Uiso   1.00
N687   N     0.26283   0.33688   0.82512   0.00000  Uiso   1.00
N688   N     0.52785   0.02193   0.81837   0.00000  Uiso   1.00
N689   N     0.83220   0.82764   0.07880   0.00000  Uiso   1.00
N690   N     0.36781   0.37833   0.89530   0.00000  Uiso   1.00
C691   C     0.40049   0.35081   0.40350   0.00000  Uiso   1.00
C692   C     0.35036   0.33573   0.34587   0.00000  Uiso   1.00
C693   C     0.26723   0.32150   0.29804   0.00000  Uiso   1.00
C694   C     0.23270   0.30911   0.24941   0.00000  Uiso   1.00
C695   C     0.14770   0.28544   0.16003   0.00000  Uiso   1.00
C696   C     0.42839   0.39282   0.41147   0.00000  Uiso   1.00
C697   C     0.41087   0.42658   0.41880   0.00000  Uiso   1.00
C698   C     0.44205   0.46224   0.42540   0.00000  Uiso   1.00
C699   C     0.47825   0.52719   0.43791   0.00000  Uiso   1.00
C700   C     0.48200   0.32615   0.45225   0.00000  Uiso   1.00
C701   C     0.50958   0.30385   0.49388   0.00000  Uiso   1.00
C702   C     0.58591   0.28339   0.53482   0.00000  Uiso   1.00
C703   C     0.70535   0.24482   0.61064   0.00000  Uiso   1.00
C704   C     0.48701   0.35411   0.40220   0.00000  Uiso   1.00
C705   C     0.39736   0.33753   0.34517   0.00000  Uiso   1.00
C706   C     0.36295   0.32515   0.29660   0.00000  Uiso   1.00
C707   C     0.27978   0.31090   0.24870   0.00000  Uiso   1.00
C708   C     0.47539   0.39461   0.41077   0.00000  Uiso   1.00
C709   C     0.50660   0.43023   0.41736   0.00000  Uiso   1.00
C710   C     0.48913   0.46404   0.42469   0.00000  Uiso   1.00
C711   C     0.52900   0.32794   0.45154   0.00000  Uiso   1.00
C712   C     0.60531   0.30751   0.49243   0.00000  Uiso   1.00
C713   C     0.63299   0.28519   0.53411   0.00000  Uiso   1.00
H714   H     0.36390   0.34942   0.40405   0.00000  Uiso   1.00
H715   H     0.23087   0.32012   0.29860   0.00000  Uiso   1.00
H716   H     0.37451   0.42518   0.41935   0.00000  Uiso   1.00
H717   H     0.47320   0.30247   0.49441   0.00000  Uiso   1.00
H718   H     0.10410   0.28844   0.18137   0.00000  Uiso   1.00
H719   H     0.40699   0.50997   0.43600   0.00000  Uiso   1.00
H720   H     0.61509   0.25122   0.59428   0.00000  Uiso   1.00
H721   H     0.52361   0.35551   0.40165   0.00000  Uiso   1.00
H722   H     0.39934   0.32655   0.29606   0.00000  Uiso   1.00
H723   H     0.54297   0.43161   0.41681   0.00000  Uiso   1.00
H724   H     0.64166   0.30890   0.49187   0.00000  Uiso   1.00
H725   H     0.24083   0.29366   0.17931   0.00000  Uiso   1.00
H726   H     0.54372   0.51519   0.43394   0.00000  Uiso   1.00
H727   H     0.75182   0.25643   0.59222   0.00000  Uiso   1.00
O728   O     0.08783   0.27190   0.11092   0.00000  Uiso   1.00
O729   O     0.48522   0.56253   0.44499   0.00000  Uiso   1.00
O730   O     0.75824   0.22305   0.65265   0.00000  Uiso   1.00
N731   N     0.15334   0.29364   0.19538   0.00000  Uiso   1.00
N732   N     0.43651   0.50075   0.43343   0.00000  Uiso   1.00
N733   N     0.63108   0.25885   0.58142   0.00000  Uiso   1.00
N734   N     0.22692   0.29645   0.19427   0.00000  Uiso   1.00
N735   N     0.51009   0.50356   0.43232   0.00000  Uiso   1.00
N736   N     0.70465   0.26166   0.58031   0.00000  Uiso   1.00
C737   C     0.25485   0.76949   0.13363   0.00000  Uiso   1.00
C738   C     0.24309   0.74043   0.15398   0.00000  Uiso   1.00
C739   C     0.17360   0.73910   0.13380   0.00000  Uiso   1.00
C740   C     0.17487   0.71029   0.15792   0.00000  Uiso   1.00
C741   C     0.14619   0.66917   0.18299   0.00000  Uiso   1.00
C742   C     0.26794   0.74429   0.11178   0.00000  Uiso   1.00
C743   C     0.21934   0.74622   0.05612   0.00000  Uiso   1.00
C744   C     0.24153   0.72067   0.04472   0.00000  Uiso   1.00
C745   C     0.25147   0.68558   0.00429   0.00000  Uiso   1.00
C746   C     0.33974   0.79032   0.18906   0.00000  Uiso   1.00
C747   C     0.85153   0.33094   0.19838   0.00000  Uiso   1.00
C748   C     0.93419   0.34414   0.25204   0.00000  Uiso   1.00
C749   C     0.05561   0.38051   0.33160   0.00000  Uiso   1.00
C750   C     0.38067   0.72070   0.21234   0.00000  Uiso   1.00
C751   C     0.31143   0.71392   0.19673   0.00000  Uiso   1.00
C752   C     0.31281   0.68511   0.22089   0.00000  Uiso   1.00
C753   C     0.24333   0.68374   0.20075   0.00000  Uiso   1.00
C754   C     0.33628   0.71779   0.15453   0.00000  Uiso   1.00
C755   C     0.35855   0.69223   0.14321   0.00000  Uiso   1.00
C756   C     0.31000   0.69412   0.08755   0.00000  Uiso   1.00
C757   C     0.40809   0.76381   0.23182   0.00000  Uiso   1.00
C758   C     0.49074   0.77695   0.28547   0.00000  Uiso   1.00
C759   C     0.00265   0.31759   0.29487   0.00000  Uiso   1.00
H760   H     0.20164   0.79013   0.10034   0.00000  Uiso   1.00
H761   H     0.12072   0.75961   0.10071   0.00000  Uiso   1.00
H762   H     0.16646   0.76674   0.02305   0.00000  Uiso   1.00
H763   H     0.79863   0.35144   0.16528   0.00000  Uiso   1.00
H764   H     0.06113   0.71408   0.11996   0.00000  Uiso   1.00
H765   H     0.15759   0.72911   0.95621   0.00000  Uiso   1.00
H766   H     0.93630   0.40774   0.25614   0.00000  Uiso   1.00
H767   H     0.43388   0.70006   0.24563   0.00000  Uiso   1.00
H768   H     0.36571   0.66460   0.25397   0.00000  Uiso   1.00
H769   H     0.41144   0.67173   0.17630   0.00000  Uiso   1.00
H770   H     0.54361   0.75644   0.31854   0.00000  Uiso   1.00
H771   H     0.25996   0.63697   0.24435   0.00000  Uiso   1.00
H772   H     0.35643   0.65201   0.08059   0.00000  Uiso   1.00
H773   H     0.13513   0.33063   0.38053   0.00000  Uiso   1.00
O774   O     0.11149   0.65382   0.18501   0.00000  Uiso   1.00
O775   O     0.23806   0.67355   0.97017   0.00000  Uiso   1.00
O776   O     0.10371   0.40789   0.36368   0.00000  Uiso   1.00
N777   N     0.11729   0.70080   0.14810   0.00000  Uiso   1.00
N778   N     0.20747   0.71486   0.99499   0.00000  Uiso   1.00
N779   N     0.96804   0.38185   0.27540   0.00000  Uiso   1.00
N780   N     0.22428   0.65931   0.21503   0.00000  Uiso   1.00
N781   N     0.31446   0.67336   0.06193   0.00000  Uiso   1.00
N782   N     0.07503   0.34036   0.34234   0.00000  Uiso   1.00
C783   C     0.12838   0.36422   0.85444   0.00000  Uiso   1.00
C784   C     0.09740   0.40639   0.84230   0.00000  Uiso   1.00
C785   C     0.01287   0.41876   0.79301   0.00000  Uiso   1.00
C786   C     0.99775   0.45859   0.79012   0.00000  Uiso   1.00
C787   C     0.93943   0.52004   0.76448   0.00000  Uiso   1.00
C788   C     0.18127   0.35284   0.91408   0.00000  Uiso   1.00
C789   C     0.16727   0.32019   0.92513   0.00000  Uiso   1.00
C790   C     0.22276   0.31495   0.98267   0.00000  Uiso   1.00
C791   C     0.29471   0.29325   0.06846   0.00000  Uiso   1.00
C792   C     0.69108   0.86682   0.86350   0.00000  Uiso   1.00
C793   C     0.68533   0.84591   0.83204   0.00000  Uiso   1.00
C794   C     0.74909   0.85242   0.84700   0.00000  Uiso   1.00
C795   C     0.83625   0.85243   0.85426   0.00000  Uiso   1.00
C796   C     0.25184   0.41296   0.93697   0.00000  Uiso   1.00
C797   C     0.16446   0.43287   0.88714   0.00000  Uiso   1.00
C798   C     0.14946   0.47269   0.88432   0.00000  Uiso   1.00
C799   C     0.06492   0.48512   0.83503   0.00000  Uiso   1.00
C800   C     0.24833   0.37932   0.95891   0.00000  Uiso   1.00
C801   C     0.30386   0.37412   0.01645   0.00000  Uiso   1.00
C802   C     0.28994   0.34147   0.02758   0.00000  Uiso   1.00
C803   C     0.75813   0.89330   0.90833   0.00000  Uiso   1.00
C804   C     0.82192   0.89984   0.92335   0.00000  Uiso   1.00
C805   C     0.81627   0.87895   0.89191   0.00000  Uiso   1.00
H806   H     0.07618   0.34360   0.81954   0.00000  Uiso   1.00
H807   H     0.96099   0.39825   0.75833   0.00000  Uiso   1.00
H808   H     0.11538   0.29970   0.89043   0.00000  Uiso   1.00
H809   H     0.63343   0.82542   0.79735   0.00000  Uiso   1.00
H810   H     0.86286   0.47052   0.71024   0.00000  Uiso   1.00
H811   H     0.18840   0.26271   0.98879   0.00000  Uiso   1.00
H812   H     0.72648   0.81694   0.79251   0.00000  Uiso   1.00
H813   H     0.30405   0.43358   0.97188   0.00000  Uiso   1.00
H814   H     0.20137   0.49317   0.91902   0.00000  Uiso   1.00
H815   H     0.35575   0.39462   0.05113   0.00000  Uiso   1.00
H816   H     0.87380   0.92034   0.95805   0.00000  Uiso   1.00
H817   H     0.05795   0.54756   0.84067   0.00000  Uiso   1.00
H818   H     0.38350   0.33975   0.11922   0.00000  Uiso   1.00
H819   H     0.92157   0.89398   0.92294   0.00000  Uiso   1.00
O820   O     0.88875   0.54662   0.73795   0.00000  Uiso   1.00
O821   O     0.31586   0.27397   0.10340   0.00000  Uiso   1.00
O822   O     0.86580   0.84512   0.84588   0.00000  Uiso   1.00
N823   N     0.92287   0.48048   0.74819   0.00000  Uiso   1.00
N824   N     0.22722   0.28619   0.00861   0.00000  Uiso   1.00
N825   N     0.76283   0.83688   0.82512   0.00000  Uiso   1.00
N826   N     0.02785   0.52193   0.81837   0.00000  Uiso   1.00
N827   N     0.33220   0.32764   0.07880   0.00000  Uiso   1.00
N828   N     0.86781   0.87833   0.89530   0.00000  Uiso   1.00
C829   C     0.09951   0.85081   0.09650   0.00000  Uiso   1.00
C830   C     0.14964   0.83573   0.15413   0.00000  Uiso   1.00
C831   C     0.23277   0.82150   0.20196   0.00000  Uiso   1.00
C832   C     0.26730   0.80911   0.25059   0.00000  Uiso   1.00
C833   C     0.35230   0.78544   0.33997   0.00000  Uiso   1.00
C834   C     0.07161   0.89282   0.08853   0.00000  Uiso   1.00
C835   C     0.08913   0.92658   0.08120   0.00000  Uiso   1.00
C836   C     0.05795   0.96224   0.07460   0.00000  Uiso   1.00
C837   C     0.02175   0.02719   0.06209   0.00000  Uiso   1.00
C838   C     0.01800   0.82615   0.04775   0.00000  Uiso   1.00
C839   C     0.99042   0.80385   0.00612   0.00000  Uiso   1.00
C840   C     0.91409   0.78339   0.96518   0.00000  Uiso   1.00
C841   C     0.79465   0.74482   0.88936   0.00000  Uiso   1.00
C842   C     0.01299   0.85411   0.09780   0.00000  Uiso   1.00
C843   C     0.10264   0.83753   0.15483   0.00000  Uiso   1.00
C844   C     0.13705   0.82515   0.20340   0.00000  Uiso   1.00
C845   C     0.22022   0.81090   0.25130   0.00000  Uiso   1.00
C846   C     0.02461   0.89461   0.08923   0.00000  Uiso   1.00
C847   C     0.99340   0.93023   0.08264   0.00000  Uiso   1.00
C848   C     0.01087   0.96404   0.07531   0.00000  Uiso   1.00
C849   C     0.97100   0.82794   0.04846   0.00000  Uiso   1.00
C850   C     0.89469   0.80751   0.00757   0.00000  Uiso   1.00
C851   C     0.86701   0.78519   0.96589   0.00000  Uiso   1.00
H852   H     0.13610   0.84942   0.09595   0.00000  Uiso   1.00
H853   H     0.26913   0.82012   0.20140   0.00000  Uiso   1.00
H854   H     0.12549   0.92518   0.08065   0.00000  Uiso   1.00
H855   H     0.02680   0.80247   0.00559   0.00000  Uiso   1.00
H856   H     0.39590   0.78844   0.31863   0.00000  Uiso   1.00
H857   H     0.09301   0.00997   0.06400   0.00000  Uiso   1.00
H858   H     0.88491   0.75122   0.90572   0.00000  Uiso   1.00
H859   H     0.97639   0.85551   0.09835   0.00000  Uiso   1.00
H860   H     0.10066   0.82655   0.20394   0.00000  Uiso   1.00
H861   H     0.95703   0.93161   0.08319   0.00000  Uiso   1.00
H862   H     0.85834   0.80890   0.00813   0.00000  Uiso   1.00
H863   H     0.25917   0.79366   0.32069   0.00000  Uiso   1.00
H864   H     0.95628   0.01519   0.06606   0.00000  Uiso   1.00
H865   H     0.74818   0.75643   0.90778   0.00000  Uiso   1.00
O866   O     0.41217   0.77190   0.38908   0.00000  Uiso   1.00
O867   O     0.01478   0.06253   0.05501   0.00000  Uiso   1.00
O868   O     0.74176   0.72305   0.84735   0.00000  Uiso   1.00
N869   N     0.34666   0.79364   0.30462   0.00000  Uiso   1.00
N870   N     0.06349   0.00075   0.06657   0.00000  Uiso   1.00
N871   N     0.86892   0.75885   0.91858   0.00000  Uiso   1.00
N872   N     0.27308   0.79645   0.30573   0.00000  Uiso   1.00
N873   N     0.98991   0.00356   0.06768   0.00000  Uiso   1.00
N874   N     0.79535   0.76166   0.91969   0.00000  Uiso   1.00
C875   C     0.24515   0.26949   0.36637   0.00000  Uiso   1.00
C876   C     0.25691   0.24043   0.34602   0.00000  Uiso   1.00
C877   C     0.32640   0.23910   0.36620   0.00000  Uiso   1.00
C878   C     0.32513   0.21029   0.34208   0.00000  Uiso   1.00
C879   C     0.35381   0.16917   0.31701   0.00000  Uiso   1.00
C880   C     0.23206   0.24429   0.38822   0.00000  Uiso   1.00
C881   C     0.28066   0.24622   0.44388   0.00000  Uiso   1.00
C882   C     0.25847   0.22067   0.45528   0.00000  Uiso   1.00
C883   C     0.24853   0.18558   0.49571   0.00000  Uiso   1.00
C884   C     0.16026   0.29032   0.31094   0.00000  Uiso   1.00
C885   C     0.64847   0.83094   0.30162   0.00000  Uiso   1.00
C886   C     0.56581   0.84414   0.24796   0.00000  Uiso   1.00
C887   C     0.44439   0.88051   0.16840   0.00000  Uiso   1.00
C888   C     0.11933   0.22070   0.28766   0.00000  Uiso   1.00
C889   C     0.18857   0.21392   0.30327   0.00000  Uiso   1.00
C890   C     0.18719   0.18511   0.27911   0.00000  Uiso   1.00
C891   C     0.25667   0.18374   0.29925   0.00000  Uiso   1.00
C892   C     0.16372   0.21779   0.34547   0.00000  Uiso   1.00
C893   C     0.14145   0.19223   0.35679   0.00000  Uiso   1.00
C894   C     0.19000   0.19412   0.41245   0.00000  Uiso   1.00
C895   C     0.09191   0.26381   0.26818   0.00000  Uiso   1.00
C896   C     0.00926   0.27695   0.21453   0.00000  Uiso   1.00
C897   C     0.49735   0.81759   0.20513   0.00000  Uiso   1.00
H898   H     0.29836   0.29013   0.39966   0.00000  Uiso   1.00
H899   H     0.37928   0.25961   0.39929   0.00000  Uiso   1.00
H900   H     0.33354   0.26674   0.47695   0.00000  Uiso   1.00
H901   H     0.70137   0.85144   0.33472   0.00000  Uiso   1.00
H902   H     0.43887   0.21408   0.38004   0.00000  Uiso   1.00
H903   H     0.34241   0.22911   0.54379   0.00000  Uiso   1.00
H904   H     0.56370   0.90774   0.24386   0.00000  Uiso   1.00
H905   H     0.06612   0.20006   0.25437   0.00000  Uiso   1.00
H906   H     0.13429   0.16460   0.24603   0.00000  Uiso   1.00
H907   H     0.08856   0.17173   0.32370   0.00000  Uiso   1.00
H908   H     0.95639   0.25644   0.18146   0.00000  Uiso   1.00
H909   H     0.24004   0.13697   0.25565   0.00000  Uiso   1.00
H910   H     0.14357   0.15201   0.41941   0.00000  Uiso   1.00
H911   H     0.36487   0.83063   0.11947   0.00000  Uiso   1.00
O912   O     0.38851   0.15382   0.31499   0.00000  Uiso   1.00
O913   O     0.26194   0.17355   0.52983   0.00000  Uiso   1.00
O914   O     0.39629   0.90789   0.13632   0.00000  Uiso   1.00
N915   N     0.38271   0.20080   0.35190   0.00000  Uiso   1.00
N916   N     0.29253   0.21486   0.50501   0.00000  Uiso   1.00
N917   N     0.53196   0.88185   0.22460   0.00000  Uiso   1.00
N918   N     0.27572   0.15931   0.28497   0.00000  Uiso   1.00
N919   N     0.18554   0.17336   0.43807   0.00000  Uiso   1.00
N920   N     0.42497   0.84036   0.15766   0.00000  Uiso   1.00
C921   C     0.37162   0.86422   0.64556   0.00000  Uiso   1.00
C922   C     0.40260   0.90639   0.65770   0.00000  Uiso   1.00
C923   C     0.48713   0.91876   0.70699   0.00000  Uiso   1.00
C924   C     0.50225   0.95859   0.70988   0.00000  Uiso   1.00
C925   C     0.56057   0.02004   0.73552   0.00000  Uiso   1.00
C926   C     0.31873   0.85284   0.58592   0.00000  Uiso   1.00
C927   C     0.33273   0.82019   0.57487   0.00000  Uiso   1.00
C928   C     0.27724   0.81495   0.51733   0.00000  Uiso   1.00
C929   C     0.20529   0.79325   0.43154   0.00000  Uiso   1.00
C930   C     0.80892   0.36682   0.63650   0.00000  Uiso   1.00
C931   C     0.81467   0.34591   0.66796   0.00000  Uiso   1.00
C932   C     0.75091   0.35242   0.65300   0.00000  Uiso   1.00
C933   C     0.66375   0.35243   0.64574   0.00000  Uiso   1.00
C934   C     0.24816   0.91296   0.56303   0.00000  Uiso   1.00
C935   C     0.33554   0.93287   0.61286   0.00000  Uiso   1.00
C936   C     0.35054   0.97269   0.61568   0.00000  Uiso   1.00
C937   C     0.43508   0.98512   0.66497   0.00000  Uiso   1.00
C938   C     0.25167   0.87932   0.54109   0.00000  Uiso   1.00
C939   C     0.19614   0.87412   0.48355   0.00000  Uiso   1.00
C940   C     0.21006   0.84147   0.47242   0.00000  Uiso   1.00
C941   C     0.74187   0.39330   0.59167   0.00000  Uiso   1.00
C942   C     0.67808   0.39984   0.57665   0.00000  Uiso   1.00
C943   C     0.68373   0.37895   0.60809   0.00000  Uiso   1.00
H944   H     0.42382   0.84360   0.68046   0.00000  Uiso   1.00
H945   H     0.53901   0.89825   0.74167   0.00000  Uiso   1.00
H946   H     0.38462   0.79970   0.60957   0.00000  Uiso   1.00
H947   H     0.86657   0.32542   0.70265   0.00000  Uiso   1.00
H948   H     0.63714   0.97052   0.78976   0.00000  Uiso   1.00
H949   H     0.31160   0.76271   0.51121   0.00000  Uiso   1.00
H950   H     0.77352   0.31694   0.70749   0.00000  Uiso   1.00
H951   H     0.19595   0.93358   0.52812   0.00000  Uiso   1.00
H952   H     0.29863   0.99317   0.58098   0.00000  Uiso   1.00
H953   H     0.14425   0.89462   0.44887   0.00000  Uiso   1.00
H954   H     0.62620   0.42034   0.54195   0.00000  Uiso   1.00
H955   H     0.44205   0.04756   0.65933   0.00000  Uiso   1.00
H956   H     0.11650   0.83975   0.38078   0.00000  Uiso   1.00
H957   H     0.57843   0.39398   0.57706   0.00000  Uiso   1.00
O958   O     0.61125   0.04662   0.76205   0.00000  Uiso   1.00
O959   O     0.18414   0.77397   0.39660   0.00000  Uiso   1.00
O960   O     0.63420   0.34512   0.65412   0.00000  Uiso   1.00
N961   N     0.57713   0.98048   0.75181   0.00000  Uiso   1.00
N962   N     0.27278   0.78619   0.49139   0.00000  Uiso   1.00
N963   N     0.73717   0.33688   0.67488   0.00000  Uiso   1.00
N964   N     0.47215   0.02193   0.68163   0.00000  Uiso   1.00
N965   N     0.16780   0.82764   0.42120   0.00000  Uiso   1.00
N966   N     0.63219   0.37833   0.60470   0.00000  Uiso   1.00
C967   C     0.59951   0.35081   0.09650   0.00000  Uiso   1.00
C968   C     0.64964   0.33573   0.15413   0.00000  Uiso   1.00
C969   C     0.73277   0.32150   0.20196   0.00000  Uiso   1.00
C970   C     0.76730   0.30911   0.25059   0.00000  Uiso   1.00
C971   C     0.85230   0.28544   0.33997   0.00000  Uiso   1.00
C972   C     0.57161   0.39282   0.08853   0.00000  Uiso   1.00
C973   C     0.58913   0.42658   0.08120   0.00000  Uiso   1.00
C974   C     0.55795   0.46224   0.07460   0.00000  Uiso   1.00
C975   C     0.52175   0.52719   0.06209   0.00000  Uiso   1.00
C976   C     0.51800   0.32615   0.04775   0.00000  Uiso   1.00
C977   C     0.49042   0.30385   0.00612   0.00000  Uiso   1.00
C978   C     0.41409   0.28339   0.96518   0.00000  Uiso   1.00
C979   C     0.29465   0.24482   0.88936   0.00000  Uiso   1.00
C980   C     0.51299   0.35411   0.09780   0.00000  Uiso   1.00
C981   C     0.60264   0.33753   0.15483   0.00000  Uiso   1.00
C982   C     0.63705   0.32515   0.20340   0.00000  Uiso   1.00
C983   C     0.72022   0.31090   0.25130   0.00000  Uiso   1.00
C984   C     0.52461   0.39461   0.08923   0.00000  Uiso   1.00
C985   C     0.49340   0.43023   0.08264   0.00000  Uiso   1.00
C986   C     0.51087   0.46404   0.07531   0.00000  Uiso   1.00
C987   C     0.47100   0.32794   0.04846   0.00000  Uiso   1.00
C988   C     0.39469   0.30751   0.00757   0.00000  Uiso   1.00
C989   C     0.36701   0.28519   0.96589   0.00000  Uiso   1.00
H990   H     0.63610   0.34942   0.09595   0.00000  Uiso   1.00
H991   H     0.76913   0.32012   0.20140   0.00000  Uiso   1.00
H992   H     0.62549   0.42518   0.08065   0.00000  Uiso   1.00
H993   H     0.52680   0.30247   0.00559   0.00000  Uiso   1.00
H994   H     0.89590   0.28844   0.31863   0.00000  Uiso   1.00
H995   H     0.59301   0.50997   0.06400   0.00000  Uiso   1.00
H996   H     0.38491   0.25122   0.90572   0.00000  Uiso   1.00
H997   H     0.47639   0.35551   0.09835   0.00000  Uiso   1.00
H998   H     0.60066   0.32655   0.20394   0.00000  Uiso   1.00
H999   H     0.45703   0.43161   0.08319   0.00000  Uiso   1.00
H1000  H     0.35834   0.30890   0.00813   0.00000  Uiso   1.00
H1001  H     0.75917   0.29366   0.32069   0.00000  Uiso   1.00
H1002  H     0.45628   0.51519   0.06606   0.00000  Uiso   1.00
H1003  H     0.24818   0.25643   0.90778   0.00000  Uiso   1.00
O1004  O     0.91217   0.27190   0.38908   0.00000  Uiso   1.00
O1005  O     0.51478   0.56253   0.05501   0.00000  Uiso   1.00
O1006  O     0.24176   0.22305   0.84735   0.00000  Uiso   1.00
N1007  N     0.84666   0.29364   0.30462   0.00000  Uiso   1.00
N1008  N     0.56349   0.50075   0.06657   0.00000  Uiso   1.00
N1009  N     0.36892   0.25885   0.91858   0.00000  Uiso   1.00
N1010  N     0.77308   0.29645   0.30573   0.00000  Uiso   1.00
N1011  N     0.48991   0.50356   0.06768   0.00000  Uiso   1.00
N1012  N     0.29535   0.26166   0.91969   0.00000  Uiso   1.00
C1013  C     0.74515   0.76949   0.36637   0.00000  Uiso   1.00
C1014  C     0.75691   0.74043   0.34602   0.00000  Uiso   1.00
C1015  C     0.82640   0.73910   0.36620   0.00000  Uiso   1.00
C1016  C     0.82513   0.71029   0.34208   0.00000  Uiso   1.00
C1017  C     0.85381   0.66917   0.31701   0.00000  Uiso   1.00
C1018  C     0.73206   0.74429   0.38822   0.00000  Uiso   1.00
C1019  C     0.78066   0.74622   0.44388   0.00000  Uiso   1.00
C1020  C     0.75847   0.72067   0.45528   0.00000  Uiso   1.00
C1021  C     0.74853   0.68558   0.49571   0.00000  Uiso   1.00
C1022  C     0.66026   0.79032   0.31094   0.00000  Uiso   1.00
C1023  C     0.14847   0.33094   0.30162   0.00000  Uiso   1.00
C1024  C     0.06581   0.34414   0.24796   0.00000  Uiso   1.00
C1025  C     0.94439   0.38051   0.16840   0.00000  Uiso   1.00
C1026  C     0.61933   0.72070   0.28766   0.00000  Uiso   1.00
C1027  C     0.68857   0.71392   0.30327   0.00000  Uiso   1.00
C1028  C     0.68719   0.68511   0.27911   0.00000  Uiso   1.00
C1029  C     0.75667   0.68374   0.29925   0.00000  Uiso   1.00
C1030  C     0.66372   0.71779   0.34547   0.00000  Uiso   1.00
C1031  C     0.64145   0.69223   0.35679   0.00000  Uiso   1.00
C1032  C     0.69000   0.69412   0.41245   0.00000  Uiso   1.00
C1033  C     0.59191   0.76381   0.26818   0.00000  Uiso   1.00
C1034  C     0.50926   0.77695   0.21453   0.00000  Uiso   1.00
C1035  C     0.99735   0.31759   0.20513   0.00000  Uiso   1.00
H1036  H     0.79836   0.79013   0.39966   0.00000  Uiso   1.00
H1037  H     0.87928   0.75961   0.39929   0.00000  Uiso   1.00
H1038  H     0.83354   0.76674   0.47695   0.00000  Uiso   1.00
H1039  H     0.20137   0.35144   0.33472   0.00000  Uiso   1.00
H1040  H     0.93887   0.71408   0.38004   0.00000  Uiso   1.00
H1041  H     0.84241   0.72911   0.54379   0.00000  Uiso   1.00
H1042  H     0.06370   0.40774   0.24386   0.00000  Uiso   1.00
H1043  H     0.56612   0.70006   0.25437   0.00000  Uiso   1.00
H1044  H     0.63429   0.66460   0.24603   0.00000  Uiso   1.00
H1045  H     0.58856   0.67173   0.32370   0.00000  Uiso   1.00
H1046  H     0.45639   0.75644   0.18146   0.00000  Uiso   1.00
H1047  H     0.74004   0.63697   0.25565   0.00000  Uiso   1.00
H1048  H     0.64357   0.65201   0.41941   0.00000  Uiso   1.00
H1049  H     0.86487   0.33063   0.11947   0.00000  Uiso   1.00
O1050  O     0.88851   0.65382   0.31499   0.00000  Uiso   1.00
O1051  O     0.76194   0.67355   0.52983   0.00000  Uiso   1.00
O1052  O     0.89629   0.40789   0.13632   0.00000  Uiso   1.00
N1053  N     0.88271   0.70080   0.35190   0.00000  Uiso   1.00
N1054  N     0.79253   0.71486   0.50501   0.00000  Uiso   1.00
N1055  N     0.03196   0.38185   0.22460   0.00000  Uiso   1.00
N1056  N     0.77572   0.65931   0.28497   0.00000  Uiso   1.00
N1057  N     0.68554   0.67336   0.43807   0.00000  Uiso   1.00
N1058  N     0.92497   0.34036   0.15766   0.00000  Uiso   1.00
C1059  C     0.87162   0.36422   0.64556   0.00000  Uiso   1.00
C1060  C     0.90260   0.40639   0.65770   0.00000  Uiso   1.00
C1061  C     0.98713   0.41876   0.70699   0.00000  Uiso   1.00
C1062  C     0.00225   0.45859   0.70988   0.00000  Uiso   1.00
C1063  C     0.06057   0.52004   0.73552   0.00000  Uiso   1.00
C1064  C     0.81873   0.35284   0.58592   0.00000  Uiso   1.00
C1065  C     0.83273   0.32019   0.57487   0.00000  Uiso   1.00
C1066  C     0.77724   0.31495   0.51733   0.00000  Uiso   1.00
C1067  C     0.70529   0.29325   0.43154   0.00000  Uiso   1.00
C1068  C     0.30892   0.86682   0.63650   0.00000  Uiso   1.00
C1069  C     0.31467   0.84591   0.66796   0.00000  Uiso   1.00
C1070  C     0.25091   0.85242   0.65300   0.00000  Uiso   1.00
C1071  C     0.16375   0.85243   0.64574   0.00000  Uiso   1.00
C1072  C     0.74816   0.41296   0.56303   0.00000  Uiso   1.00
C1073  C     0.83554   0.43287   0.61286   0.00000  Uiso   1.00
C1074  C     0.85054   0.47269   0.61568   0.00000  Uiso   1.00
C1075  C     0.93508   0.48512   0.66497   0.00000  Uiso   1.00
C1076  C     0.75167   0.37932   0.54109   0.00000  Uiso   1.00
C1077  C     0.69614   0.37412   0.48355   0.00000  Uiso   1.00
C1078  C     0.71006   0.34147   0.47242   0.00000  Uiso   1.00
C1079  C     0.24187   0.89330   0.59167   0.00000  Uiso   1.00
C1080  C     0.17808   0.89984   0.57665   0.00000  Uiso   1.00
C1081  C     0.18373   0.87895   0.60809   0.00000  Uiso   1.00
H1082  H     0.92382   0.34360   0.68046   0.00000  Uiso   1.00
H1083  H     0.03901   0.39825   0.74167   0.00000  Uiso   1.00
H1084  H     0.88462   0.29970   0.60957   0.00000  Uiso   1.00
H1085  H     0.36657   0.82542   0.70265   0.00000  Uiso   1.00
H1086  H     0.13714   0.47052   0.78976   0.00000  Uiso   1.00
H1087  H     0.81160   0.26271   0.51121   0.00000  Uiso   1.00
H1088  H     0.27352   0.81694   0.70749   0.00000  Uiso   1.00
H1089  H     0.69595   0.43358   0.52812   0.00000  Uiso   1.00
H1090  H     0.79863   0.49317   0.58098   0.00000  Uiso   1.00
H1091  H     0.64425   0.39462   0.44887   0.00000  Uiso   1.00
H1092  H     0.12620   0.92034   0.54195   0.00000  Uiso   1.00
H1093  H     0.94205   0.54756   0.65933   0.00000  Uiso   1.00
H1094  H     0.61650   0.33975   0.38078   0.00000  Uiso   1.00
H1095  H     0.07843   0.89398   0.57706   0.00000  Uiso   1.00
O1096  O     0.11125   0.54662   0.76205   0.00000  Uiso   1.00
O1097  O     0.68414   0.27397   0.39660   0.00000  Uiso   1.00
O1098  O     0.13420   0.84512   0.65412   0.00000  Uiso   1.00
N1099  N     0.07713   0.48048   0.75181   0.00000  Uiso   1.00
N1100  N     0.77278   0.28619   0.49139   0.00000  Uiso   1.00
N1101  N     0.23717   0.83688   0.67488   0.00000  Uiso   1.00
N1102  N     0.97215   0.52193   0.68163   0.00000  Uiso   1.00
N1103  N     0.66780   0.32764   0.42120   0.00000  Uiso   1.00
N1104  N     0.13219   0.87833   0.60470   0.00000  Uiso   1.00
