data_job_03223
_audit_creation_date              2018-12-19
_audit_creation_method            'Materials Studio'
_symmetry_space_group_name_H-M    'P1'
_symmetry_Int_Tables_number       1
_symmetry_cell_setting            triclinic
loop_
_symmetry_equiv_pos_as_xyz
  x,y,z
_cell_length_a                    50.0942
_cell_length_b                    27.7664
_cell_length_c                    10.0144
_cell_angle_alpha                 90.0000
_cell_angle_beta                  90.0000
_cell_angle_gamma                 90.0000
loop_
_atom_site_label
_atom_site_type_symbol
_atom_site_fract_x
_atom_site_fract_y
_atom_site_fract_z
_atom_site_U_iso_or_equiv
_atom_site_adp_type
_atom_site_occupancy
C1     C     0.11604   0.77939   0.41306   0.00000  Uiso   1.00
C2     C     0.14202   0.77225   0.48989   0.00000  Uiso   1.00
C3     C     0.15740   0.73069   0.49044   0.00000  Uiso   1.00
C4     C     0.18049   0.73134   0.56714   0.00000  Uiso   1.00
C5     C     0.21970   0.71405   0.67530   0.00000  Uiso   1.00
C6     C     0.09517   0.79371   0.51656   0.00000  Uiso   1.00
C7     C     0.07115   0.77020   0.53951   0.00000  Uiso   1.00
C8     C     0.05480   0.78893   0.63866   0.00000  Uiso   1.00
C9     C     0.02126   0.80498   0.78816   0.00000  Uiso   1.00
C10    C     0.12027   0.82364   0.32544   0.00000  Uiso   1.00
C11    C     0.11736   0.82530   0.18770   0.00000  Uiso   1.00
C12    C     0.12213   0.86923   0.12593   0.00000  Uiso   1.00
C13    C     0.12756   0.93176   0.97870   0.00000  Uiso   1.00
C14    C     0.12968   0.85447   0.54830   0.00000  Uiso   1.00
C15    C     0.14943   0.81303   0.56335   0.00000  Uiso   1.00
C16    C     0.17250   0.81376   0.64006   0.00000  Uiso   1.00
C17    C     0.18791   0.77220   0.64072   0.00000  Uiso   1.00
C18    C     0.10258   0.83449   0.59001   0.00000  Uiso   1.00
C19    C     0.08625   0.85327   0.68914   0.00000  Uiso   1.00
C20    C     0.06222   0.82978   0.71225   0.00000  Uiso   1.00
C21    C     0.12768   0.86443   0.39889   0.00000  Uiso   1.00
C22    C     0.13245   0.90837   0.33733   0.00000  Uiso   1.00
C23    C     0.12955   0.91009   0.19952   0.00000  Uiso   1.00
H24    H     0.11027   0.74764   0.35588   0.00000  Uiso   1.00
H25    H     0.15166   0.69913   0.43358   0.00000  Uiso   1.00
H26    H     0.06542   0.73864   0.48264   0.00000  Uiso   1.00
H27    H     0.11162   0.79373   0.13089   0.00000  Uiso   1.00
H28    H     0.20082   0.66333   0.55217   0.00000  Uiso   1.00
H29    H     0.01898   0.74665   0.65558   0.00000  Uiso   1.00
H30    H     0.11639   0.86282   0.91383   0.00000  Uiso   1.00
H31    H     0.13545   0.88622   0.60550   0.00000  Uiso   1.00
H32    H     0.17823   0.84532   0.69690   0.00000  Uiso   1.00
H33    H     0.09199   0.88483   0.74596   0.00000  Uiso   1.00
H34    H     0.13819   0.93992   0.39420   0.00000  Uiso   1.00
H35    H     0.22238   0.78198   0.76589   0.00000  Uiso   1.00
H36    H     0.04054   0.86530   0.86930   0.00000  Uiso   1.00
H37    H     0.13795   0.98148   0.12755   0.00000  Uiso   1.00
O38    O     0.23928   0.69325   0.71469   0.00000  Uiso   1.00
O39    O     0.00071   0.80256   0.85034   0.00000  Uiso   1.00
O40    O     0.12852   0.95498   0.87719   0.00000  Uiso   1.00
N41    N     0.20002   0.69687   0.58990   0.00000  Uiso   1.00
N42    N     0.03002   0.77477   0.68660   0.00000  Uiso   1.00
N43    N     0.12108   0.88338   0.99313   0.00000  Uiso   1.00
N44    N     0.21163   0.76072   0.70490   0.00000  Uiso   1.00
N45    N     0.04162   0.83861   0.80160   0.00000  Uiso   1.00
N46    N     0.13269   0.94723   0.10813   0.00000  Uiso   1.00
C47    C     0.61604   0.27939   0.41306   0.00000  Uiso   1.00
C48    C     0.64202   0.27225   0.48989   0.00000  Uiso   1.00
C49    C     0.65740   0.23069   0.49044   0.00000  Uiso   1.00
C50    C     0.68049   0.23134   0.56714   0.00000  Uiso   1.00
C51    C     0.71970   0.21405   0.67530   0.00000  Uiso   1.00
C52    C     0.59517   0.29371   0.51656   0.00000  Uiso   1.00
C53    C     0.57115   0.27020   0.53951   0.00000  Uiso   1.00
C54    C     0.55480   0.28893   0.63866   0.00000  Uiso   1.00
C55    C     0.52126   0.30498   0.78816   0.00000  Uiso   1.00
C56    C     0.62027   0.32364   0.32544   0.00000  Uiso   1.00
C57    C     0.61736   0.32530   0.18770   0.00000  Uiso   1.00
C58    C     0.62213   0.36923   0.12593   0.00000  Uiso   1.00
C59    C     0.62756   0.43176   0.97870   0.00000  Uiso   1.00
C60    C     0.62968   0.35447   0.54830   0.00000  Uiso   1.00
C61    C     0.64943   0.31303   0.56335   0.00000  Uiso   1.00
C62    C     0.67250   0.31376   0.64006   0.00000  Uiso   1.00
C63    C     0.68791   0.27220   0.64072   0.00000  Uiso   1.00
C64    C     0.60258   0.33449   0.59001   0.00000  Uiso   1.00
C65    C     0.58625   0.35327   0.68914   0.00000  Uiso   1.00
C66    C     0.56222   0.32978   0.71225   0.00000  Uiso   1.00
C67    C     0.62768   0.36443   0.39889   0.00000  Uiso   1.00
C68    C     0.63245   0.40837   0.33733   0.00000  Uiso   1.00
C69    C     0.62955   0.41009   0.19952   0.00000  Uiso   1.00
H70    H     0.61027   0.24764   0.35588   0.00000  Uiso   1.00
H71    H     0.65166   0.19913   0.43358   0.00000  Uiso   1.00
H72    H     0.56542   0.23864   0.48264   0.00000  Uiso   1.00
H73    H     0.61162   0.29373   0.13089   0.00000  Uiso   1.00
H74    H     0.70082   0.16333   0.55217   0.00000  Uiso   1.00
H75    H     0.51898   0.24665   0.65558   0.00000  Uiso   1.00
H76    H     0.61639   0.36282   0.91383   0.00000  Uiso   1.00
H77    H     0.63545   0.38622   0.60550   0.00000  Uiso   1.00
H78    H     0.67823   0.34532   0.69690   0.00000  Uiso   1.00
H79    H     0.59199   0.38483   0.74596   0.00000  Uiso   1.00
H80    H     0.63819   0.43992   0.39420   0.00000  Uiso   1.00
H81    H     0.72238   0.28198   0.76589   0.00000  Uiso   1.00
H82    H     0.54054   0.36530   0.86930   0.00000  Uiso   1.00
H83    H     0.63795   0.48148   0.12755   0.00000  Uiso   1.00
O84    O     0.73928   0.19325   0.71469   0.00000  Uiso   1.00
O85    O     0.50071   0.30256   0.85034   0.00000  Uiso   1.00
O86    O     0.62852   0.45498   0.87719   0.00000  Uiso   1.00
N87    N     0.70002   0.19687   0.58990   0.00000  Uiso   1.00
N88    N     0.53002   0.27477   0.68660   0.00000  Uiso   1.00
N89    N     0.62108   0.38338   0.99313   0.00000  Uiso   1.00
N90    N     0.71163   0.26072   0.70490   0.00000  Uiso   1.00
N91    N     0.54162   0.33861   0.80160   0.00000  Uiso   1.00
N92    N     0.63269   0.44723   0.10813   0.00000  Uiso   1.00
C93    C     0.38396   0.72061   0.41306   0.00000  Uiso   1.00
C94    C     0.35798   0.72775   0.48989   0.00000  Uiso   1.00
C95    C     0.34260   0.76931   0.49044   0.00000  Uiso   1.00
C96    C     0.31951   0.76866   0.56714   0.00000  Uiso   1.00
C97    C     0.28030   0.78595   0.67530   0.00000  Uiso   1.00
C98    C     0.40483   0.70629   0.51656   0.00000  Uiso   1.00
C99    C     0.42885   0.72980   0.53951   0.00000  Uiso   1.00
C100   C     0.44520   0.71107   0.63866   0.00000  Uiso   1.00
C101   C     0.47874   0.69502   0.78816   0.00000  Uiso   1.00
C102   C     0.37973   0.67636   0.32544   0.00000  Uiso   1.00
C103   C     0.38264   0.67470   0.18770   0.00000  Uiso   1.00
C104   C     0.37787   0.63077   0.12593   0.00000  Uiso   1.00
C105   C     0.37244   0.56824   0.97870   0.00000  Uiso   1.00
C106   C     0.37032   0.64553   0.54830   0.00000  Uiso   1.00
C107   C     0.35057   0.68697   0.56335   0.00000  Uiso   1.00
C108   C     0.32750   0.68624   0.64006   0.00000  Uiso   1.00
C109   C     0.31209   0.72780   0.64072   0.00000  Uiso   1.00
C110   C     0.39742   0.66551   0.59001   0.00000  Uiso   1.00
C111   C     0.41375   0.64673   0.68914   0.00000  Uiso   1.00
C112   C     0.43778   0.67022   0.71225   0.00000  Uiso   1.00
C113   C     0.37232   0.63557   0.39889   0.00000  Uiso   1.00
C114   C     0.36755   0.59163   0.33733   0.00000  Uiso   1.00
C115   C     0.37045   0.58991   0.19952   0.00000  Uiso   1.00
H116   H     0.38973   0.75236   0.35588   0.00000  Uiso   1.00
H117   H     0.34834   0.80087   0.43358   0.00000  Uiso   1.00
H118   H     0.43458   0.76136   0.48264   0.00000  Uiso   1.00
H119   H     0.38838   0.70627   0.13089   0.00000  Uiso   1.00
H120   H     0.29918   0.83667   0.55217   0.00000  Uiso   1.00
H121   H     0.48102   0.75335   0.65558   0.00000  Uiso   1.00
H122   H     0.38361   0.63718   0.91383   0.00000  Uiso   1.00
H123   H     0.36455   0.61378   0.60550   0.00000  Uiso   1.00
H124   H     0.32177   0.65468   0.69690   0.00000  Uiso   1.00
H125   H     0.40801   0.61517   0.74596   0.00000  Uiso   1.00
H126   H     0.36181   0.56008   0.39420   0.00000  Uiso   1.00
H127   H     0.27762   0.71802   0.76589   0.00000  Uiso   1.00
H128   H     0.45946   0.63470   0.86930   0.00000  Uiso   1.00
H129   H     0.36205   0.51852   0.12755   0.00000  Uiso   1.00
O130   O     0.26072   0.80675   0.71469   0.00000  Uiso   1.00
O131   O     0.49929   0.69744   0.85034   0.00000  Uiso   1.00
O132   O     0.37148   0.54502   0.87719   0.00000  Uiso   1.00
N133   N     0.29998   0.80313   0.58990   0.00000  Uiso   1.00
N134   N     0.46998   0.72523   0.68660   0.00000  Uiso   1.00
N135   N     0.37892   0.61662   0.99313   0.00000  Uiso   1.00
N136   N     0.28837   0.73928   0.70490   0.00000  Uiso   1.00
N137   N     0.45838   0.66139   0.80160   0.00000  Uiso   1.00
N138   N     0.36731   0.55277   0.10813   0.00000  Uiso   1.00
C139   C     0.88396   0.22061   0.41306   0.00000  Uiso   1.00
C140   C     0.85798   0.22775   0.48989   0.00000  Uiso   1.00
C141   C     0.84260   0.26931   0.49044   0.00000  Uiso   1.00
C142   C     0.81951   0.26866   0.56714   0.00000  Uiso   1.00
C143   C     0.78030   0.28595   0.67530   0.00000  Uiso   1.00
C144   C     0.90483   0.20629   0.51656   0.00000  Uiso   1.00
C145   C     0.92885   0.22980   0.53951   0.00000  Uiso   1.00
C146   C     0.94520   0.21107   0.63866   0.00000  Uiso   1.00
C147   C     0.97874   0.19502   0.78816   0.00000  Uiso   1.00
C148   C     0.87973   0.17636   0.32544   0.00000  Uiso   1.00
C149   C     0.88264   0.17470   0.18770   0.00000  Uiso   1.00
C150   C     0.87787   0.13077   0.12593   0.00000  Uiso   1.00
C151   C     0.87244   0.06824   0.97870   0.00000  Uiso   1.00
C152   C     0.87032   0.14553   0.54830   0.00000  Uiso   1.00
C153   C     0.85057   0.18697   0.56335   0.00000  Uiso   1.00
C154   C     0.82750   0.18624   0.64006   0.00000  Uiso   1.00
C155   C     0.81209   0.22780   0.64072   0.00000  Uiso   1.00
C156   C     0.89742   0.16551   0.59001   0.00000  Uiso   1.00
C157   C     0.91375   0.14673   0.68914   0.00000  Uiso   1.00
C158   C     0.93778   0.17022   0.71225   0.00000  Uiso   1.00
C159   C     0.87232   0.13557   0.39889   0.00000  Uiso   1.00
C160   C     0.86755   0.09163   0.33733   0.00000  Uiso   1.00
C161   C     0.87045   0.08991   0.19952   0.00000  Uiso   1.00
H162   H     0.88973   0.25236   0.35588   0.00000  Uiso   1.00
H163   H     0.84834   0.30087   0.43358   0.00000  Uiso   1.00
H164   H     0.93458   0.26136   0.48264   0.00000  Uiso   1.00
H165   H     0.88838   0.20627   0.13089   0.00000  Uiso   1.00
H166   H     0.79918   0.33667   0.55217   0.00000  Uiso   1.00
H167   H     0.98102   0.25335   0.65558   0.00000  Uiso   1.00
H168   H     0.88361   0.13718   0.91383   0.00000  Uiso   1.00
H169   H     0.86455   0.11378   0.60550   0.00000  Uiso   1.00
H170   H     0.82177   0.15468   0.69690   0.00000  Uiso   1.00
H171   H     0.90801   0.11517   0.74596   0.00000  Uiso   1.00
H172   H     0.86181   0.06008   0.39420   0.00000  Uiso   1.00
H173   H     0.77762   0.21802   0.76589   0.00000  Uiso   1.00
H174   H     0.95946   0.13470   0.86930   0.00000  Uiso   1.00
H175   H     0.86205   0.01852   0.12755   0.00000  Uiso   1.00
O176   O     0.76072   0.30675   0.71469   0.00000  Uiso   1.00
O177   O     0.99929   0.19744   0.85034   0.00000  Uiso   1.00
O178   O     0.87148   0.04502   0.87719   0.00000  Uiso   1.00
N179   N     0.79998   0.30313   0.58990   0.00000  Uiso   1.00
N180   N     0.96998   0.22523   0.68660   0.00000  Uiso   1.00
N181   N     0.87892   0.11662   0.99313   0.00000  Uiso   1.00
N182   N     0.78837   0.23928   0.70490   0.00000  Uiso   1.00
N183   N     0.95838   0.16139   0.80160   0.00000  Uiso   1.00
N184   N     0.86731   0.05277   0.10813   0.00000  Uiso   1.00
C185   C     0.88396   0.77939   0.58694   0.00000  Uiso   1.00
C186   C     0.85798   0.77225   0.51011   0.00000  Uiso   1.00
C187   C     0.84260   0.73069   0.50956   0.00000  Uiso   1.00
C188   C     0.81951   0.73134   0.43286   0.00000  Uiso   1.00
C189   C     0.78030   0.71405   0.32470   0.00000  Uiso   1.00
C190   C     0.90483   0.79371   0.48344   0.00000  Uiso   1.00
C191   C     0.92885   0.77020   0.46049   0.00000  Uiso   1.00
C192   C     0.94520   0.78893   0.36134   0.00000  Uiso   1.00
C193   C     0.97874   0.80498   0.21184   0.00000  Uiso   1.00
C194   C     0.87973   0.82364   0.67456   0.00000  Uiso   1.00
C195   C     0.88264   0.82530   0.81230   0.00000  Uiso   1.00
C196   C     0.87787   0.86923   0.87407   0.00000  Uiso   1.00
C197   C     0.87244   0.93176   0.02130   0.00000  Uiso   1.00
C198   C     0.87032   0.85447   0.45170   0.00000  Uiso   1.00
C199   C     0.85057   0.81303   0.43665   0.00000  Uiso   1.00
C200   C     0.82750   0.81376   0.35994   0.00000  Uiso   1.00
C201   C     0.81209   0.77220   0.35928   0.00000  Uiso   1.00
C202   C     0.89742   0.83449   0.40999   0.00000  Uiso   1.00
C203   C     0.91375   0.85327   0.31086   0.00000  Uiso   1.00
C204   C     0.93778   0.82978   0.28775   0.00000  Uiso   1.00
C205   C     0.87232   0.86443   0.60111   0.00000  Uiso   1.00
C206   C     0.86755   0.90837   0.66267   0.00000  Uiso   1.00
C207   C     0.87045   0.91009   0.80048   0.00000  Uiso   1.00
H208   H     0.88973   0.74764   0.64412   0.00000  Uiso   1.00
H209   H     0.84834   0.69913   0.56642   0.00000  Uiso   1.00
H210   H     0.93458   0.73864   0.51736   0.00000  Uiso   1.00
H211   H     0.88838   0.79373   0.86911   0.00000  Uiso   1.00
H212   H     0.79918   0.66333   0.44783   0.00000  Uiso   1.00
H213   H     0.98102   0.74665   0.34442   0.00000  Uiso   1.00
H214   H     0.88361   0.86282   0.08617   0.00000  Uiso   1.00
H215   H     0.86455   0.88622   0.39450   0.00000  Uiso   1.00
H216   H     0.82177   0.84532   0.30310   0.00000  Uiso   1.00
H217   H     0.90801   0.88483   0.25404   0.00000  Uiso   1.00
H218   H     0.86181   0.93992   0.60580   0.00000  Uiso   1.00
H219   H     0.77762   0.78198   0.23411   0.00000  Uiso   1.00
H220   H     0.95946   0.86530   0.13070   0.00000  Uiso   1.00
H221   H     0.86205   0.98148   0.87245   0.00000  Uiso   1.00
O222   O     0.76072   0.69325   0.28531   0.00000  Uiso   1.00
O223   O     0.99929   0.80256   0.14966   0.00000  Uiso   1.00
O224   O     0.87148   0.95498   0.12281   0.00000  Uiso   1.00
N225   N     0.79998   0.69687   0.41010   0.00000  Uiso   1.00
N226   N     0.96998   0.77477   0.31340   0.00000  Uiso   1.00
N227   N     0.87892   0.88338   0.00687   0.00000  Uiso   1.00
N228   N     0.78837   0.76072   0.29510   0.00000  Uiso   1.00
N229   N     0.95838   0.83861   0.19840   0.00000  Uiso   1.00
N230   N     0.86731   0.94723   0.89187   0.00000  Uiso   1.00
C231   C     0.38396   0.27939   0.58694   0.00000  Uiso   1.00
C232   C     0.35798   0.27225   0.51011   0.00000  Uiso   1.00
C233   C     0.34260   0.23069   0.50956   0.00000  Uiso   1.00
C234   C     0.31951   0.23134   0.43286   0.00000  Uiso   1.00
C235   C     0.28030   0.21405   0.32470   0.00000  Uiso   1.00
C236   C     0.40483   0.29371   0.48344   0.00000  Uiso   1.00
C237   C     0.42885   0.27020   0.46049   0.00000  Uiso   1.00
C238   C     0.44520   0.28893   0.36134   0.00000  Uiso   1.00
C239   C     0.47874   0.30498   0.21184   0.00000  Uiso   1.00
C240   C     0.37973   0.32364   0.67456   0.00000  Uiso   1.00
C241   C     0.38264   0.32530   0.81230   0.00000  Uiso   1.00
C242   C     0.37787   0.36923   0.87407   0.00000  Uiso   1.00
C243   C     0.37244   0.43176   0.02130   0.00000  Uiso   1.00
C244   C     0.37032   0.35447   0.45170   0.00000  Uiso   1.00
C245   C     0.35057   0.31303   0.43665   0.00000  Uiso   1.00
C246   C     0.32750   0.31376   0.35994   0.00000  Uiso   1.00
C247   C     0.31209   0.27220   0.35928   0.00000  Uiso   1.00
C248   C     0.39742   0.33449   0.40999   0.00000  Uiso   1.00
C249   C     0.41375   0.35327   0.31086   0.00000  Uiso   1.00
C250   C     0.43778   0.32978   0.28775   0.00000  Uiso   1.00
C251   C     0.37232   0.36443   0.60111   0.00000  Uiso   1.00
C252   C     0.36755   0.40837   0.66267   0.00000  Uiso   1.00
C253   C     0.37045   0.41009   0.80048   0.00000  Uiso   1.00
H254   H     0.38973   0.24764   0.64412   0.00000  Uiso   1.00
H255   H     0.34834   0.19913   0.56642   0.00000  Uiso   1.00
H256   H     0.43458   0.23864   0.51736   0.00000  Uiso   1.00
H257   H     0.38838   0.29373   0.86911   0.00000  Uiso   1.00
H258   H     0.29918   0.16333   0.44783   0.00000  Uiso   1.00
H259   H     0.48102   0.24665   0.34442   0.00000  Uiso   1.00
H260   H     0.38361   0.36282   0.08617   0.00000  Uiso   1.00
H261   H     0.36455   0.38622   0.39450   0.00000  Uiso   1.00
H262   H     0.32177   0.34532   0.30310   0.00000  Uiso   1.00
H263   H     0.40801   0.38483   0.25404   0.00000  Uiso   1.00
H264   H     0.36181   0.43992   0.60580   0.00000  Uiso   1.00
H265   H     0.27762   0.28198   0.23411   0.00000  Uiso   1.00
H266   H     0.45946   0.36530   0.13070   0.00000  Uiso   1.00
H267   H     0.36205   0.48148   0.87245   0.00000  Uiso   1.00
O268   O     0.26072   0.19325   0.28531   0.00000  Uiso   1.00
O269   O     0.49929   0.30256   0.14966   0.00000  Uiso   1.00
O270   O     0.37148   0.45498   0.12281   0.00000  Uiso   1.00
N271   N     0.29998   0.19687   0.41010   0.00000  Uiso   1.00
N272   N     0.46998   0.27477   0.31340   0.00000  Uiso   1.00
N273   N     0.37892   0.38338   0.00687   0.00000  Uiso   1.00
N274   N     0.28837   0.26072   0.29510   0.00000  Uiso   1.00
N275   N     0.45838   0.33861   0.19840   0.00000  Uiso   1.00
N276   N     0.36731   0.44723   0.89187   0.00000  Uiso   1.00
C277   C     0.61604   0.72061   0.58694   0.00000  Uiso   1.00
C278   C     0.64202   0.72775   0.51011   0.00000  Uiso   1.00
C279   C     0.65740   0.76931   0.50956   0.00000  Uiso   1.00
C280   C     0.68049   0.76866   0.43286   0.00000  Uiso   1.00
C281   C     0.71970   0.78595   0.32470   0.00000  Uiso   1.00
C282   C     0.59517   0.70629   0.48344   0.00000  Uiso   1.00
C283   C     0.57115   0.72980   0.46049   0.00000  Uiso   1.00
C284   C     0.55480   0.71107   0.36134   0.00000  Uiso   1.00
C285   C     0.52126   0.69502   0.21184   0.00000  Uiso   1.00
C286   C     0.62027   0.67636   0.67456   0.00000  Uiso   1.00
C287   C     0.61736   0.67470   0.81230   0.00000  Uiso   1.00
C288   C     0.62213   0.63077   0.87407   0.00000  Uiso   1.00
C289   C     0.62756   0.56824   0.02130   0.00000  Uiso   1.00
C290   C     0.62968   0.64553   0.45170   0.00000  Uiso   1.00
C291   C     0.64943   0.68697   0.43665   0.00000  Uiso   1.00
C292   C     0.67250   0.68624   0.35994   0.00000  Uiso   1.00
C293   C     0.68791   0.72780   0.35928   0.00000  Uiso   1.00
C294   C     0.60258   0.66551   0.40999   0.00000  Uiso   1.00
C295   C     0.58625   0.64673   0.31086   0.00000  Uiso   1.00
C296   C     0.56222   0.67022   0.28775   0.00000  Uiso   1.00
C297   C     0.62768   0.63557   0.60111   0.00000  Uiso   1.00
C298   C     0.63245   0.59163   0.66267   0.00000  Uiso   1.00
C299   C     0.62955   0.58991   0.80048   0.00000  Uiso   1.00
H300   H     0.61027   0.75236   0.64412   0.00000  Uiso   1.00
H301   H     0.65166   0.80087   0.56642   0.00000  Uiso   1.00
H302   H     0.56542   0.76136   0.51736   0.00000  Uiso   1.00
H303   H     0.61162   0.70627   0.86911   0.00000  Uiso   1.00
H304   H     0.70082   0.83667   0.44783   0.00000  Uiso   1.00
H305   H     0.51898   0.75335   0.34442   0.00000  Uiso   1.00
H306   H     0.61639   0.63718   0.08617   0.00000  Uiso   1.00
H307   H     0.63545   0.61378   0.39450   0.00000  Uiso   1.00
H308   H     0.67823   0.65468   0.30310   0.00000  Uiso   1.00
H309   H     0.59199   0.61517   0.25404   0.00000  Uiso   1.00
H310   H     0.63819   0.56008   0.60580   0.00000  Uiso   1.00
H311   H     0.72238   0.71802   0.23411   0.00000  Uiso   1.00
H312   H     0.54054   0.63470   0.13070   0.00000  Uiso   1.00
H313   H     0.63795   0.51852   0.87245   0.00000  Uiso   1.00
O314   O     0.73928   0.80675   0.28531   0.00000  Uiso   1.00
O315   O     0.50071   0.69744   0.14966   0.00000  Uiso   1.00
O316   O     0.62852   0.54502   0.12281   0.00000  Uiso   1.00
N317   N     0.70002   0.80313   0.41010   0.00000  Uiso   1.00
N318   N     0.53002   0.72523   0.31340   0.00000  Uiso   1.00
N319   N     0.62108   0.61662   0.00687   0.00000  Uiso   1.00
N320   N     0.71163   0.73928   0.29510   0.00000  Uiso   1.00
N321   N     0.54162   0.66139   0.19840   0.00000  Uiso   1.00
N322   N     0.63269   0.55277   0.89187   0.00000  Uiso   1.00
C323   C     0.11604   0.22061   0.58694   0.00000  Uiso   1.00
C324   C     0.14202   0.22775   0.51011   0.00000  Uiso   1.00
C325   C     0.15740   0.26931   0.50956   0.00000  Uiso   1.00
C326   C     0.18049   0.26866   0.43286   0.00000  Uiso   1.00
C327   C     0.21970   0.28595   0.32470   0.00000  Uiso   1.00
C328   C     0.09517   0.20629   0.48344   0.00000  Uiso   1.00
C329   C     0.07115   0.22980   0.46049   0.00000  Uiso   1.00
C330   C     0.05480   0.21107   0.36134   0.00000  Uiso   1.00
C331   C     0.02126   0.19502   0.21184   0.00000  Uiso   1.00
C332   C     0.12027   0.17636   0.67456   0.00000  Uiso   1.00
C333   C     0.11736   0.17470   0.81230   0.00000  Uiso   1.00
C334   C     0.12213   0.13077   0.87407   0.00000  Uiso   1.00
C335   C     0.12756   0.06824   0.02130   0.00000  Uiso   1.00
C336   C     0.12968   0.14553   0.45170   0.00000  Uiso   1.00
C337   C     0.14943   0.18697   0.43665   0.00000  Uiso   1.00
C338   C     0.17250   0.18624   0.35994   0.00000  Uiso   1.00
C339   C     0.18791   0.22780   0.35928   0.00000  Uiso   1.00
C340   C     0.10258   0.16551   0.40999   0.00000  Uiso   1.00
C341   C     0.08625   0.14673   0.31086   0.00000  Uiso   1.00
C342   C     0.06222   0.17022   0.28775   0.00000  Uiso   1.00
C343   C     0.12768   0.13557   0.60111   0.00000  Uiso   1.00
C344   C     0.13245   0.09163   0.66267   0.00000  Uiso   1.00
C345   C     0.12955   0.08991   0.80048   0.00000  Uiso   1.00
H346   H     0.11027   0.25236   0.64412   0.00000  Uiso   1.00
H347   H     0.15166   0.30087   0.56642   0.00000  Uiso   1.00
H348   H     0.06542   0.26136   0.51736   0.00000  Uiso   1.00
H349   H     0.11162   0.20627   0.86911   0.00000  Uiso   1.00
H350   H     0.20082   0.33667   0.44783   0.00000  Uiso   1.00
H351   H     0.01898   0.25335   0.34442   0.00000  Uiso   1.00
H352   H     0.11639   0.13718   0.08617   0.00000  Uiso   1.00
H353   H     0.13545   0.11378   0.39450   0.00000  Uiso   1.00
H354   H     0.17823   0.15468   0.30310   0.00000  Uiso   1.00
H355   H     0.09199   0.11517   0.25404   0.00000  Uiso   1.00
H356   H     0.13819   0.06008   0.60580   0.00000  Uiso   1.00
H357   H     0.22238   0.21802   0.23411   0.00000  Uiso   1.00
H358   H     0.04054   0.13470   0.13070   0.00000  Uiso   1.00
H359   H     0.13795   0.01852   0.87245   0.00000  Uiso   1.00
O360   O     0.23928   0.30675   0.28531   0.00000  Uiso   1.00
O361   O     0.00071   0.19744   0.14966   0.00000  Uiso   1.00
O362   O     0.12852   0.04502   0.12281   0.00000  Uiso   1.00
N363   N     0.20002   0.30313   0.41010   0.00000  Uiso   1.00
N364   N     0.03002   0.22523   0.31340   0.00000  Uiso   1.00
N365   N     0.12108   0.11662   0.00687   0.00000  Uiso   1.00
N366   N     0.21163   0.23928   0.29510   0.00000  Uiso   1.00
N367   N     0.04162   0.16139   0.19840   0.00000  Uiso   1.00
N368   N     0.13269   0.05277   0.89187   0.00000  Uiso   1.00
C369   C     0.88396   0.72061   0.08694   0.00000  Uiso   1.00
C370   C     0.85798   0.72775   0.01011   0.00000  Uiso   1.00
C371   C     0.84260   0.76931   0.00956   0.00000  Uiso   1.00
C372   C     0.81951   0.76866   0.93286   0.00000  Uiso   1.00
C373   C     0.78030   0.78595   0.82470   0.00000  Uiso   1.00
C374   C     0.90483   0.70629   0.98344   0.00000  Uiso   1.00
C375   C     0.92885   0.72980   0.96049   0.00000  Uiso   1.00
C376   C     0.94520   0.71107   0.86134   0.00000  Uiso   1.00
C377   C     0.97874   0.69502   0.71184   0.00000  Uiso   1.00
C378   C     0.87973   0.67636   0.17456   0.00000  Uiso   1.00
C379   C     0.88264   0.67470   0.31230   0.00000  Uiso   1.00
C380   C     0.87787   0.63077   0.37407   0.00000  Uiso   1.00
C381   C     0.87244   0.56824   0.52130   0.00000  Uiso   1.00
C382   C     0.87032   0.64553   0.95170   0.00000  Uiso   1.00
C383   C     0.85057   0.68697   0.93665   0.00000  Uiso   1.00
C384   C     0.82750   0.68624   0.85994   0.00000  Uiso   1.00
C385   C     0.81209   0.72780   0.85928   0.00000  Uiso   1.00
C386   C     0.89742   0.66551   0.90999   0.00000  Uiso   1.00
C387   C     0.91375   0.64673   0.81086   0.00000  Uiso   1.00
C388   C     0.93778   0.67022   0.78775   0.00000  Uiso   1.00
C389   C     0.87232   0.63557   0.10111   0.00000  Uiso   1.00
C390   C     0.86755   0.59163   0.16267   0.00000  Uiso   1.00
C391   C     0.87045   0.58991   0.30048   0.00000  Uiso   1.00
H392   H     0.88973   0.75236   0.14412   0.00000  Uiso   1.00
H393   H     0.84834   0.80087   0.06642   0.00000  Uiso   1.00
H394   H     0.93458   0.76136   0.01736   0.00000  Uiso   1.00
H395   H     0.88838   0.70627   0.36911   0.00000  Uiso   1.00
H396   H     0.79918   0.83667   0.94783   0.00000  Uiso   1.00
H397   H     0.98102   0.75335   0.84442   0.00000  Uiso   1.00
H398   H     0.88361   0.63718   0.58617   0.00000  Uiso   1.00
H399   H     0.86455   0.61378   0.89450   0.00000  Uiso   1.00
H400   H     0.82177   0.65468   0.80310   0.00000  Uiso   1.00
H401   H     0.90801   0.61517   0.75404   0.00000  Uiso   1.00
H402   H     0.86181   0.56008   0.10580   0.00000  Uiso   1.00
H403   H     0.77762   0.71802   0.73411   0.00000  Uiso   1.00
H404   H     0.95946   0.63470   0.63070   0.00000  Uiso   1.00
H405   H     0.86205   0.51852   0.37245   0.00000  Uiso   1.00
O406   O     0.76072   0.80675   0.78531   0.00000  Uiso   1.00
O407   O     0.99929   0.69744   0.64966   0.00000  Uiso   1.00
O408   O     0.87148   0.54502   0.62281   0.00000  Uiso   1.00
N409   N     0.79998   0.80313   0.91010   0.00000  Uiso   1.00
N410   N     0.96998   0.72523   0.81340   0.00000  Uiso   1.00
N411   N     0.87892   0.61662   0.50687   0.00000  Uiso   1.00
N412   N     0.78837   0.73928   0.79510   0.00000  Uiso   1.00
N413   N     0.95838   0.66139   0.69840   0.00000  Uiso   1.00
N414   N     0.86731   0.55277   0.39187   0.00000  Uiso   1.00
C415   C     0.38396   0.22061   0.08694   0.00000  Uiso   1.00
C416   C     0.35798   0.22775   0.01011   0.00000  Uiso   1.00
C417   C     0.34260   0.26931   0.00956   0.00000  Uiso   1.00
C418   C     0.31951   0.26866   0.93286   0.00000  Uiso   1.00
C419   C     0.28030   0.28595   0.82470   0.00000  Uiso   1.00
C420   C     0.40483   0.20629   0.98344   0.00000  Uiso   1.00
C421   C     0.42885   0.22980   0.96049   0.00000  Uiso   1.00
C422   C     0.44520   0.21107   0.86134   0.00000  Uiso   1.00
C423   C     0.47874   0.19502   0.71184   0.00000  Uiso   1.00
C424   C     0.37973   0.17636   0.17456   0.00000  Uiso   1.00
C425   C     0.38264   0.17470   0.31230   0.00000  Uiso   1.00
C426   C     0.37787   0.13077   0.37407   0.00000  Uiso   1.00
C427   C     0.37244   0.06824   0.52130   0.00000  Uiso   1.00
C428   C     0.37032   0.14553   0.95170   0.00000  Uiso   1.00
C429   C     0.35057   0.18697   0.93665   0.00000  Uiso   1.00
C430   C     0.32750   0.18624   0.85994   0.00000  Uiso   1.00
C431   C     0.31209   0.22780   0.85928   0.00000  Uiso   1.00
C432   C     0.39742   0.16551   0.90999   0.00000  Uiso   1.00
C433   C     0.41375   0.14673   0.81086   0.00000  Uiso   1.00
C434   C     0.43778   0.17022   0.78775   0.00000  Uiso   1.00
C435   C     0.37232   0.13557   0.10111   0.00000  Uiso   1.00
C436   C     0.36755   0.09163   0.16267   0.00000  Uiso   1.00
C437   C     0.37045   0.08991   0.30048   0.00000  Uiso   1.00
H438   H     0.38973   0.25236   0.14412   0.00000  Uiso   1.00
H439   H     0.34834   0.30087   0.06642   0.00000  Uiso   1.00
H440   H     0.43458   0.26136   0.01736   0.00000  Uiso   1.00
H441   H     0.38838   0.20627   0.36911   0.00000  Uiso   1.00
H442   H     0.29918   0.33667   0.94783   0.00000  Uiso   1.00
H443   H     0.48102   0.25335   0.84442   0.00000  Uiso   1.00
H444   H     0.38361   0.13718   0.58617   0.00000  Uiso   1.00
H445   H     0.36455   0.11378   0.89450   0.00000  Uiso   1.00
H446   H     0.32177   0.15468   0.80310   0.00000  Uiso   1.00
H447   H     0.40801   0.11517   0.75404   0.00000  Uiso   1.00
H448   H     0.36181   0.06008   0.10580   0.00000  Uiso   1.00
H449   H     0.27762   0.21802   0.73411   0.00000  Uiso   1.00
H450   H     0.45946   0.13470   0.63070   0.00000  Uiso   1.00
H451   H     0.36205   0.01852   0.37245   0.00000  Uiso   1.00
O452   O     0.26072   0.30675   0.78531   0.00000  Uiso   1.00
O453   O     0.49929   0.19744   0.64966   0.00000  Uiso   1.00
O454   O     0.37148   0.04502   0.62281   0.00000  Uiso   1.00
N455   N     0.29998   0.30313   0.91010   0.00000  Uiso   1.00
N456   N     0.46998   0.22523   0.81340   0.00000  Uiso   1.00
N457   N     0.37892   0.11662   0.50687   0.00000  Uiso   1.00
N458   N     0.28837   0.23928   0.79510   0.00000  Uiso   1.00
N459   N     0.45838   0.16139   0.69840   0.00000  Uiso   1.00
N460   N     0.36731   0.05277   0.39187   0.00000  Uiso   1.00
C461   C     0.61604   0.77939   0.08694   0.00000  Uiso   1.00
C462   C     0.64202   0.77225   0.01011   0.00000  Uiso   1.00
C463   C     0.65740   0.73069   0.00956   0.00000  Uiso   1.00
C464   C     0.68049   0.73134   0.93286   0.00000  Uiso   1.00
C465   C     0.71970   0.71405   0.82470   0.00000  Uiso   1.00
C466   C     0.59517   0.79371   0.98344   0.00000  Uiso   1.00
C467   C     0.57115   0.77020   0.96049   0.00000  Uiso   1.00
C468   C     0.55480   0.78893   0.86134   0.00000  Uiso   1.00
C469   C     0.52126   0.80498   0.71184   0.00000  Uiso   1.00
C470   C     0.62027   0.82364   0.17456   0.00000  Uiso   1.00
C471   C     0.61736   0.82530   0.31230   0.00000  Uiso   1.00
C472   C     0.62213   0.86923   0.37407   0.00000  Uiso   1.00
C473   C     0.62756   0.93176   0.52130   0.00000  Uiso   1.00
C474   C     0.62968   0.85447   0.95170   0.00000  Uiso   1.00
C475   C     0.64943   0.81303   0.93665   0.00000  Uiso   1.00
C476   C     0.67250   0.81376   0.85994   0.00000  Uiso   1.00
C477   C     0.68791   0.77220   0.85928   0.00000  Uiso   1.00
C478   C     0.60258   0.83449   0.90999   0.00000  Uiso   1.00
C479   C     0.58625   0.85327   0.81086   0.00000  Uiso   1.00
C480   C     0.56222   0.82978   0.78775   0.00000  Uiso   1.00
C481   C     0.62768   0.86443   0.10111   0.00000  Uiso   1.00
C482   C     0.63245   0.90837   0.16267   0.00000  Uiso   1.00
C483   C     0.62955   0.91009   0.30048   0.00000  Uiso   1.00
H484   H     0.61027   0.74764   0.14412   0.00000  Uiso   1.00
H485   H     0.65166   0.69913   0.06642   0.00000  Uiso   1.00
H486   H     0.56542   0.73864   0.01736   0.00000  Uiso   1.00
H487   H     0.61162   0.79373   0.36911   0.00000  Uiso   1.00
H488   H     0.70082   0.66333   0.94783   0.00000  Uiso   1.00
H489   H     0.51898   0.74665   0.84442   0.00000  Uiso   1.00
H490   H     0.61639   0.86282   0.58617   0.00000  Uiso   1.00
H491   H     0.63545   0.88622   0.89450   0.00000  Uiso   1.00
H492   H     0.67823   0.84532   0.80310   0.00000  Uiso   1.00
H493   H     0.59199   0.88483   0.75404   0.00000  Uiso   1.00
H494   H     0.63819   0.93992   0.10580   0.00000  Uiso   1.00
H495   H     0.72238   0.78198   0.73411   0.00000  Uiso   1.00
H496   H     0.54054   0.86530   0.63070   0.00000  Uiso   1.00
H497   H     0.63795   0.98148   0.37245   0.00000  Uiso   1.00
O498   O     0.73928   0.69325   0.78531   0.00000  Uiso   1.00
O499   O     0.50071   0.80256   0.64966   0.00000  Uiso   1.00
O500   O     0.62852   0.95498   0.62281   0.00000  Uiso   1.00
N501   N     0.70002   0.69687   0.91010   0.00000  Uiso   1.00
N502   N     0.53002   0.77477   0.81340   0.00000  Uiso   1.00
N503   N     0.62108   0.88338   0.50687   0.00000  Uiso   1.00
N504   N     0.71163   0.76072   0.79510   0.00000  Uiso   1.00
N505   N     0.54162   0.83861   0.69840   0.00000  Uiso   1.00
N506   N     0.63269   0.94723   0.39187   0.00000  Uiso   1.00
C507   C     0.11604   0.27939   0.08694   0.00000  Uiso   1.00
C508   C     0.14202   0.27225   0.01011   0.00000  Uiso   1.00
C509   C     0.15740   0.23069   0.00956   0.00000  Uiso   1.00
C510   C     0.18049   0.23134   0.93286   0.00000  Uiso   1.00
C511   C     0.21970   0.21405   0.82470   0.00000  Uiso   1.00
C512   C     0.09517   0.29371   0.98344   0.00000  Uiso   1.00
C513   C     0.07115   0.27020   0.96049   0.00000  Uiso   1.00
C514   C     0.05480   0.28893   0.86134   0.00000  Uiso   1.00
C515   C     0.02126   0.30498   0.71184   0.00000  Uiso   1.00
C516   C     0.12027   0.32364   0.17456   0.00000  Uiso   1.00
C517   C     0.11736   0.32530   0.31230   0.00000  Uiso   1.00
C518   C     0.12213   0.36923   0.37407   0.00000  Uiso   1.00
C519   C     0.12756   0.43176   0.52130   0.00000  Uiso   1.00
C520   C     0.12968   0.35447   0.95170   0.00000  Uiso   1.00
C521   C     0.14943   0.31303   0.93665   0.00000  Uiso   1.00
C522   C     0.17250   0.31376   0.85994   0.00000  Uiso   1.00
C523   C     0.18791   0.27220   0.85928   0.00000  Uiso   1.00
C524   C     0.10258   0.33449   0.90999   0.00000  Uiso   1.00
C525   C     0.08625   0.35327   0.81086   0.00000  Uiso   1.00
C526   C     0.06222   0.32978   0.78775   0.00000  Uiso   1.00
C527   C     0.12768   0.36443   0.10111   0.00000  Uiso   1.00
C528   C     0.13245   0.40837   0.16267   0.00000  Uiso   1.00
C529   C     0.12955   0.41009   0.30048   0.00000  Uiso   1.00
H530   H     0.11027   0.24764   0.14412   0.00000  Uiso   1.00
H531   H     0.15166   0.19913   0.06642   0.00000  Uiso   1.00
H532   H     0.06542   0.23864   0.01736   0.00000  Uiso   1.00
H533   H     0.11162   0.29373   0.36911   0.00000  Uiso   1.00
H534   H     0.20082   0.16333   0.94783   0.00000  Uiso   1.00
H535   H     0.01898   0.24665   0.84442   0.00000  Uiso   1.00
H536   H     0.11639   0.36282   0.58617   0.00000  Uiso   1.00
H537   H     0.13545   0.38622   0.89450   0.00000  Uiso   1.00
H538   H     0.17823   0.34532   0.80310   0.00000  Uiso   1.00
H539   H     0.09199   0.38483   0.75404   0.00000  Uiso   1.00
H540   H     0.13819   0.43992   0.10580   0.00000  Uiso   1.00
H541   H     0.22238   0.28198   0.73411   0.00000  Uiso   1.00
H542   H     0.04054   0.36530   0.63070   0.00000  Uiso   1.00
H543   H     0.13795   0.48148   0.37245   0.00000  Uiso   1.00
O544   O     0.23928   0.19325   0.78531   0.00000  Uiso   1.00
O545   O     0.00071   0.30256   0.64966   0.00000  Uiso   1.00
O546   O     0.12852   0.45498   0.62281   0.00000  Uiso   1.00
N547   N     0.20002   0.19687   0.91010   0.00000  Uiso   1.00
N548   N     0.03002   0.27477   0.81340   0.00000  Uiso   1.00
N549   N     0.12108   0.38338   0.50687   0.00000  Uiso   1.00
N550   N     0.21163   0.26072   0.79510   0.00000  Uiso   1.00
N551   N     0.04162   0.33861   0.69840   0.00000  Uiso   1.00
N552   N     0.13269   0.44723   0.39187   0.00000  Uiso   1.00
C553   C     0.11604   0.72061   0.91306   0.00000  Uiso   1.00
C554   C     0.14202   0.72775   0.98989   0.00000  Uiso   1.00
C555   C     0.15740   0.76931   0.99044   0.00000  Uiso   1.00
C556   C     0.18049   0.76866   0.06714   0.00000  Uiso   1.00
C557   C     0.21970   0.78595   0.17530   0.00000  Uiso   1.00
C558   C     0.09517   0.70629   0.01656   0.00000  Uiso   1.00
C559   C     0.07115   0.72980   0.03951   0.00000  Uiso   1.00
C560   C     0.05480   0.71107   0.13866   0.00000  Uiso   1.00
C561   C     0.02126   0.69502   0.28816   0.00000  Uiso   1.00
C562   C     0.12027   0.67636   0.82544   0.00000  Uiso   1.00
C563   C     0.11736   0.67470   0.68770   0.00000  Uiso   1.00
C564   C     0.12213   0.63077   0.62593   0.00000  Uiso   1.00
C565   C     0.12756   0.56824   0.47870   0.00000  Uiso   1.00
C566   C     0.12968   0.64553   0.04830   0.00000  Uiso   1.00
C567   C     0.14943   0.68697   0.06335   0.00000  Uiso   1.00
C568   C     0.17250   0.68624   0.14006   0.00000  Uiso   1.00
C569   C     0.18791   0.72780   0.14072   0.00000  Uiso   1.00
C570   C     0.10258   0.66551   0.09001   0.00000  Uiso   1.00
C571   C     0.08625   0.64673   0.18914   0.00000  Uiso   1.00
C572   C     0.06222   0.67022   0.21225   0.00000  Uiso   1.00
C573   C     0.12768   0.63557   0.89889   0.00000  Uiso   1.00
C574   C     0.13245   0.59163   0.83733   0.00000  Uiso   1.00
C575   C     0.12955   0.58991   0.69952   0.00000  Uiso   1.00
H576   H     0.11027   0.75236   0.85588   0.00000  Uiso   1.00
H577   H     0.15166   0.80087   0.93358   0.00000  Uiso   1.00
H578   H     0.06542   0.76136   0.98264   0.00000  Uiso   1.00
H579   H     0.11162   0.70627   0.63089   0.00000  Uiso   1.00
H580   H     0.20082   0.83667   0.05217   0.00000  Uiso   1.00
H581   H     0.01898   0.75335   0.15558   0.00000  Uiso   1.00
H582   H     0.11639   0.63718   0.41383   0.00000  Uiso   1.00
H583   H     0.13545   0.61378   0.10550   0.00000  Uiso   1.00
H584   H     0.17823   0.65468   0.19690   0.00000  Uiso   1.00
H585   H     0.09199   0.61517   0.24596   0.00000  Uiso   1.00
H586   H     0.13819   0.56008   0.89420   0.00000  Uiso   1.00
H587   H     0.22238   0.71802   0.26589   0.00000  Uiso   1.00
H588   H     0.04054   0.63470   0.36930   0.00000  Uiso   1.00
H589   H     0.13795   0.51852   0.62755   0.00000  Uiso   1.00
O590   O     0.23928   0.80675   0.21469   0.00000  Uiso   1.00
O591   O     0.00071   0.69744   0.35034   0.00000  Uiso   1.00
O592   O     0.12852   0.54502   0.37719   0.00000  Uiso   1.00
N593   N     0.20002   0.80313   0.08990   0.00000  Uiso   1.00
N594   N     0.03002   0.72523   0.18660   0.00000  Uiso   1.00
N595   N     0.12108   0.61662   0.49313   0.00000  Uiso   1.00
N596   N     0.21163   0.73928   0.20490   0.00000  Uiso   1.00
N597   N     0.04162   0.66139   0.30160   0.00000  Uiso   1.00
N598   N     0.13269   0.55277   0.60813   0.00000  Uiso   1.00
C599   C     0.61604   0.22061   0.91306   0.00000  Uiso   1.00
C600   C     0.64202   0.22775   0.98989   0.00000  Uiso   1.00
C601   C     0.65740   0.26931   0.99044   0.00000  Uiso   1.00
C602   C     0.68049   0.26866   0.06714   0.00000  Uiso   1.00
C603   C     0.71970   0.28595   0.17530   0.00000  Uiso   1.00
C604   C     0.59517   0.20629   0.01656   0.00000  Uiso   1.00
C605   C     0.57115   0.22980   0.03951   0.00000  Uiso   1.00
C606   C     0.55480   0.21107   0.13866   0.00000  Uiso   1.00
C607   C     0.52126   0.19502   0.28816   0.00000  Uiso   1.00
C608   C     0.62027   0.17636   0.82544   0.00000  Uiso   1.00
C609   C     0.61736   0.17470   0.68770   0.00000  Uiso   1.00
C610   C     0.62213   0.13077   0.62593   0.00000  Uiso   1.00
C611   C     0.62756   0.06824   0.47870   0.00000  Uiso   1.00
C612   C     0.62968   0.14553   0.04830   0.00000  Uiso   1.00
C613   C     0.64943   0.18697   0.06335   0.00000  Uiso   1.00
C614   C     0.67250   0.18624   0.14006   0.00000  Uiso   1.00
C615   C     0.68791   0.22780   0.14072   0.00000  Uiso   1.00
C616   C     0.60258   0.16551   0.09001   0.00000  Uiso   1.00
C617   C     0.58625   0.14673   0.18914   0.00000  Uiso   1.00
C618   C     0.56222   0.17022   0.21225   0.00000  Uiso   1.00
C619   C     0.62768   0.13557   0.89889   0.00000  Uiso   1.00
C620   C     0.63245   0.09163   0.83733   0.00000  Uiso   1.00
C621   C     0.62955   0.08991   0.69952   0.00000  Uiso   1.00
H622   H     0.61027   0.25236   0.85588   0.00000  Uiso   1.00
H623   H     0.65166   0.30087   0.93358   0.00000  Uiso   1.00
H624   H     0.56542   0.26136   0.98264   0.00000  Uiso   1.00
H625   H     0.61162   0.20627   0.63089   0.00000  Uiso   1.00
H626   H     0.70082   0.33667   0.05217   0.00000  Uiso   1.00
H627   H     0.51898   0.25335   0.15558   0.00000  Uiso   1.00
H628   H     0.61639   0.13718   0.41383   0.00000  Uiso   1.00
H629   H     0.63545   0.11378   0.10550   0.00000  Uiso   1.00
H630   H     0.67823   0.15468   0.19690   0.00000  Uiso   1.00
H631   H     0.59199   0.11517   0.24596   0.00000  Uiso   1.00
H632   H     0.63819   0.06008   0.89420   0.00000  Uiso   1.00
H633   H     0.72238   0.21802   0.26589   0.00000  Uiso   1.00
H634   H     0.54054   0.13470   0.36930   0.00000  Uiso   1.00
H635   H     0.63795   0.01852   0.62755   0.00000  Uiso   1.00
O636   O     0.73928   0.30675   0.21469   0.00000  Uiso   1.00
O637   O     0.50071   0.19744   0.35034   0.00000  Uiso   1.00
O638   O     0.62852   0.04502   0.37719   0.00000  Uiso   1.00
N639   N     0.70002   0.30313   0.08990   0.00000  Uiso   1.00
N640   N     0.53002   0.22523   0.18660   0.00000  Uiso   1.00
N641   N     0.62108   0.11662   0.49313   0.00000  Uiso   1.00
N642   N     0.71163   0.23928   0.20490   0.00000  Uiso   1.00
N643   N     0.54162   0.16139   0.30160   0.00000  Uiso   1.00
N644   N     0.63269   0.05277   0.60813   0.00000  Uiso   1.00
C645   C     0.38396   0.77939   0.91306   0.00000  Uiso   1.00
C646   C     0.35798   0.77225   0.98989   0.00000  Uiso   1.00
C647   C     0.34260   0.73069   0.99044   0.00000  Uiso   1.00
C648   C     0.31951   0.73134   0.06714   0.00000  Uiso   1.00
C649   C     0.28030   0.71405   0.17530   0.00000  Uiso   1.00
C650   C     0.40483   0.79371   0.01656   0.00000  Uiso   1.00
C651   C     0.42885   0.77020   0.03951   0.00000  Uiso   1.00
C652   C     0.44520   0.78893   0.13866   0.00000  Uiso   1.00
C653   C     0.47874   0.80498   0.28816   0.00000  Uiso   1.00
C654   C     0.37973   0.82364   0.82544   0.00000  Uiso   1.00
C655   C     0.38264   0.82530   0.68770   0.00000  Uiso   1.00
C656   C     0.37787   0.86923   0.62593   0.00000  Uiso   1.00
C657   C     0.37244   0.93176   0.47870   0.00000  Uiso   1.00
C658   C     0.37032   0.85447   0.04830   0.00000  Uiso   1.00
C659   C     0.35057   0.81303   0.06335   0.00000  Uiso   1.00
C660   C     0.32750   0.81376   0.14006   0.00000  Uiso   1.00
C661   C     0.31209   0.77220   0.14072   0.00000  Uiso   1.00
C662   C     0.39742   0.83449   0.09001   0.00000  Uiso   1.00
C663   C     0.41375   0.85327   0.18914   0.00000  Uiso   1.00
C664   C     0.43778   0.82978   0.21225   0.00000  Uiso   1.00
C665   C     0.37232   0.86443   0.89889   0.00000  Uiso   1.00
C666   C     0.36755   0.90837   0.83733   0.00000  Uiso   1.00
C667   C     0.37045   0.91009   0.69952   0.00000  Uiso   1.00
H668   H     0.38973   0.74764   0.85588   0.00000  Uiso   1.00
H669   H     0.34834   0.69913   0.93358   0.00000  Uiso   1.00
H670   H     0.43458   0.73864   0.98264   0.00000  Uiso   1.00
H671   H     0.38838   0.79373   0.63089   0.00000  Uiso   1.00
H672   H     0.29918   0.66333   0.05217   0.00000  Uiso   1.00
H673   H     0.48102   0.74665   0.15558   0.00000  Uiso   1.00
H674   H     0.38361   0.86282   0.41383   0.00000  Uiso   1.00
H675   H     0.36455   0.88622   0.10550   0.00000  Uiso   1.00
H676   H     0.32177   0.84532   0.19690   0.00000  Uiso   1.00
H677   H     0.40801   0.88483   0.24596   0.00000  Uiso   1.00
H678   H     0.36181   0.93992   0.89420   0.00000  Uiso   1.00
H679   H     0.27762   0.78198   0.26589   0.00000  Uiso   1.00
H680   H     0.45946   0.86530   0.36930   0.00000  Uiso   1.00
H681   H     0.36205   0.98148   0.62755   0.00000  Uiso   1.00
O682   O     0.26072   0.69325   0.21469   0.00000  Uiso   1.00
O683   O     0.49929   0.80256   0.35034   0.00000  Uiso   1.00
O684   O     0.37148   0.95498   0.37719   0.00000  Uiso   1.00
N685   N     0.29998   0.69687   0.08990   0.00000  Uiso   1.00
N686   N     0.46998   0.77477   0.18660   0.00000  Uiso   1.00
N687   N     0.37892   0.88338   0.49313   0.00000  Uiso   1.00
N688   N     0.28837   0.76072   0.20490   0.00000  Uiso   1.00
N689   N     0.45838   0.83861   0.30160   0.00000  Uiso   1.00
N690   N     0.36731   0.94723   0.60813   0.00000  Uiso   1.00
C691   C     0.88396   0.27939   0.91306   0.00000  Uiso   1.00
C692   C     0.85798   0.27225   0.98989   0.00000  Uiso   1.00
C693   C     0.84260   0.23069   0.99044   0.00000  Uiso   1.00
C694   C     0.81951   0.23134   0.06714   0.00000  Uiso   1.00
C695   C     0.78030   0.21405   0.17530   0.00000  Uiso   1.00
C696   C     0.90483   0.29371   0.01656   0.00000  Uiso   1.00
C697   C     0.92885   0.27020   0.03951   0.00000  Uiso   1.00
C698   C     0.94520   0.28893   0.13866   0.00000  Uiso   1.00
C699   C     0.97874   0.30498   0.28816   0.00000  Uiso   1.00
C700   C     0.87973   0.32364   0.82544   0.00000  Uiso   1.00
C701   C     0.88264   0.32530   0.68770   0.00000  Uiso   1.00
C702   C     0.87787   0.36923   0.62593   0.00000  Uiso   1.00
C703   C     0.87244   0.43176   0.47870   0.00000  Uiso   1.00
C704   C     0.87032   0.35447   0.04830   0.00000  Uiso   1.00
C705   C     0.85057   0.31303   0.06335   0.00000  Uiso   1.00
C706   C     0.82750   0.31376   0.14006   0.00000  Uiso   1.00
C707   C     0.81209   0.27220   0.14072   0.00000  Uiso   1.00
C708   C     0.89742   0.33449   0.09001   0.00000  Uiso   1.00
C709   C     0.91375   0.35327   0.18914   0.00000  Uiso   1.00
C710   C     0.93778   0.32978   0.21225   0.00000  Uiso   1.00
C711   C     0.87232   0.36443   0.89889   0.00000  Uiso   1.00
C712   C     0.86755   0.40837   0.83733   0.00000  Uiso   1.00
C713   C     0.87045   0.41009   0.69952   0.00000  Uiso   1.00
H714   H     0.88973   0.24764   0.85588   0.00000  Uiso   1.00
H715   H     0.84834   0.19913   0.93358   0.00000  Uiso   1.00
H716   H     0.93458   0.23864   0.98264   0.00000  Uiso   1.00
H717   H     0.88838   0.29373   0.63089   0.00000  Uiso   1.00
H718   H     0.79918   0.16333   0.05217   0.00000  Uiso   1.00
H719   H     0.98102   0.24665   0.15558   0.00000  Uiso   1.00
H720   H     0.88361   0.36282   0.41383   0.00000  Uiso   1.00
H721   H     0.86455   0.38622   0.10550   0.00000  Uiso   1.00
H722   H     0.82177   0.34532   0.19690   0.00000  Uiso   1.00
H723   H     0.90801   0.38483   0.24596   0.00000  Uiso   1.00
H724   H     0.86181   0.43992   0.89420   0.00000  Uiso   1.00
H725   H     0.77762   0.28198   0.26589   0.00000  Uiso   1.00
H726   H     0.95946   0.36530   0.36930   0.00000  Uiso   1.00
H727   H     0.86205   0.48148   0.62755   0.00000  Uiso   1.00
O728   O     0.76072   0.19325   0.21469   0.00000  Uiso   1.00
O729   O     0.99929   0.30256   0.35034   0.00000  Uiso   1.00
O730   O     0.87148   0.45498   0.37719   0.00000  Uiso   1.00
N731   N     0.79998   0.19687   0.08990   0.00000  Uiso   1.00
N732   N     0.96998   0.27477   0.18660   0.00000  Uiso   1.00
N733   N     0.87892   0.38338   0.49313   0.00000  Uiso   1.00
N734   N     0.78837   0.26072   0.20490   0.00000  Uiso   1.00
N735   N     0.95838   0.33861   0.30160   0.00000  Uiso   1.00
N736   N     0.86731   0.44723   0.60813   0.00000  Uiso   1.00
