data_job_04126
_audit_creation_date              2018-12-19
_audit_creation_method            'Materials Studio'
_symmetry_space_group_name_H-M    'P1'
_symmetry_Int_Tables_number       1
_symmetry_cell_setting            triclinic
loop_
_symmetry_equiv_pos_as_xyz
  x,y,z
_cell_length_a                    20.6340
_cell_length_b                    20.6340
_cell_length_c                    34.9178
_cell_angle_alpha                 90.0000
_cell_angle_beta                  90.0000
_cell_angle_gamma                 90.0000
loop_
_atom_site_label
_atom_site_type_symbol
_atom_site_fract_x
_atom_site_fract_y
_atom_site_fract_z
_atom_site_U_iso_or_equiv
_atom_site_adp_type
_atom_site_occupancy
C1     C     0.28181   0.22875   0.78200   0.00000  Uiso   1.00
C2     C     0.22312   0.18385   0.78271   0.00000  Uiso   1.00
C3     C     0.15904   0.20276   0.77814   0.00000  Uiso   1.00
C4     C     0.11239   0.15434   0.77972   0.00000  Uiso   1.00
C5     C     0.01868   0.09451   0.77994   0.00000  Uiso   1.00
C6     C     0.31705   0.21800   0.81986   0.00000  Uiso   1.00
C7     C     0.33196   0.26561   0.84651   0.00000  Uiso   1.00
C8     C     0.36440   0.24594   0.87935   0.00000  Uiso   1.00
C9     C     0.41658   0.23912   0.93723   0.00000  Uiso   1.00
C10    C     0.32657   0.20245   0.75092   0.00000  Uiso   1.00
C11    C     0.34949   0.23698   0.71962   0.00000  Uiso   1.00
C12    C     0.38995   0.20422   0.69443   0.00000  Uiso   1.00
C13    C     0.45689   0.17326   0.64528   0.00000  Uiso   1.00
C14    C     0.31291   0.10915   0.79293   0.00000  Uiso   1.00
C15    C     0.24001   0.11889   0.78865   0.00000  Uiso   1.00
C16    C     0.19345   0.07043   0.79023   0.00000  Uiso   1.00
C17    C     0.12931   0.08926   0.78566   0.00000  Uiso   1.00
C18    C     0.33395   0.15304   0.82579   0.00000  Uiso   1.00
C19    C     0.36638   0.13329   0.85860   0.00000  Uiso   1.00
C20    C     0.38132   0.18086   0.88530   0.00000  Uiso   1.00
C21    C     0.34346   0.13748   0.75686   0.00000  Uiso   1.00
C22    C     0.38390   0.10466   0.73171   0.00000  Uiso   1.00
C23    C     0.40687   0.13914   0.70038   0.00000  Uiso   1.00
H24    H     0.26865   0.27933   0.77738   0.00000  Uiso   1.00
H25    H     0.14598   0.25304   0.77356   0.00000  Uiso   1.00
H26    H     0.31888   0.31588   0.84191   0.00000  Uiso   1.00
H27    H     0.33640   0.28725   0.71504   0.00000  Uiso   1.00
H28    H     0.01742   0.19524   0.77194   0.00000  Uiso   1.00
H29    H     0.38202   0.32775   0.91607   0.00000  Uiso   1.00
H30    H     0.41896   0.26739   0.64854   0.00000  Uiso   1.00
H31    H     0.32607   0.05858   0.79755   0.00000  Uiso   1.00
H32    H     0.20654   0.02017   0.79482   0.00000  Uiso   1.00
H33    H     0.37945   0.08301   0.86318   0.00000  Uiso   1.00
H34    H     0.39696   0.05439   0.73631   0.00000  Uiso   1.00
H35    H     0.06657   0.00624   0.78921   0.00000  Uiso   1.00
H36    H     0.43118   0.13875   0.93333   0.00000  Uiso   1.00
H37    H     0.46812   0.07839   0.66580   0.00000  Uiso   1.00
O38    O     0.96233   0.07946   0.77843   0.00000  Uiso   1.00
O39    O     0.44068   0.25332   0.96751   0.00000  Uiso   1.00
O40    O     0.48914   0.17412   0.61652   0.00000  Uiso   1.00
N41    N     0.04539   0.15603   0.77637   0.00000  Uiso   1.00
N42    N     0.38626   0.27992   0.91112   0.00000  Uiso   1.00
N43    N     0.42082   0.22349   0.66101   0.00000  Uiso   1.00
N44    N     0.07184   0.05433   0.78566   0.00000  Uiso   1.00
N45    N     0.41271   0.17822   0.92041   0.00000  Uiso   1.00
N46    N     0.44726   0.12179   0.67030   0.00000  Uiso   1.00
C47    C     0.78181   0.72875   0.28200   0.00000  Uiso   1.00
C48    C     0.72312   0.68385   0.28271   0.00000  Uiso   1.00
C49    C     0.65904   0.70276   0.27814   0.00000  Uiso   1.00
C50    C     0.61239   0.65434   0.27972   0.00000  Uiso   1.00
C51    C     0.51868   0.59451   0.27994   0.00000  Uiso   1.00
C52    C     0.81705   0.71800   0.31986   0.00000  Uiso   1.00
C53    C     0.83196   0.76561   0.34651   0.00000  Uiso   1.00
C54    C     0.86440   0.74594   0.37935   0.00000  Uiso   1.00
C55    C     0.91658   0.73912   0.43723   0.00000  Uiso   1.00
C56    C     0.82657   0.70245   0.25092   0.00000  Uiso   1.00
C57    C     0.84949   0.73698   0.21962   0.00000  Uiso   1.00
C58    C     0.88995   0.70422   0.19443   0.00000  Uiso   1.00
C59    C     0.95689   0.67326   0.14528   0.00000  Uiso   1.00
C60    C     0.81291   0.60915   0.29293   0.00000  Uiso   1.00
C61    C     0.74001   0.61889   0.28865   0.00000  Uiso   1.00
C62    C     0.69345   0.57043   0.29023   0.00000  Uiso   1.00
C63    C     0.62931   0.58926   0.28566   0.00000  Uiso   1.00
C64    C     0.83395   0.65304   0.32579   0.00000  Uiso   1.00
C65    C     0.86638   0.63329   0.35860   0.00000  Uiso   1.00
C66    C     0.88132   0.68086   0.38530   0.00000  Uiso   1.00
C67    C     0.84346   0.63748   0.25686   0.00000  Uiso   1.00
C68    C     0.88390   0.60466   0.23171   0.00000  Uiso   1.00
C69    C     0.90687   0.63914   0.20038   0.00000  Uiso   1.00
H70    H     0.76865   0.77933   0.27738   0.00000  Uiso   1.00
H71    H     0.64598   0.75304   0.27356   0.00000  Uiso   1.00
H72    H     0.81888   0.81588   0.34191   0.00000  Uiso   1.00
H73    H     0.83640   0.78725   0.21504   0.00000  Uiso   1.00
H74    H     0.51742   0.69524   0.27194   0.00000  Uiso   1.00
H75    H     0.88202   0.82775   0.41607   0.00000  Uiso   1.00
H76    H     0.91896   0.76739   0.14854   0.00000  Uiso   1.00
H77    H     0.82607   0.55858   0.29755   0.00000  Uiso   1.00
H78    H     0.70654   0.52017   0.29482   0.00000  Uiso   1.00
H79    H     0.87945   0.58301   0.36318   0.00000  Uiso   1.00
H80    H     0.89696   0.55439   0.23631   0.00000  Uiso   1.00
H81    H     0.56657   0.50624   0.28921   0.00000  Uiso   1.00
H82    H     0.93118   0.63875   0.43333   0.00000  Uiso   1.00
H83    H     0.96812   0.57839   0.16580   0.00000  Uiso   1.00
O84    O     0.46233   0.57946   0.27843   0.00000  Uiso   1.00
O85    O     0.94068   0.75332   0.46751   0.00000  Uiso   1.00
O86    O     0.98914   0.67412   0.11652   0.00000  Uiso   1.00
N87    N     0.54539   0.65603   0.27637   0.00000  Uiso   1.00
N88    N     0.88626   0.77992   0.41112   0.00000  Uiso   1.00
N89    N     0.92082   0.72349   0.16101   0.00000  Uiso   1.00
N90    N     0.57184   0.55433   0.28566   0.00000  Uiso   1.00
N91    N     0.91271   0.67822   0.42041   0.00000  Uiso   1.00
N92    N     0.94726   0.62179   0.17030   0.00000  Uiso   1.00
C93    C     0.21819   0.27125   0.28200   0.00000  Uiso   1.00
C94    C     0.27688   0.31615   0.28271   0.00000  Uiso   1.00
C95    C     0.34096   0.29724   0.27814   0.00000  Uiso   1.00
C96    C     0.38761   0.34566   0.27972   0.00000  Uiso   1.00
C97    C     0.48132   0.40549   0.27994   0.00000  Uiso   1.00
C98    C     0.18295   0.28200   0.31986   0.00000  Uiso   1.00
C99    C     0.16804   0.23439   0.34651   0.00000  Uiso   1.00
C100   C     0.13560   0.25406   0.37935   0.00000  Uiso   1.00
C101   C     0.08342   0.26088   0.43723   0.00000  Uiso   1.00
C102   C     0.17343   0.29755   0.25092   0.00000  Uiso   1.00
C103   C     0.15051   0.26302   0.21962   0.00000  Uiso   1.00
C104   C     0.11005   0.29578   0.19443   0.00000  Uiso   1.00
C105   C     0.04311   0.32674   0.14528   0.00000  Uiso   1.00
C106   C     0.18709   0.39085   0.29293   0.00000  Uiso   1.00
C107   C     0.25999   0.38111   0.28865   0.00000  Uiso   1.00
C108   C     0.30655   0.42957   0.29023   0.00000  Uiso   1.00
C109   C     0.37069   0.41074   0.28566   0.00000  Uiso   1.00
C110   C     0.16605   0.34696   0.32579   0.00000  Uiso   1.00
C111   C     0.13362   0.36671   0.35860   0.00000  Uiso   1.00
C112   C     0.11868   0.31914   0.38530   0.00000  Uiso   1.00
C113   C     0.15654   0.36252   0.25686   0.00000  Uiso   1.00
C114   C     0.11610   0.39534   0.23171   0.00000  Uiso   1.00
C115   C     0.09313   0.36086   0.20038   0.00000  Uiso   1.00
H116   H     0.23135   0.22067   0.27738   0.00000  Uiso   1.00
H117   H     0.35402   0.24696   0.27356   0.00000  Uiso   1.00
H118   H     0.18112   0.18412   0.34191   0.00000  Uiso   1.00
H119   H     0.16360   0.21275   0.21504   0.00000  Uiso   1.00
H120   H     0.48258   0.30476   0.27194   0.00000  Uiso   1.00
H121   H     0.11798   0.17225   0.41607   0.00000  Uiso   1.00
H122   H     0.08104   0.23261   0.14854   0.00000  Uiso   1.00
H123   H     0.17393   0.44142   0.29755   0.00000  Uiso   1.00
H124   H     0.29346   0.47983   0.29482   0.00000  Uiso   1.00
H125   H     0.12055   0.41699   0.36318   0.00000  Uiso   1.00
H126   H     0.10304   0.44561   0.23631   0.00000  Uiso   1.00
H127   H     0.43343   0.49376   0.28921   0.00000  Uiso   1.00
H128   H     0.06882   0.36125   0.43333   0.00000  Uiso   1.00
H129   H     0.03188   0.42161   0.16580   0.00000  Uiso   1.00
O130   O     0.53767   0.42054   0.27843   0.00000  Uiso   1.00
O131   O     0.05932   0.24668   0.46751   0.00000  Uiso   1.00
O132   O     0.01086   0.32588   0.11652   0.00000  Uiso   1.00
N133   N     0.45461   0.34397   0.27637   0.00000  Uiso   1.00
N134   N     0.11374   0.22008   0.41112   0.00000  Uiso   1.00
N135   N     0.07918   0.27651   0.16101   0.00000  Uiso   1.00
N136   N     0.42816   0.44567   0.28566   0.00000  Uiso   1.00
N137   N     0.08729   0.32178   0.42041   0.00000  Uiso   1.00
N138   N     0.05274   0.37821   0.17030   0.00000  Uiso   1.00
C139   C     0.71819   0.77125   0.78200   0.00000  Uiso   1.00
C140   C     0.77688   0.81615   0.78271   0.00000  Uiso   1.00
C141   C     0.84096   0.79724   0.77814   0.00000  Uiso   1.00
C142   C     0.88761   0.84566   0.77972   0.00000  Uiso   1.00
C143   C     0.98132   0.90549   0.77994   0.00000  Uiso   1.00
C144   C     0.68295   0.78200   0.81986   0.00000  Uiso   1.00
C145   C     0.66804   0.73439   0.84651   0.00000  Uiso   1.00
C146   C     0.63560   0.75406   0.87935   0.00000  Uiso   1.00
C147   C     0.58342   0.76088   0.93723   0.00000  Uiso   1.00
C148   C     0.67343   0.79755   0.75092   0.00000  Uiso   1.00
C149   C     0.65051   0.76302   0.71962   0.00000  Uiso   1.00
C150   C     0.61005   0.79578   0.69443   0.00000  Uiso   1.00
C151   C     0.54311   0.82674   0.64528   0.00000  Uiso   1.00
C152   C     0.68709   0.89085   0.79293   0.00000  Uiso   1.00
C153   C     0.75999   0.88111   0.78865   0.00000  Uiso   1.00
C154   C     0.80655   0.92957   0.79023   0.00000  Uiso   1.00
C155   C     0.87069   0.91074   0.78566   0.00000  Uiso   1.00
C156   C     0.66605   0.84696   0.82579   0.00000  Uiso   1.00
C157   C     0.63362   0.86671   0.85860   0.00000  Uiso   1.00
C158   C     0.61868   0.81914   0.88530   0.00000  Uiso   1.00
C159   C     0.65654   0.86252   0.75686   0.00000  Uiso   1.00
C160   C     0.61610   0.89534   0.73171   0.00000  Uiso   1.00
C161   C     0.59313   0.86086   0.70038   0.00000  Uiso   1.00
H162   H     0.73135   0.72067   0.77738   0.00000  Uiso   1.00
H163   H     0.85402   0.74696   0.77356   0.00000  Uiso   1.00
H164   H     0.68112   0.68412   0.84191   0.00000  Uiso   1.00
H165   H     0.66360   0.71275   0.71504   0.00000  Uiso   1.00
H166   H     0.98258   0.80476   0.77194   0.00000  Uiso   1.00
H167   H     0.61798   0.67225   0.91607   0.00000  Uiso   1.00
H168   H     0.58104   0.73261   0.64854   0.00000  Uiso   1.00
H169   H     0.67393   0.94142   0.79755   0.00000  Uiso   1.00
H170   H     0.79346   0.97983   0.79482   0.00000  Uiso   1.00
H171   H     0.62055   0.91699   0.86318   0.00000  Uiso   1.00
H172   H     0.60304   0.94561   0.73631   0.00000  Uiso   1.00
H173   H     0.93343   0.99376   0.78921   0.00000  Uiso   1.00
H174   H     0.56882   0.86125   0.93333   0.00000  Uiso   1.00
H175   H     0.53188   0.92161   0.66580   0.00000  Uiso   1.00
O176   O     0.03767   0.92054   0.77843   0.00000  Uiso   1.00
O177   O     0.55932   0.74668   0.96751   0.00000  Uiso   1.00
O178   O     0.51086   0.82588   0.61652   0.00000  Uiso   1.00
N179   N     0.95461   0.84397   0.77637   0.00000  Uiso   1.00
N180   N     0.61374   0.72008   0.91112   0.00000  Uiso   1.00
N181   N     0.57918   0.77651   0.66101   0.00000  Uiso   1.00
N182   N     0.92816   0.94567   0.78566   0.00000  Uiso   1.00
N183   N     0.58729   0.82178   0.92041   0.00000  Uiso   1.00
N184   N     0.55274   0.87821   0.67030   0.00000  Uiso   1.00
C185   C     0.77125   0.78181   0.03200   0.00000  Uiso   1.00
C186   C     0.81615   0.72312   0.03271   0.00000  Uiso   1.00
C187   C     0.79724   0.65904   0.02814   0.00000  Uiso   1.00
C188   C     0.84566   0.61239   0.02972   0.00000  Uiso   1.00
C189   C     0.90549   0.51868   0.02994   0.00000  Uiso   1.00
C190   C     0.78200   0.81705   0.06986   0.00000  Uiso   1.00
C191   C     0.73439   0.83196   0.09651   0.00000  Uiso   1.00
C192   C     0.75406   0.86440   0.12935   0.00000  Uiso   1.00
C193   C     0.76088   0.91658   0.18723   0.00000  Uiso   1.00
C194   C     0.79755   0.82657   0.00092   0.00000  Uiso   1.00
C195   C     0.76302   0.84949   0.96962   0.00000  Uiso   1.00
C196   C     0.79578   0.88995   0.94443   0.00000  Uiso   1.00
C197   C     0.82674   0.95689   0.89528   0.00000  Uiso   1.00
C198   C     0.89085   0.81291   0.04293   0.00000  Uiso   1.00
C199   C     0.88111   0.74001   0.03865   0.00000  Uiso   1.00
C200   C     0.92957   0.69345   0.04023   0.00000  Uiso   1.00
C201   C     0.91074   0.62931   0.03566   0.00000  Uiso   1.00
C202   C     0.84696   0.83395   0.07579   0.00000  Uiso   1.00
C203   C     0.86671   0.86638   0.10860   0.00000  Uiso   1.00
C204   C     0.81914   0.88132   0.13530   0.00000  Uiso   1.00
C205   C     0.86252   0.84346   0.00686   0.00000  Uiso   1.00
C206   C     0.89534   0.88390   0.98171   0.00000  Uiso   1.00
C207   C     0.86086   0.90687   0.95038   0.00000  Uiso   1.00
H208   H     0.72067   0.76865   0.02738   0.00000  Uiso   1.00
H209   H     0.74696   0.64598   0.02356   0.00000  Uiso   1.00
H210   H     0.68412   0.81888   0.09191   0.00000  Uiso   1.00
H211   H     0.71275   0.83640   0.96504   0.00000  Uiso   1.00
H212   H     0.80476   0.51742   0.02194   0.00000  Uiso   1.00
H213   H     0.67225   0.88202   0.16607   0.00000  Uiso   1.00
H214   H     0.73261   0.91896   0.89854   0.00000  Uiso   1.00
H215   H     0.94142   0.82607   0.04755   0.00000  Uiso   1.00
H216   H     0.97983   0.70654   0.04482   0.00000  Uiso   1.00
H217   H     0.91699   0.87945   0.11318   0.00000  Uiso   1.00
H218   H     0.94561   0.89696   0.98631   0.00000  Uiso   1.00
H219   H     0.99376   0.56657   0.03921   0.00000  Uiso   1.00
H220   H     0.86125   0.93118   0.18333   0.00000  Uiso   1.00
H221   H     0.92161   0.96812   0.91580   0.00000  Uiso   1.00
O222   O     0.92054   0.46233   0.02843   0.00000  Uiso   1.00
O223   O     0.74668   0.94068   0.21751   0.00000  Uiso   1.00
O224   O     0.82588   0.98914   0.86652   0.00000  Uiso   1.00
N225   N     0.84397   0.54539   0.02637   0.00000  Uiso   1.00
N226   N     0.72008   0.88626   0.16112   0.00000  Uiso   1.00
N227   N     0.77651   0.92082   0.91101   0.00000  Uiso   1.00
N228   N     0.94567   0.57184   0.03566   0.00000  Uiso   1.00
N229   N     0.82178   0.91271   0.17041   0.00000  Uiso   1.00
N230   N     0.87821   0.94726   0.92030   0.00000  Uiso   1.00
C231   C     0.27125   0.28181   0.53200   0.00000  Uiso   1.00
C232   C     0.31615   0.22312   0.53271   0.00000  Uiso   1.00
C233   C     0.29724   0.15904   0.52814   0.00000  Uiso   1.00
C234   C     0.34566   0.11239   0.52972   0.00000  Uiso   1.00
C235   C     0.40549   0.01868   0.52994   0.00000  Uiso   1.00
C236   C     0.28200   0.31705   0.56986   0.00000  Uiso   1.00
C237   C     0.23439   0.33196   0.59651   0.00000  Uiso   1.00
C238   C     0.25406   0.36440   0.62935   0.00000  Uiso   1.00
C239   C     0.26088   0.41658   0.68723   0.00000  Uiso   1.00
C240   C     0.29755   0.32657   0.50092   0.00000  Uiso   1.00
C241   C     0.26302   0.34949   0.46962   0.00000  Uiso   1.00
C242   C     0.29578   0.38995   0.44443   0.00000  Uiso   1.00
C243   C     0.32674   0.45689   0.39528   0.00000  Uiso   1.00
C244   C     0.39085   0.31291   0.54293   0.00000  Uiso   1.00
C245   C     0.38111   0.24001   0.53865   0.00000  Uiso   1.00
C246   C     0.42957   0.19345   0.54023   0.00000  Uiso   1.00
C247   C     0.41074   0.12931   0.53566   0.00000  Uiso   1.00
C248   C     0.34696   0.33395   0.57579   0.00000  Uiso   1.00
C249   C     0.36671   0.36638   0.60860   0.00000  Uiso   1.00
C250   C     0.31914   0.38132   0.63530   0.00000  Uiso   1.00
C251   C     0.36252   0.34346   0.50686   0.00000  Uiso   1.00
C252   C     0.39534   0.38390   0.48171   0.00000  Uiso   1.00
C253   C     0.36086   0.40687   0.45038   0.00000  Uiso   1.00
H254   H     0.22067   0.26865   0.52738   0.00000  Uiso   1.00
H255   H     0.24696   0.14598   0.52356   0.00000  Uiso   1.00
H256   H     0.18412   0.31888   0.59191   0.00000  Uiso   1.00
H257   H     0.21275   0.33640   0.46504   0.00000  Uiso   1.00
H258   H     0.30476   0.01742   0.52194   0.00000  Uiso   1.00
H259   H     0.17225   0.38202   0.66607   0.00000  Uiso   1.00
H260   H     0.23261   0.41896   0.39854   0.00000  Uiso   1.00
H261   H     0.44142   0.32607   0.54755   0.00000  Uiso   1.00
H262   H     0.47983   0.20654   0.54482   0.00000  Uiso   1.00
H263   H     0.41699   0.37945   0.61318   0.00000  Uiso   1.00
H264   H     0.44561   0.39696   0.48631   0.00000  Uiso   1.00
H265   H     0.49376   0.06657   0.53921   0.00000  Uiso   1.00
H266   H     0.36125   0.43118   0.68333   0.00000  Uiso   1.00
H267   H     0.42161   0.46812   0.41580   0.00000  Uiso   1.00
O268   O     0.42054   0.96233   0.52843   0.00000  Uiso   1.00
O269   O     0.24668   0.44068   0.71751   0.00000  Uiso   1.00
O270   O     0.32588   0.48914   0.36652   0.00000  Uiso   1.00
N271   N     0.34397   0.04539   0.52637   0.00000  Uiso   1.00
N272   N     0.22008   0.38626   0.66112   0.00000  Uiso   1.00
N273   N     0.27651   0.42082   0.41101   0.00000  Uiso   1.00
N274   N     0.44567   0.07184   0.53566   0.00000  Uiso   1.00
N275   N     0.32178   0.41271   0.67041   0.00000  Uiso   1.00
N276   N     0.37821   0.44726   0.42030   0.00000  Uiso   1.00
C277   C     0.72875   0.71819   0.53200   0.00000  Uiso   1.00
C278   C     0.68385   0.77688   0.53271   0.00000  Uiso   1.00
C279   C     0.70276   0.84096   0.52814   0.00000  Uiso   1.00
C280   C     0.65434   0.88761   0.52972   0.00000  Uiso   1.00
C281   C     0.59451   0.98132   0.52994   0.00000  Uiso   1.00
C282   C     0.71800   0.68295   0.56986   0.00000  Uiso   1.00
C283   C     0.76561   0.66804   0.59651   0.00000  Uiso   1.00
C284   C     0.74594   0.63560   0.62935   0.00000  Uiso   1.00
C285   C     0.73912   0.58342   0.68723   0.00000  Uiso   1.00
C286   C     0.70245   0.67343   0.50092   0.00000  Uiso   1.00
C287   C     0.73698   0.65051   0.46962   0.00000  Uiso   1.00
C288   C     0.70422   0.61005   0.44443   0.00000  Uiso   1.00
C289   C     0.67326   0.54311   0.39528   0.00000  Uiso   1.00
C290   C     0.60915   0.68709   0.54293   0.00000  Uiso   1.00
C291   C     0.61889   0.75999   0.53865   0.00000  Uiso   1.00
C292   C     0.57043   0.80655   0.54023   0.00000  Uiso   1.00
C293   C     0.58926   0.87069   0.53566   0.00000  Uiso   1.00
C294   C     0.65304   0.66605   0.57579   0.00000  Uiso   1.00
C295   C     0.63329   0.63362   0.60860   0.00000  Uiso   1.00
C296   C     0.68086   0.61868   0.63530   0.00000  Uiso   1.00
C297   C     0.63748   0.65654   0.50686   0.00000  Uiso   1.00
C298   C     0.60466   0.61610   0.48171   0.00000  Uiso   1.00
C299   C     0.63914   0.59313   0.45038   0.00000  Uiso   1.00
H300   H     0.77933   0.73135   0.52738   0.00000  Uiso   1.00
H301   H     0.75304   0.85402   0.52356   0.00000  Uiso   1.00
H302   H     0.81588   0.68112   0.59191   0.00000  Uiso   1.00
H303   H     0.78725   0.66360   0.46504   0.00000  Uiso   1.00
H304   H     0.69524   0.98258   0.52194   0.00000  Uiso   1.00
H305   H     0.82775   0.61798   0.66607   0.00000  Uiso   1.00
H306   H     0.76739   0.58104   0.39854   0.00000  Uiso   1.00
H307   H     0.55858   0.67393   0.54755   0.00000  Uiso   1.00
H308   H     0.52017   0.79346   0.54482   0.00000  Uiso   1.00
H309   H     0.58301   0.62055   0.61318   0.00000  Uiso   1.00
H310   H     0.55439   0.60304   0.48631   0.00000  Uiso   1.00
H311   H     0.50624   0.93343   0.53921   0.00000  Uiso   1.00
H312   H     0.63875   0.56882   0.68333   0.00000  Uiso   1.00
H313   H     0.57839   0.53188   0.41580   0.00000  Uiso   1.00
O314   O     0.57946   0.03767   0.52843   0.00000  Uiso   1.00
O315   O     0.75332   0.55932   0.71751   0.00000  Uiso   1.00
O316   O     0.67412   0.51086   0.36652   0.00000  Uiso   1.00
N317   N     0.65603   0.95461   0.52637   0.00000  Uiso   1.00
N318   N     0.77992   0.61374   0.66112   0.00000  Uiso   1.00
N319   N     0.72349   0.57918   0.41101   0.00000  Uiso   1.00
N320   N     0.55433   0.92816   0.53566   0.00000  Uiso   1.00
N321   N     0.67822   0.58729   0.67041   0.00000  Uiso   1.00
N322   N     0.62179   0.55274   0.42030   0.00000  Uiso   1.00
C323   C     0.22875   0.21819   0.03200   0.00000  Uiso   1.00
C324   C     0.18385   0.27688   0.03271   0.00000  Uiso   1.00
C325   C     0.20276   0.34096   0.02814   0.00000  Uiso   1.00
C326   C     0.15434   0.38761   0.02972   0.00000  Uiso   1.00
C327   C     0.09451   0.48132   0.02994   0.00000  Uiso   1.00
C328   C     0.21800   0.18295   0.06986   0.00000  Uiso   1.00
C329   C     0.26561   0.16804   0.09651   0.00000  Uiso   1.00
C330   C     0.24594   0.13560   0.12935   0.00000  Uiso   1.00
C331   C     0.23912   0.08342   0.18723   0.00000  Uiso   1.00
C332   C     0.20245   0.17343   0.00092   0.00000  Uiso   1.00
C333   C     0.23698   0.15051   0.96962   0.00000  Uiso   1.00
C334   C     0.20422   0.11005   0.94443   0.00000  Uiso   1.00
C335   C     0.17326   0.04311   0.89528   0.00000  Uiso   1.00
C336   C     0.10915   0.18709   0.04293   0.00000  Uiso   1.00
C337   C     0.11889   0.25999   0.03865   0.00000  Uiso   1.00
C338   C     0.07043   0.30655   0.04023   0.00000  Uiso   1.00
C339   C     0.08926   0.37069   0.03566   0.00000  Uiso   1.00
C340   C     0.15304   0.16605   0.07579   0.00000  Uiso   1.00
C341   C     0.13329   0.13362   0.10860   0.00000  Uiso   1.00
C342   C     0.18086   0.11868   0.13530   0.00000  Uiso   1.00
C343   C     0.13748   0.15654   0.00686   0.00000  Uiso   1.00
C344   C     0.10466   0.11610   0.98171   0.00000  Uiso   1.00
C345   C     0.13914   0.09313   0.95038   0.00000  Uiso   1.00
H346   H     0.27933   0.23135   0.02738   0.00000  Uiso   1.00
H347   H     0.25304   0.35402   0.02356   0.00000  Uiso   1.00
H348   H     0.31588   0.18112   0.09191   0.00000  Uiso   1.00
H349   H     0.28725   0.16360   0.96504   0.00000  Uiso   1.00
H350   H     0.19524   0.48258   0.02194   0.00000  Uiso   1.00
H351   H     0.32775   0.11798   0.16607   0.00000  Uiso   1.00
H352   H     0.26739   0.08104   0.89854   0.00000  Uiso   1.00
H353   H     0.05858   0.17393   0.04755   0.00000  Uiso   1.00
H354   H     0.02017   0.29346   0.04482   0.00000  Uiso   1.00
H355   H     0.08301   0.12055   0.11318   0.00000  Uiso   1.00
H356   H     0.05439   0.10304   0.98631   0.00000  Uiso   1.00
H357   H     0.00624   0.43343   0.03921   0.00000  Uiso   1.00
H358   H     0.13875   0.06882   0.18333   0.00000  Uiso   1.00
H359   H     0.07839   0.03188   0.91580   0.00000  Uiso   1.00
O360   O     0.07946   0.53767   0.02843   0.00000  Uiso   1.00
O361   O     0.25332   0.05932   0.21751   0.00000  Uiso   1.00
O362   O     0.17412   0.01086   0.86652   0.00000  Uiso   1.00
N363   N     0.15603   0.45461   0.02637   0.00000  Uiso   1.00
N364   N     0.27992   0.11374   0.16112   0.00000  Uiso   1.00
N365   N     0.22349   0.07918   0.91101   0.00000  Uiso   1.00
N366   N     0.05433   0.42816   0.03566   0.00000  Uiso   1.00
N367   N     0.17822   0.08729   0.17041   0.00000  Uiso   1.00
N368   N     0.12179   0.05274   0.92030   0.00000  Uiso   1.00
C369   C     0.71819   0.27125   0.46800   0.00000  Uiso   1.00
C370   C     0.77688   0.31615   0.46729   0.00000  Uiso   1.00
C371   C     0.84096   0.29724   0.47186   0.00000  Uiso   1.00
C372   C     0.88761   0.34566   0.47028   0.00000  Uiso   1.00
C373   C     0.98132   0.40549   0.47006   0.00000  Uiso   1.00
C374   C     0.68295   0.28200   0.43014   0.00000  Uiso   1.00
C375   C     0.66804   0.23439   0.40349   0.00000  Uiso   1.00
C376   C     0.63560   0.25406   0.37065   0.00000  Uiso   1.00
C377   C     0.58342   0.26088   0.31277   0.00000  Uiso   1.00
C378   C     0.67343   0.29755   0.49908   0.00000  Uiso   1.00
C379   C     0.65051   0.26302   0.53038   0.00000  Uiso   1.00
C380   C     0.61005   0.29578   0.55557   0.00000  Uiso   1.00
C381   C     0.54311   0.32674   0.60472   0.00000  Uiso   1.00
C382   C     0.68709   0.39085   0.45707   0.00000  Uiso   1.00
C383   C     0.75999   0.38111   0.46135   0.00000  Uiso   1.00
C384   C     0.80655   0.42957   0.45977   0.00000  Uiso   1.00
C385   C     0.87069   0.41074   0.46434   0.00000  Uiso   1.00
C386   C     0.66605   0.34696   0.42421   0.00000  Uiso   1.00
C387   C     0.63362   0.36671   0.39140   0.00000  Uiso   1.00
C388   C     0.61868   0.31914   0.36470   0.00000  Uiso   1.00
C389   C     0.65654   0.36252   0.49314   0.00000  Uiso   1.00
C390   C     0.61610   0.39534   0.51829   0.00000  Uiso   1.00
C391   C     0.59313   0.36086   0.54962   0.00000  Uiso   1.00
H392   H     0.73135   0.22067   0.47262   0.00000  Uiso   1.00
H393   H     0.85402   0.24696   0.47644   0.00000  Uiso   1.00
H394   H     0.68112   0.18412   0.40809   0.00000  Uiso   1.00
H395   H     0.66360   0.21275   0.53496   0.00000  Uiso   1.00
H396   H     0.98258   0.30476   0.47806   0.00000  Uiso   1.00
H397   H     0.61798   0.17225   0.33393   0.00000  Uiso   1.00
H398   H     0.58104   0.23261   0.60146   0.00000  Uiso   1.00
H399   H     0.67393   0.44142   0.45245   0.00000  Uiso   1.00
H400   H     0.79346   0.47983   0.45518   0.00000  Uiso   1.00
H401   H     0.62055   0.41699   0.38682   0.00000  Uiso   1.00
H402   H     0.60304   0.44561   0.51369   0.00000  Uiso   1.00
H403   H     0.93343   0.49376   0.46079   0.00000  Uiso   1.00
H404   H     0.56882   0.36125   0.31667   0.00000  Uiso   1.00
H405   H     0.53188   0.42161   0.58420   0.00000  Uiso   1.00
O406   O     0.03767   0.42054   0.47157   0.00000  Uiso   1.00
O407   O     0.55932   0.24668   0.28249   0.00000  Uiso   1.00
O408   O     0.51086   0.32588   0.63348   0.00000  Uiso   1.00
N409   N     0.95461   0.34397   0.47363   0.00000  Uiso   1.00
N410   N     0.61374   0.22008   0.33888   0.00000  Uiso   1.00
N411   N     0.57918   0.27651   0.58899   0.00000  Uiso   1.00
N412   N     0.92816   0.44567   0.46434   0.00000  Uiso   1.00
N413   N     0.58729   0.32178   0.32959   0.00000  Uiso   1.00
N414   N     0.55274   0.37821   0.57970   0.00000  Uiso   1.00
C415   C     0.21819   0.77125   0.96800   0.00000  Uiso   1.00
C416   C     0.27688   0.81615   0.96729   0.00000  Uiso   1.00
C417   C     0.34096   0.79724   0.97186   0.00000  Uiso   1.00
C418   C     0.38761   0.84566   0.97028   0.00000  Uiso   1.00
C419   C     0.48132   0.90549   0.97006   0.00000  Uiso   1.00
C420   C     0.18295   0.78200   0.93014   0.00000  Uiso   1.00
C421   C     0.16804   0.73439   0.90349   0.00000  Uiso   1.00
C422   C     0.13560   0.75406   0.87065   0.00000  Uiso   1.00
C423   C     0.08342   0.76088   0.81277   0.00000  Uiso   1.00
C424   C     0.17343   0.79755   0.99908   0.00000  Uiso   1.00
C425   C     0.15051   0.76302   0.03038   0.00000  Uiso   1.00
C426   C     0.11005   0.79578   0.05557   0.00000  Uiso   1.00
C427   C     0.04311   0.82674   0.10472   0.00000  Uiso   1.00
C428   C     0.18709   0.89085   0.95707   0.00000  Uiso   1.00
C429   C     0.25999   0.88111   0.96135   0.00000  Uiso   1.00
C430   C     0.30655   0.92957   0.95977   0.00000  Uiso   1.00
C431   C     0.37069   0.91074   0.96434   0.00000  Uiso   1.00
C432   C     0.16605   0.84696   0.92421   0.00000  Uiso   1.00
C433   C     0.13362   0.86671   0.89140   0.00000  Uiso   1.00
C434   C     0.11868   0.81914   0.86470   0.00000  Uiso   1.00
C435   C     0.15654   0.86252   0.99314   0.00000  Uiso   1.00
C436   C     0.11610   0.89534   0.01829   0.00000  Uiso   1.00
C437   C     0.09313   0.86086   0.04962   0.00000  Uiso   1.00
H438   H     0.23135   0.72067   0.97262   0.00000  Uiso   1.00
H439   H     0.35402   0.74696   0.97644   0.00000  Uiso   1.00
H440   H     0.18112   0.68412   0.90809   0.00000  Uiso   1.00
H441   H     0.16360   0.71275   0.03496   0.00000  Uiso   1.00
H442   H     0.48258   0.80476   0.97806   0.00000  Uiso   1.00
H443   H     0.11798   0.67225   0.83393   0.00000  Uiso   1.00
H444   H     0.08104   0.73261   0.10146   0.00000  Uiso   1.00
H445   H     0.17393   0.94142   0.95245   0.00000  Uiso   1.00
H446   H     0.29346   0.97983   0.95518   0.00000  Uiso   1.00
H447   H     0.12055   0.91699   0.88682   0.00000  Uiso   1.00
H448   H     0.10304   0.94561   0.01369   0.00000  Uiso   1.00
H449   H     0.43343   0.99376   0.96079   0.00000  Uiso   1.00
H450   H     0.06882   0.86125   0.81667   0.00000  Uiso   1.00
H451   H     0.03188   0.92161   0.08420   0.00000  Uiso   1.00
O452   O     0.53767   0.92054   0.97157   0.00000  Uiso   1.00
O453   O     0.05932   0.74668   0.78249   0.00000  Uiso   1.00
O454   O     0.01086   0.82588   0.13348   0.00000  Uiso   1.00
N455   N     0.45461   0.84397   0.97363   0.00000  Uiso   1.00
N456   N     0.11374   0.72008   0.83888   0.00000  Uiso   1.00
N457   N     0.07918   0.77651   0.08899   0.00000  Uiso   1.00
N458   N     0.42816   0.94567   0.96434   0.00000  Uiso   1.00
N459   N     0.08729   0.82178   0.82959   0.00000  Uiso   1.00
N460   N     0.05274   0.87821   0.07970   0.00000  Uiso   1.00
C461   C     0.78181   0.22875   0.96800   0.00000  Uiso   1.00
C462   C     0.72312   0.18385   0.96729   0.00000  Uiso   1.00
C463   C     0.65904   0.20276   0.97186   0.00000  Uiso   1.00
C464   C     0.61239   0.15434   0.97028   0.00000  Uiso   1.00
C465   C     0.51868   0.09451   0.97006   0.00000  Uiso   1.00
C466   C     0.81705   0.21800   0.93014   0.00000  Uiso   1.00
C467   C     0.83196   0.26561   0.90349   0.00000  Uiso   1.00
C468   C     0.86440   0.24594   0.87065   0.00000  Uiso   1.00
C469   C     0.91658   0.23912   0.81277   0.00000  Uiso   1.00
C470   C     0.82657   0.20245   0.99908   0.00000  Uiso   1.00
C471   C     0.84949   0.23698   0.03038   0.00000  Uiso   1.00
C472   C     0.88995   0.20422   0.05557   0.00000  Uiso   1.00
C473   C     0.95689   0.17326   0.10472   0.00000  Uiso   1.00
C474   C     0.81291   0.10915   0.95707   0.00000  Uiso   1.00
C475   C     0.74001   0.11889   0.96135   0.00000  Uiso   1.00
C476   C     0.69345   0.07043   0.95977   0.00000  Uiso   1.00
C477   C     0.62931   0.08926   0.96434   0.00000  Uiso   1.00
C478   C     0.83395   0.15304   0.92421   0.00000  Uiso   1.00
C479   C     0.86638   0.13329   0.89140   0.00000  Uiso   1.00
C480   C     0.88132   0.18086   0.86470   0.00000  Uiso   1.00
C481   C     0.84346   0.13748   0.99314   0.00000  Uiso   1.00
C482   C     0.88390   0.10466   0.01829   0.00000  Uiso   1.00
C483   C     0.90687   0.13914   0.04962   0.00000  Uiso   1.00
H484   H     0.76865   0.27933   0.97262   0.00000  Uiso   1.00
H485   H     0.64598   0.25304   0.97644   0.00000  Uiso   1.00
H486   H     0.81888   0.31588   0.90809   0.00000  Uiso   1.00
H487   H     0.83640   0.28725   0.03496   0.00000  Uiso   1.00
H488   H     0.51742   0.19524   0.97806   0.00000  Uiso   1.00
H489   H     0.88202   0.32775   0.83393   0.00000  Uiso   1.00
H490   H     0.91896   0.26739   0.10146   0.00000  Uiso   1.00
H491   H     0.82607   0.05858   0.95245   0.00000  Uiso   1.00
H492   H     0.70654   0.02017   0.95518   0.00000  Uiso   1.00
H493   H     0.87945   0.08301   0.88682   0.00000  Uiso   1.00
H494   H     0.89696   0.05439   0.01369   0.00000  Uiso   1.00
H495   H     0.56657   0.00624   0.96079   0.00000  Uiso   1.00
H496   H     0.93118   0.13875   0.81667   0.00000  Uiso   1.00
H497   H     0.96812   0.07839   0.08420   0.00000  Uiso   1.00
O498   O     0.46233   0.07946   0.97157   0.00000  Uiso   1.00
O499   O     0.94068   0.25332   0.78249   0.00000  Uiso   1.00
O500   O     0.98914   0.17412   0.13348   0.00000  Uiso   1.00
N501   N     0.54539   0.15603   0.97363   0.00000  Uiso   1.00
N502   N     0.88626   0.27992   0.83888   0.00000  Uiso   1.00
N503   N     0.92082   0.22349   0.08899   0.00000  Uiso   1.00
N504   N     0.57184   0.05433   0.96434   0.00000  Uiso   1.00
N505   N     0.91271   0.17822   0.82959   0.00000  Uiso   1.00
N506   N     0.94726   0.12179   0.07970   0.00000  Uiso   1.00
C507   C     0.28181   0.72875   0.46800   0.00000  Uiso   1.00
C508   C     0.22312   0.68385   0.46729   0.00000  Uiso   1.00
C509   C     0.15904   0.70276   0.47186   0.00000  Uiso   1.00
C510   C     0.11239   0.65434   0.47028   0.00000  Uiso   1.00
C511   C     0.01868   0.59451   0.47006   0.00000  Uiso   1.00
C512   C     0.31705   0.71800   0.43014   0.00000  Uiso   1.00
C513   C     0.33196   0.76561   0.40349   0.00000  Uiso   1.00
C514   C     0.36440   0.74594   0.37065   0.00000  Uiso   1.00
C515   C     0.41658   0.73912   0.31277   0.00000  Uiso   1.00
C516   C     0.32657   0.70245   0.49908   0.00000  Uiso   1.00
C517   C     0.34949   0.73698   0.53038   0.00000  Uiso   1.00
C518   C     0.38995   0.70422   0.55557   0.00000  Uiso   1.00
C519   C     0.45689   0.67326   0.60472   0.00000  Uiso   1.00
C520   C     0.31291   0.60915   0.45707   0.00000  Uiso   1.00
C521   C     0.24001   0.61889   0.46135   0.00000  Uiso   1.00
C522   C     0.19345   0.57043   0.45977   0.00000  Uiso   1.00
C523   C     0.12931   0.58926   0.46434   0.00000  Uiso   1.00
C524   C     0.33395   0.65304   0.42421   0.00000  Uiso   1.00
C525   C     0.36638   0.63329   0.39140   0.00000  Uiso   1.00
C526   C     0.38132   0.68086   0.36470   0.00000  Uiso   1.00
C527   C     0.34346   0.63748   0.49314   0.00000  Uiso   1.00
C528   C     0.38390   0.60466   0.51829   0.00000  Uiso   1.00
C529   C     0.40687   0.63914   0.54962   0.00000  Uiso   1.00
H530   H     0.26865   0.77933   0.47262   0.00000  Uiso   1.00
H531   H     0.14598   0.75304   0.47644   0.00000  Uiso   1.00
H532   H     0.31888   0.81588   0.40809   0.00000  Uiso   1.00
H533   H     0.33640   0.78725   0.53496   0.00000  Uiso   1.00
H534   H     0.01742   0.69524   0.47806   0.00000  Uiso   1.00
H535   H     0.38202   0.82775   0.33393   0.00000  Uiso   1.00
H536   H     0.41896   0.76739   0.60146   0.00000  Uiso   1.00
H537   H     0.32607   0.55858   0.45245   0.00000  Uiso   1.00
H538   H     0.20654   0.52017   0.45518   0.00000  Uiso   1.00
H539   H     0.37945   0.58301   0.38682   0.00000  Uiso   1.00
H540   H     0.39696   0.55439   0.51369   0.00000  Uiso   1.00
H541   H     0.06657   0.50624   0.46079   0.00000  Uiso   1.00
H542   H     0.43118   0.63875   0.31667   0.00000  Uiso   1.00
H543   H     0.46812   0.57839   0.58420   0.00000  Uiso   1.00
O544   O     0.96233   0.57946   0.47157   0.00000  Uiso   1.00
O545   O     0.44068   0.75332   0.28249   0.00000  Uiso   1.00
O546   O     0.48914   0.67412   0.63348   0.00000  Uiso   1.00
N547   N     0.04539   0.65603   0.47363   0.00000  Uiso   1.00
N548   N     0.38626   0.77992   0.33888   0.00000  Uiso   1.00
N549   N     0.42082   0.72349   0.58899   0.00000  Uiso   1.00
N550   N     0.07184   0.55433   0.46434   0.00000  Uiso   1.00
N551   N     0.41271   0.67822   0.32959   0.00000  Uiso   1.00
N552   N     0.44726   0.62179   0.57970   0.00000  Uiso   1.00
C553   C     0.22875   0.71819   0.21800   0.00000  Uiso   1.00
C554   C     0.18385   0.77688   0.21729   0.00000  Uiso   1.00
C555   C     0.20276   0.84096   0.22186   0.00000  Uiso   1.00
C556   C     0.15434   0.88761   0.22028   0.00000  Uiso   1.00
C557   C     0.09451   0.98132   0.22006   0.00000  Uiso   1.00
C558   C     0.21800   0.68295   0.18014   0.00000  Uiso   1.00
C559   C     0.26561   0.66804   0.15349   0.00000  Uiso   1.00
C560   C     0.24594   0.63560   0.12065   0.00000  Uiso   1.00
C561   C     0.23912   0.58342   0.06277   0.00000  Uiso   1.00
C562   C     0.20245   0.67343   0.24908   0.00000  Uiso   1.00
C563   C     0.23698   0.65051   0.28038   0.00000  Uiso   1.00
C564   C     0.20422   0.61005   0.30557   0.00000  Uiso   1.00
C565   C     0.17326   0.54311   0.35472   0.00000  Uiso   1.00
C566   C     0.10915   0.68709   0.20707   0.00000  Uiso   1.00
C567   C     0.11889   0.75999   0.21135   0.00000  Uiso   1.00
C568   C     0.07043   0.80655   0.20977   0.00000  Uiso   1.00
C569   C     0.08926   0.87069   0.21434   0.00000  Uiso   1.00
C570   C     0.15304   0.66605   0.17421   0.00000  Uiso   1.00
C571   C     0.13329   0.63362   0.14140   0.00000  Uiso   1.00
C572   C     0.18086   0.61868   0.11470   0.00000  Uiso   1.00
C573   C     0.13748   0.65654   0.24314   0.00000  Uiso   1.00
C574   C     0.10466   0.61610   0.26829   0.00000  Uiso   1.00
C575   C     0.13914   0.59313   0.29962   0.00000  Uiso   1.00
H576   H     0.27933   0.73135   0.22262   0.00000  Uiso   1.00
H577   H     0.25304   0.85402   0.22644   0.00000  Uiso   1.00
H578   H     0.31588   0.68112   0.15809   0.00000  Uiso   1.00
H579   H     0.28725   0.66360   0.28496   0.00000  Uiso   1.00
H580   H     0.19524   0.98258   0.22806   0.00000  Uiso   1.00
H581   H     0.32775   0.61798   0.08393   0.00000  Uiso   1.00
H582   H     0.26739   0.58104   0.35146   0.00000  Uiso   1.00
H583   H     0.05858   0.67393   0.20245   0.00000  Uiso   1.00
H584   H     0.02017   0.79346   0.20518   0.00000  Uiso   1.00
H585   H     0.08301   0.62055   0.13682   0.00000  Uiso   1.00
H586   H     0.05439   0.60304   0.26369   0.00000  Uiso   1.00
H587   H     0.00624   0.93343   0.21079   0.00000  Uiso   1.00
H588   H     0.13875   0.56882   0.06667   0.00000  Uiso   1.00
H589   H     0.07839   0.53188   0.33420   0.00000  Uiso   1.00
O590   O     0.07946   0.03767   0.22157   0.00000  Uiso   1.00
O591   O     0.25332   0.55932   0.03249   0.00000  Uiso   1.00
O592   O     0.17412   0.51086   0.38348   0.00000  Uiso   1.00
N593   N     0.15603   0.95461   0.22363   0.00000  Uiso   1.00
N594   N     0.27992   0.61374   0.08888   0.00000  Uiso   1.00
N595   N     0.22349   0.57918   0.33899   0.00000  Uiso   1.00
N596   N     0.05433   0.92816   0.21434   0.00000  Uiso   1.00
N597   N     0.17822   0.58729   0.07959   0.00000  Uiso   1.00
N598   N     0.12179   0.55274   0.32970   0.00000  Uiso   1.00
C599   C     0.72875   0.21819   0.71800   0.00000  Uiso   1.00
C600   C     0.68385   0.27688   0.71729   0.00000  Uiso   1.00
C601   C     0.70276   0.34096   0.72186   0.00000  Uiso   1.00
C602   C     0.65434   0.38761   0.72028   0.00000  Uiso   1.00
C603   C     0.59451   0.48132   0.72006   0.00000  Uiso   1.00
C604   C     0.71800   0.18295   0.68014   0.00000  Uiso   1.00
C605   C     0.76561   0.16804   0.65349   0.00000  Uiso   1.00
C606   C     0.74594   0.13560   0.62065   0.00000  Uiso   1.00
C607   C     0.73912   0.08342   0.56277   0.00000  Uiso   1.00
C608   C     0.70245   0.17343   0.74908   0.00000  Uiso   1.00
C609   C     0.73698   0.15051   0.78038   0.00000  Uiso   1.00
C610   C     0.70422   0.11005   0.80557   0.00000  Uiso   1.00
C611   C     0.67326   0.04311   0.85472   0.00000  Uiso   1.00
C612   C     0.60915   0.18709   0.70707   0.00000  Uiso   1.00
C613   C     0.61889   0.25999   0.71135   0.00000  Uiso   1.00
C614   C     0.57043   0.30655   0.70977   0.00000  Uiso   1.00
C615   C     0.58926   0.37069   0.71434   0.00000  Uiso   1.00
C616   C     0.65304   0.16605   0.67421   0.00000  Uiso   1.00
C617   C     0.63329   0.13362   0.64140   0.00000  Uiso   1.00
C618   C     0.68086   0.11868   0.61470   0.00000  Uiso   1.00
C619   C     0.63748   0.15654   0.74314   0.00000  Uiso   1.00
C620   C     0.60466   0.11610   0.76829   0.00000  Uiso   1.00
C621   C     0.63914   0.09313   0.79962   0.00000  Uiso   1.00
H622   H     0.77933   0.23135   0.72262   0.00000  Uiso   1.00
H623   H     0.75304   0.35402   0.72644   0.00000  Uiso   1.00
H624   H     0.81588   0.18112   0.65809   0.00000  Uiso   1.00
H625   H     0.78725   0.16360   0.78496   0.00000  Uiso   1.00
H626   H     0.69524   0.48258   0.72806   0.00000  Uiso   1.00
H627   H     0.82775   0.11798   0.58393   0.00000  Uiso   1.00
H628   H     0.76739   0.08104   0.85146   0.00000  Uiso   1.00
H629   H     0.55858   0.17393   0.70245   0.00000  Uiso   1.00
H630   H     0.52017   0.29346   0.70518   0.00000  Uiso   1.00
H631   H     0.58301   0.12055   0.63682   0.00000  Uiso   1.00
H632   H     0.55439   0.10304   0.76369   0.00000  Uiso   1.00
H633   H     0.50624   0.43343   0.71079   0.00000  Uiso   1.00
H634   H     0.63875   0.06882   0.56667   0.00000  Uiso   1.00
H635   H     0.57839   0.03188   0.83420   0.00000  Uiso   1.00
O636   O     0.57946   0.53767   0.72157   0.00000  Uiso   1.00
O637   O     0.75332   0.05932   0.53249   0.00000  Uiso   1.00
O638   O     0.67412   0.01086   0.88348   0.00000  Uiso   1.00
N639   N     0.65603   0.45461   0.72363   0.00000  Uiso   1.00
N640   N     0.77992   0.11374   0.58888   0.00000  Uiso   1.00
N641   N     0.72349   0.07918   0.83899   0.00000  Uiso   1.00
N642   N     0.55433   0.42816   0.71434   0.00000  Uiso   1.00
N643   N     0.67822   0.08729   0.57959   0.00000  Uiso   1.00
N644   N     0.62179   0.05274   0.82970   0.00000  Uiso   1.00
C645   C     0.27125   0.78181   0.71800   0.00000  Uiso   1.00
C646   C     0.31615   0.72312   0.71729   0.00000  Uiso   1.00
C647   C     0.29724   0.65904   0.72186   0.00000  Uiso   1.00
C648   C     0.34566   0.61239   0.72028   0.00000  Uiso   1.00
C649   C     0.40549   0.51868   0.72006   0.00000  Uiso   1.00
C650   C     0.28200   0.81705   0.68014   0.00000  Uiso   1.00
C651   C     0.23439   0.83196   0.65349   0.00000  Uiso   1.00
C652   C     0.25406   0.86440   0.62065   0.00000  Uiso   1.00
C653   C     0.26088   0.91658   0.56277   0.00000  Uiso   1.00
C654   C     0.29755   0.82657   0.74908   0.00000  Uiso   1.00
C655   C     0.26302   0.84949   0.78038   0.00000  Uiso   1.00
C656   C     0.29578   0.88995   0.80557   0.00000  Uiso   1.00
C657   C     0.32674   0.95689   0.85472   0.00000  Uiso   1.00
C658   C     0.39085   0.81291   0.70707   0.00000  Uiso   1.00
C659   C     0.38111   0.74001   0.71135   0.00000  Uiso   1.00
C660   C     0.42957   0.69345   0.70977   0.00000  Uiso   1.00
C661   C     0.41074   0.62931   0.71434   0.00000  Uiso   1.00
C662   C     0.34696   0.83395   0.67421   0.00000  Uiso   1.00
C663   C     0.36671   0.86638   0.64140   0.00000  Uiso   1.00
C664   C     0.31914   0.88132   0.61470   0.00000  Uiso   1.00
C665   C     0.36252   0.84346   0.74314   0.00000  Uiso   1.00
C666   C     0.39534   0.88390   0.76829   0.00000  Uiso   1.00
C667   C     0.36086   0.90687   0.79962   0.00000  Uiso   1.00
H668   H     0.22067   0.76865   0.72262   0.00000  Uiso   1.00
H669   H     0.24696   0.64598   0.72644   0.00000  Uiso   1.00
H670   H     0.18412   0.81888   0.65809   0.00000  Uiso   1.00
H671   H     0.21275   0.83640   0.78496   0.00000  Uiso   1.00
H672   H     0.30476   0.51742   0.72806   0.00000  Uiso   1.00
H673   H     0.17225   0.88202   0.58393   0.00000  Uiso   1.00
H674   H     0.23261   0.91896   0.85146   0.00000  Uiso   1.00
H675   H     0.44142   0.82607   0.70245   0.00000  Uiso   1.00
H676   H     0.47983   0.70654   0.70518   0.00000  Uiso   1.00
H677   H     0.41699   0.87945   0.63682   0.00000  Uiso   1.00
H678   H     0.44561   0.89696   0.76369   0.00000  Uiso   1.00
H679   H     0.49376   0.56657   0.71079   0.00000  Uiso   1.00
H680   H     0.36125   0.93118   0.56667   0.00000  Uiso   1.00
H681   H     0.42161   0.96812   0.83420   0.00000  Uiso   1.00
O682   O     0.42054   0.46233   0.72157   0.00000  Uiso   1.00
O683   O     0.24668   0.94068   0.53249   0.00000  Uiso   1.00
O684   O     0.32588   0.98914   0.88348   0.00000  Uiso   1.00
N685   N     0.34397   0.54539   0.72363   0.00000  Uiso   1.00
N686   N     0.22008   0.88626   0.58888   0.00000  Uiso   1.00
N687   N     0.27651   0.92082   0.83899   0.00000  Uiso   1.00
N688   N     0.44567   0.57184   0.71434   0.00000  Uiso   1.00
N689   N     0.32178   0.91271   0.57959   0.00000  Uiso   1.00
N690   N     0.37821   0.94726   0.82970   0.00000  Uiso   1.00
C691   C     0.77125   0.28181   0.21800   0.00000  Uiso   1.00
C692   C     0.81615   0.22312   0.21729   0.00000  Uiso   1.00
C693   C     0.79724   0.15904   0.22186   0.00000  Uiso   1.00
C694   C     0.84566   0.11239   0.22028   0.00000  Uiso   1.00
C695   C     0.90549   0.01868   0.22006   0.00000  Uiso   1.00
C696   C     0.78200   0.31705   0.18014   0.00000  Uiso   1.00
C697   C     0.73439   0.33196   0.15349   0.00000  Uiso   1.00
C698   C     0.75406   0.36440   0.12065   0.00000  Uiso   1.00
C699   C     0.76088   0.41658   0.06277   0.00000  Uiso   1.00
C700   C     0.79755   0.32657   0.24908   0.00000  Uiso   1.00
C701   C     0.76302   0.34949   0.28038   0.00000  Uiso   1.00
C702   C     0.79578   0.38995   0.30557   0.00000  Uiso   1.00
C703   C     0.82674   0.45689   0.35472   0.00000  Uiso   1.00
C704   C     0.89085   0.31291   0.20707   0.00000  Uiso   1.00
C705   C     0.88111   0.24001   0.21135   0.00000  Uiso   1.00
C706   C     0.92957   0.19345   0.20977   0.00000  Uiso   1.00
C707   C     0.91074   0.12931   0.21434   0.00000  Uiso   1.00
C708   C     0.84696   0.33395   0.17421   0.00000  Uiso   1.00
C709   C     0.86671   0.36638   0.14140   0.00000  Uiso   1.00
C710   C     0.81914   0.38132   0.11470   0.00000  Uiso   1.00
C711   C     0.86252   0.34346   0.24314   0.00000  Uiso   1.00
C712   C     0.89534   0.38390   0.26829   0.00000  Uiso   1.00
C713   C     0.86086   0.40687   0.29962   0.00000  Uiso   1.00
H714   H     0.72067   0.26865   0.22262   0.00000  Uiso   1.00
H715   H     0.74696   0.14598   0.22644   0.00000  Uiso   1.00
H716   H     0.68412   0.31888   0.15809   0.00000  Uiso   1.00
H717   H     0.71275   0.33640   0.28496   0.00000  Uiso   1.00
H718   H     0.80476   0.01742   0.22806   0.00000  Uiso   1.00
H719   H     0.67225   0.38202   0.08393   0.00000  Uiso   1.00
H720   H     0.73261   0.41896   0.35146   0.00000  Uiso   1.00
H721   H     0.94142   0.32607   0.20245   0.00000  Uiso   1.00
H722   H     0.97983   0.20654   0.20518   0.00000  Uiso   1.00
H723   H     0.91699   0.37945   0.13682   0.00000  Uiso   1.00
H724   H     0.94561   0.39696   0.26369   0.00000  Uiso   1.00
H725   H     0.99376   0.06657   0.21079   0.00000  Uiso   1.00
H726   H     0.86125   0.43118   0.06667   0.00000  Uiso   1.00
H727   H     0.92161   0.46812   0.33420   0.00000  Uiso   1.00
O728   O     0.92054   0.96233   0.22157   0.00000  Uiso   1.00
O729   O     0.74668   0.44068   0.03249   0.00000  Uiso   1.00
O730   O     0.82588   0.48914   0.38348   0.00000  Uiso   1.00
N731   N     0.84397   0.04539   0.22363   0.00000  Uiso   1.00
N732   N     0.72008   0.38626   0.08888   0.00000  Uiso   1.00
N733   N     0.77651   0.42082   0.33899   0.00000  Uiso   1.00
N734   N     0.94567   0.07184   0.21434   0.00000  Uiso   1.00
N735   N     0.82178   0.41271   0.07959   0.00000  Uiso   1.00
N736   N     0.87821   0.44726   0.32970   0.00000  Uiso   1.00
