data_job_05803
_audit_creation_date              2018-12-19
_audit_creation_method            'Materials Studio'
_symmetry_space_group_name_H-M    'P1'
_symmetry_Int_Tables_number       1
_symmetry_cell_setting            triclinic
loop_
_symmetry_equiv_pos_as_xyz
  x,y,z
_cell_length_a                    19.2796
_cell_length_b                    19.2796
_cell_length_c                    26.9648
_cell_angle_alpha                 90.0000
_cell_angle_beta                  90.0000
_cell_angle_gamma                 90.0000
loop_
_atom_site_label
_atom_site_type_symbol
_atom_site_fract_x
_atom_site_fract_y
_atom_site_fract_z
_atom_site_U_iso_or_equiv
_atom_site_adp_type
_atom_site_occupancy
C1     C     0.61222   0.04633   0.98856   0.00000  Uiso   1.00
C2     C     0.68288   0.08115   0.98345   0.00000  Uiso   1.00
C3     C     0.73546   0.06077   0.95147   0.00000  Uiso   1.00
C4     C     0.79623   0.09939   0.95237   0.00000  Uiso   1.00
C5     C     0.90476   0.14479   0.93962   0.00000  Uiso   1.00
C6     C     0.60513   0.02675   0.04312   0.00000  Uiso   1.00
C7     C     0.59234   0.96063   0.06130   0.00000  Uiso   1.00
C8     C     0.58765   0.95346   0.11242   0.00000  Uiso   1.00
C9     C     0.57542   0.91439   0.19231   0.00000  Uiso   1.00
C10    C     0.55854   0.10291   0.97918   0.00000  Uiso   1.00
C11    C     0.50656   0.10082   0.94362   0.00000  Uiso   1.00
C12    C     0.46263   0.15777   0.94092   0.00000  Uiso   1.00
C13    C     0.37807   0.23696   0.92154   0.00000  Uiso   1.00
C14    C     0.62664   0.15115   0.04703   0.00000  Uiso   1.00
C15    C     0.69071   0.13809   0.01522   0.00000  Uiso   1.00
C16    C     0.75141   0.17675   0.01616   0.00000  Uiso   1.00
C17    C     0.80408   0.15644   0.98418   0.00000  Uiso   1.00
C18    C     0.61296   0.08368   0.07488   0.00000  Uiso   1.00
C19    C     0.60829   0.07661   0.12599   0.00000  Uiso   1.00
C20    C     0.59549   0.01050   0.14424   0.00000  Uiso   1.00
C21    C     0.56637   0.15985   0.01094   0.00000  Uiso   1.00
C22    C     0.52251   0.21680   0.00830   0.00000  Uiso   1.00
C23    C     0.47047   0.21481   0.97274   0.00000  Uiso   1.00
H24    H     0.60613   0.00199   0.96384   0.00000  Uiso   1.00
H25    H     0.72939   0.01670   0.92690   0.00000  Uiso   1.00
H26    H     0.58627   0.91658   0.03671   0.00000  Uiso   1.00
H27    H     0.50051   0.05675   0.91905   0.00000  Uiso   1.00
H28    H     0.86950   0.05810   0.89997   0.00000  Uiso   1.00
H29    H     0.56772   0.84699   0.13151   0.00000  Uiso   1.00
H30    H     0.38687   0.14257   0.88339   0.00000  Uiso   1.00
H31    H     0.63274   0.19548   0.07176   0.00000  Uiso   1.00
H32    H     0.75746   0.22081   0.04074   0.00000  Uiso   1.00
H33    H     0.61434   0.12068   0.15055   0.00000  Uiso   1.00
H34    H     0.52859   0.26086   0.03289   0.00000  Uiso   1.00
H35    H     0.89229   0.22376   0.99237   0.00000  Uiso   1.00
H36    H     0.59050   0.01264   0.22391   0.00000  Uiso   1.00
H37    H     0.40966   0.30823   0.97579   0.00000  Uiso   1.00
O38    O     0.96247   0.15409   0.92383   0.00000  Uiso   1.00
O39    O     0.56652   0.87711   0.22760   0.00000  Uiso   1.00
O40    O     0.32927   0.26492   0.90207   0.00000  Uiso   1.00
N41    N     0.85774   0.09362   0.92596   0.00000  Uiso   1.00
N42    N     0.57560   0.89624   0.14244   0.00000  Uiso   1.00
N43    N     0.40652   0.17258   0.91048   0.00000  Uiso   1.00
N44    N     0.87000   0.18276   0.97568   0.00000  Uiso   1.00
N45    N     0.58786   0.98538   0.19216   0.00000  Uiso   1.00
N46    N     0.41878   0.26172   0.96019   0.00000  Uiso   1.00
C47    C     0.11222   0.54633   0.48856   0.00000  Uiso   1.00
C48    C     0.18288   0.58115   0.48345   0.00000  Uiso   1.00
C49    C     0.23546   0.56077   0.45147   0.00000  Uiso   1.00
C50    C     0.29623   0.59939   0.45237   0.00000  Uiso   1.00
C51    C     0.40476   0.64479   0.43962   0.00000  Uiso   1.00
C52    C     0.10513   0.52675   0.54312   0.00000  Uiso   1.00
C53    C     0.09234   0.46063   0.56130   0.00000  Uiso   1.00
C54    C     0.08765   0.45346   0.61242   0.00000  Uiso   1.00
C55    C     0.07542   0.41439   0.69231   0.00000  Uiso   1.00
C56    C     0.05854   0.60291   0.47918   0.00000  Uiso   1.00
C57    C     0.00656   0.60082   0.44362   0.00000  Uiso   1.00
C58    C     0.96263   0.65777   0.44092   0.00000  Uiso   1.00
C59    C     0.87807   0.73696   0.42154   0.00000  Uiso   1.00
C60    C     0.12664   0.65115   0.54703   0.00000  Uiso   1.00
C61    C     0.19071   0.63809   0.51522   0.00000  Uiso   1.00
C62    C     0.25141   0.67675   0.51616   0.00000  Uiso   1.00
C63    C     0.30408   0.65644   0.48418   0.00000  Uiso   1.00
C64    C     0.11296   0.58368   0.57488   0.00000  Uiso   1.00
C65    C     0.10829   0.57661   0.62599   0.00000  Uiso   1.00
C66    C     0.09549   0.51050   0.64424   0.00000  Uiso   1.00
C67    C     0.06637   0.65985   0.51094   0.00000  Uiso   1.00
C68    C     0.02251   0.71680   0.50830   0.00000  Uiso   1.00
C69    C     0.97047   0.71481   0.47274   0.00000  Uiso   1.00
H70    H     0.10613   0.50199   0.46384   0.00000  Uiso   1.00
H71    H     0.22939   0.51670   0.42690   0.00000  Uiso   1.00
H72    H     0.08627   0.41658   0.53671   0.00000  Uiso   1.00
H73    H     0.00051   0.55675   0.41905   0.00000  Uiso   1.00
H74    H     0.36950   0.55810   0.39997   0.00000  Uiso   1.00
H75    H     0.06772   0.34699   0.63151   0.00000  Uiso   1.00
H76    H     0.88687   0.64257   0.38339   0.00000  Uiso   1.00
H77    H     0.13274   0.69548   0.57176   0.00000  Uiso   1.00
H78    H     0.25746   0.72081   0.54074   0.00000  Uiso   1.00
H79    H     0.11434   0.62068   0.65055   0.00000  Uiso   1.00
H80    H     0.02859   0.76086   0.53289   0.00000  Uiso   1.00
H81    H     0.39229   0.72376   0.49237   0.00000  Uiso   1.00
H82    H     0.09050   0.51264   0.72391   0.00000  Uiso   1.00
H83    H     0.90966   0.80823   0.47579   0.00000  Uiso   1.00
O84    O     0.46247   0.65409   0.42383   0.00000  Uiso   1.00
O85    O     0.06652   0.37711   0.72760   0.00000  Uiso   1.00
O86    O     0.82927   0.76492   0.40207   0.00000  Uiso   1.00
N87    N     0.35774   0.59362   0.42596   0.00000  Uiso   1.00
N88    N     0.07560   0.39624   0.64244   0.00000  Uiso   1.00
N89    N     0.90652   0.67258   0.41048   0.00000  Uiso   1.00
N90    N     0.37000   0.68276   0.47568   0.00000  Uiso   1.00
N91    N     0.08786   0.48538   0.69216   0.00000  Uiso   1.00
N92    N     0.91878   0.76172   0.46019   0.00000  Uiso   1.00
C93    C     0.38778   0.95367   0.98856   0.00000  Uiso   1.00
C94    C     0.31712   0.91885   0.98345   0.00000  Uiso   1.00
C95    C     0.26454   0.93923   0.95147   0.00000  Uiso   1.00
C96    C     0.20377   0.90061   0.95237   0.00000  Uiso   1.00
C97    C     0.09524   0.85521   0.93962   0.00000  Uiso   1.00
C98    C     0.39487   0.97325   0.04312   0.00000  Uiso   1.00
C99    C     0.40766   0.03937   0.06130   0.00000  Uiso   1.00
C100   C     0.41235   0.04654   0.11242   0.00000  Uiso   1.00
C101   C     0.42458   0.08561   0.19231   0.00000  Uiso   1.00
C102   C     0.44146   0.89709   0.97918   0.00000  Uiso   1.00
C103   C     0.49344   0.89918   0.94362   0.00000  Uiso   1.00
C104   C     0.53737   0.84223   0.94092   0.00000  Uiso   1.00
C105   C     0.62193   0.76304   0.92154   0.00000  Uiso   1.00
C106   C     0.37336   0.84885   0.04703   0.00000  Uiso   1.00
C107   C     0.30929   0.86191   0.01522   0.00000  Uiso   1.00
C108   C     0.24859   0.82325   0.01616   0.00000  Uiso   1.00
C109   C     0.19592   0.84356   0.98418   0.00000  Uiso   1.00
C110   C     0.38704   0.91632   0.07488   0.00000  Uiso   1.00
C111   C     0.39171   0.92339   0.12599   0.00000  Uiso   1.00
C112   C     0.40451   0.98950   0.14424   0.00000  Uiso   1.00
C113   C     0.43363   0.84015   0.01094   0.00000  Uiso   1.00
C114   C     0.47749   0.78320   0.00830   0.00000  Uiso   1.00
C115   C     0.52953   0.78519   0.97274   0.00000  Uiso   1.00
H116   H     0.39387   0.99801   0.96384   0.00000  Uiso   1.00
H117   H     0.27061   0.98330   0.92690   0.00000  Uiso   1.00
H118   H     0.41373   0.08342   0.03671   0.00000  Uiso   1.00
H119   H     0.49949   0.94325   0.91905   0.00000  Uiso   1.00
H120   H     0.13050   0.94190   0.89997   0.00000  Uiso   1.00
H121   H     0.43228   0.15301   0.13151   0.00000  Uiso   1.00
H122   H     0.61313   0.85743   0.88339   0.00000  Uiso   1.00
H123   H     0.36726   0.80452   0.07176   0.00000  Uiso   1.00
H124   H     0.24254   0.77919   0.04074   0.00000  Uiso   1.00
H125   H     0.38566   0.87932   0.15055   0.00000  Uiso   1.00
H126   H     0.47141   0.73914   0.03289   0.00000  Uiso   1.00
H127   H     0.10771   0.77624   0.99237   0.00000  Uiso   1.00
H128   H     0.40950   0.98736   0.22391   0.00000  Uiso   1.00
H129   H     0.59034   0.69177   0.97579   0.00000  Uiso   1.00
O130   O     0.03753   0.84591   0.92383   0.00000  Uiso   1.00
O131   O     0.43348   0.12289   0.22760   0.00000  Uiso   1.00
O132   O     0.67073   0.73508   0.90207   0.00000  Uiso   1.00
N133   N     0.14226   0.90638   0.92596   0.00000  Uiso   1.00
N134   N     0.42440   0.10376   0.14244   0.00000  Uiso   1.00
N135   N     0.59348   0.82742   0.91048   0.00000  Uiso   1.00
N136   N     0.13000   0.81724   0.97568   0.00000  Uiso   1.00
N137   N     0.41214   0.01462   0.19216   0.00000  Uiso   1.00
N138   N     0.58122   0.73828   0.96019   0.00000  Uiso   1.00
C139   C     0.88778   0.45367   0.48856   0.00000  Uiso   1.00
C140   C     0.81712   0.41885   0.48345   0.00000  Uiso   1.00
C141   C     0.76454   0.43923   0.45147   0.00000  Uiso   1.00
C142   C     0.70377   0.40061   0.45237   0.00000  Uiso   1.00
C143   C     0.59524   0.35521   0.43962   0.00000  Uiso   1.00
C144   C     0.89487   0.47325   0.54312   0.00000  Uiso   1.00
C145   C     0.90766   0.53937   0.56130   0.00000  Uiso   1.00
C146   C     0.91235   0.54654   0.61242   0.00000  Uiso   1.00
C147   C     0.92458   0.58561   0.69231   0.00000  Uiso   1.00
C148   C     0.94146   0.39709   0.47918   0.00000  Uiso   1.00
C149   C     0.99344   0.39918   0.44362   0.00000  Uiso   1.00
C150   C     0.03737   0.34223   0.44092   0.00000  Uiso   1.00
C151   C     0.12193   0.26304   0.42154   0.00000  Uiso   1.00
C152   C     0.87336   0.34885   0.54703   0.00000  Uiso   1.00
C153   C     0.80929   0.36191   0.51522   0.00000  Uiso   1.00
C154   C     0.74859   0.32325   0.51616   0.00000  Uiso   1.00
C155   C     0.69592   0.34356   0.48418   0.00000  Uiso   1.00
C156   C     0.88704   0.41632   0.57488   0.00000  Uiso   1.00
C157   C     0.89171   0.42339   0.62599   0.00000  Uiso   1.00
C158   C     0.90451   0.48950   0.64424   0.00000  Uiso   1.00
C159   C     0.93363   0.34015   0.51094   0.00000  Uiso   1.00
C160   C     0.97749   0.28320   0.50830   0.00000  Uiso   1.00
C161   C     0.02953   0.28519   0.47274   0.00000  Uiso   1.00
H162   H     0.89387   0.49801   0.46384   0.00000  Uiso   1.00
H163   H     0.77061   0.48330   0.42690   0.00000  Uiso   1.00
H164   H     0.91373   0.58342   0.53671   0.00000  Uiso   1.00
H165   H     0.99949   0.44325   0.41905   0.00000  Uiso   1.00
H166   H     0.63050   0.44190   0.39997   0.00000  Uiso   1.00
H167   H     0.93228   0.65301   0.63151   0.00000  Uiso   1.00
H168   H     0.11313   0.35743   0.38339   0.00000  Uiso   1.00
H169   H     0.86726   0.30452   0.57176   0.00000  Uiso   1.00
H170   H     0.74254   0.27919   0.54074   0.00000  Uiso   1.00
H171   H     0.88566   0.37932   0.65055   0.00000  Uiso   1.00
H172   H     0.97141   0.23914   0.53289   0.00000  Uiso   1.00
H173   H     0.60771   0.27624   0.49237   0.00000  Uiso   1.00
H174   H     0.90950   0.48736   0.72391   0.00000  Uiso   1.00
H175   H     0.09034   0.19177   0.47579   0.00000  Uiso   1.00
O176   O     0.53753   0.34591   0.42383   0.00000  Uiso   1.00
O177   O     0.93348   0.62289   0.72760   0.00000  Uiso   1.00
O178   O     0.17073   0.23508   0.40207   0.00000  Uiso   1.00
N179   N     0.64226   0.40638   0.42596   0.00000  Uiso   1.00
N180   N     0.92440   0.60376   0.64244   0.00000  Uiso   1.00
N181   N     0.09348   0.32742   0.41048   0.00000  Uiso   1.00
N182   N     0.63000   0.31724   0.47568   0.00000  Uiso   1.00
N183   N     0.91214   0.51462   0.69216   0.00000  Uiso   1.00
N184   N     0.08122   0.23828   0.46019   0.00000  Uiso   1.00
C185   C     0.04633   0.38778   0.01144   0.00000  Uiso   1.00
C186   C     0.08115   0.31712   0.01655   0.00000  Uiso   1.00
C187   C     0.06077   0.26454   0.04853   0.00000  Uiso   1.00
C188   C     0.09939   0.20377   0.04763   0.00000  Uiso   1.00
C189   C     0.14479   0.09524   0.06038   0.00000  Uiso   1.00
C190   C     0.02675   0.39487   0.95688   0.00000  Uiso   1.00
C191   C     0.96063   0.40766   0.93870   0.00000  Uiso   1.00
C192   C     0.95346   0.41235   0.88758   0.00000  Uiso   1.00
C193   C     0.91439   0.42458   0.80769   0.00000  Uiso   1.00
C194   C     0.10291   0.44146   0.02082   0.00000  Uiso   1.00
C195   C     0.10082   0.49344   0.05638   0.00000  Uiso   1.00
C196   C     0.15777   0.53737   0.05908   0.00000  Uiso   1.00
C197   C     0.23696   0.62193   0.07846   0.00000  Uiso   1.00
C198   C     0.15115   0.37336   0.95297   0.00000  Uiso   1.00
C199   C     0.13809   0.30929   0.98478   0.00000  Uiso   1.00
C200   C     0.17675   0.24859   0.98384   0.00000  Uiso   1.00
C201   C     0.15644   0.19592   0.01582   0.00000  Uiso   1.00
C202   C     0.08368   0.38704   0.92512   0.00000  Uiso   1.00
C203   C     0.07661   0.39171   0.87401   0.00000  Uiso   1.00
C204   C     0.01050   0.40451   0.85576   0.00000  Uiso   1.00
C205   C     0.15985   0.43363   0.98906   0.00000  Uiso   1.00
C206   C     0.21680   0.47749   0.99170   0.00000  Uiso   1.00
C207   C     0.21481   0.52953   0.02726   0.00000  Uiso   1.00
H208   H     0.00199   0.39387   0.03616   0.00000  Uiso   1.00
H209   H     0.01670   0.27061   0.07310   0.00000  Uiso   1.00
H210   H     0.91658   0.41373   0.96329   0.00000  Uiso   1.00
H211   H     0.05675   0.49949   0.08095   0.00000  Uiso   1.00
H212   H     0.05810   0.13050   0.10003   0.00000  Uiso   1.00
H213   H     0.84699   0.43228   0.86849   0.00000  Uiso   1.00
H214   H     0.14257   0.61313   0.11661   0.00000  Uiso   1.00
H215   H     0.19548   0.36726   0.92824   0.00000  Uiso   1.00
H216   H     0.22081   0.24254   0.95926   0.00000  Uiso   1.00
H217   H     0.12068   0.38566   0.84945   0.00000  Uiso   1.00
H218   H     0.26086   0.47141   0.96711   0.00000  Uiso   1.00
H219   H     0.22376   0.10771   0.00763   0.00000  Uiso   1.00
H220   H     0.01264   0.40950   0.77609   0.00000  Uiso   1.00
H221   H     0.30823   0.59034   0.02421   0.00000  Uiso   1.00
O222   O     0.15409   0.03753   0.07617   0.00000  Uiso   1.00
O223   O     0.87711   0.43348   0.77240   0.00000  Uiso   1.00
O224   O     0.26492   0.67073   0.09793   0.00000  Uiso   1.00
N225   N     0.09362   0.14226   0.07404   0.00000  Uiso   1.00
N226   N     0.89624   0.42440   0.85756   0.00000  Uiso   1.00
N227   N     0.17258   0.59348   0.08952   0.00000  Uiso   1.00
N228   N     0.18276   0.13000   0.02432   0.00000  Uiso   1.00
N229   N     0.98538   0.41214   0.80784   0.00000  Uiso   1.00
N230   N     0.26172   0.58122   0.03981   0.00000  Uiso   1.00
C231   C     0.54633   0.88778   0.51144   0.00000  Uiso   1.00
C232   C     0.58115   0.81712   0.51655   0.00000  Uiso   1.00
C233   C     0.56077   0.76454   0.54853   0.00000  Uiso   1.00
C234   C     0.59939   0.70377   0.54763   0.00000  Uiso   1.00
C235   C     0.64479   0.59524   0.56038   0.00000  Uiso   1.00
C236   C     0.52675   0.89487   0.45688   0.00000  Uiso   1.00
C237   C     0.46063   0.90766   0.43870   0.00000  Uiso   1.00
C238   C     0.45346   0.91235   0.38758   0.00000  Uiso   1.00
C239   C     0.41439   0.92458   0.30769   0.00000  Uiso   1.00
C240   C     0.60291   0.94146   0.52082   0.00000  Uiso   1.00
C241   C     0.60082   0.99344   0.55638   0.00000  Uiso   1.00
C242   C     0.65777   0.03737   0.55908   0.00000  Uiso   1.00
C243   C     0.73696   0.12193   0.57846   0.00000  Uiso   1.00
C244   C     0.65115   0.87336   0.45297   0.00000  Uiso   1.00
C245   C     0.63809   0.80929   0.48478   0.00000  Uiso   1.00
C246   C     0.67675   0.74859   0.48384   0.00000  Uiso   1.00
C247   C     0.65644   0.69592   0.51582   0.00000  Uiso   1.00
C248   C     0.58368   0.88704   0.42512   0.00000  Uiso   1.00
C249   C     0.57661   0.89171   0.37401   0.00000  Uiso   1.00
C250   C     0.51050   0.90451   0.35576   0.00000  Uiso   1.00
C251   C     0.65985   0.93363   0.48906   0.00000  Uiso   1.00
C252   C     0.71680   0.97749   0.49170   0.00000  Uiso   1.00
C253   C     0.71481   0.02953   0.52726   0.00000  Uiso   1.00
H254   H     0.50199   0.89387   0.53616   0.00000  Uiso   1.00
H255   H     0.51670   0.77061   0.57310   0.00000  Uiso   1.00
H256   H     0.41658   0.91373   0.46329   0.00000  Uiso   1.00
H257   H     0.55675   0.99949   0.58095   0.00000  Uiso   1.00
H258   H     0.55810   0.63050   0.60003   0.00000  Uiso   1.00
H259   H     0.34699   0.93228   0.36849   0.00000  Uiso   1.00
H260   H     0.64257   0.11313   0.61661   0.00000  Uiso   1.00
H261   H     0.69548   0.86726   0.42824   0.00000  Uiso   1.00
H262   H     0.72081   0.74254   0.45926   0.00000  Uiso   1.00
H263   H     0.62068   0.88566   0.34945   0.00000  Uiso   1.00
H264   H     0.76086   0.97141   0.46711   0.00000  Uiso   1.00
H265   H     0.72376   0.60771   0.50763   0.00000  Uiso   1.00
H266   H     0.51264   0.90950   0.27609   0.00000  Uiso   1.00
H267   H     0.80823   0.09034   0.52421   0.00000  Uiso   1.00
O268   O     0.65409   0.53753   0.57617   0.00000  Uiso   1.00
O269   O     0.37711   0.93348   0.27240   0.00000  Uiso   1.00
O270   O     0.76492   0.17073   0.59793   0.00000  Uiso   1.00
N271   N     0.59362   0.64226   0.57404   0.00000  Uiso   1.00
N272   N     0.39624   0.92440   0.35756   0.00000  Uiso   1.00
N273   N     0.67258   0.09348   0.58952   0.00000  Uiso   1.00
N274   N     0.68276   0.63000   0.52432   0.00000  Uiso   1.00
N275   N     0.48538   0.91214   0.30784   0.00000  Uiso   1.00
N276   N     0.76172   0.08122   0.53981   0.00000  Uiso   1.00
C277   C     0.95367   0.61222   0.01144   0.00000  Uiso   1.00
C278   C     0.91885   0.68288   0.01655   0.00000  Uiso   1.00
C279   C     0.93923   0.73546   0.04853   0.00000  Uiso   1.00
C280   C     0.90061   0.79623   0.04763   0.00000  Uiso   1.00
C281   C     0.85521   0.90476   0.06038   0.00000  Uiso   1.00
C282   C     0.97325   0.60513   0.95688   0.00000  Uiso   1.00
C283   C     0.03937   0.59234   0.93870   0.00000  Uiso   1.00
C284   C     0.04654   0.58765   0.88758   0.00000  Uiso   1.00
C285   C     0.08561   0.57542   0.80769   0.00000  Uiso   1.00
C286   C     0.89709   0.55854   0.02082   0.00000  Uiso   1.00
C287   C     0.89918   0.50656   0.05638   0.00000  Uiso   1.00
C288   C     0.84223   0.46263   0.05908   0.00000  Uiso   1.00
C289   C     0.76304   0.37807   0.07846   0.00000  Uiso   1.00
C290   C     0.84885   0.62664   0.95297   0.00000  Uiso   1.00
C291   C     0.86191   0.69071   0.98478   0.00000  Uiso   1.00
C292   C     0.82325   0.75141   0.98384   0.00000  Uiso   1.00
C293   C     0.84356   0.80408   0.01582   0.00000  Uiso   1.00
C294   C     0.91632   0.61296   0.92512   0.00000  Uiso   1.00
C295   C     0.92339   0.60829   0.87401   0.00000  Uiso   1.00
C296   C     0.98950   0.59549   0.85576   0.00000  Uiso   1.00
C297   C     0.84015   0.56637   0.98906   0.00000  Uiso   1.00
C298   C     0.78320   0.52251   0.99170   0.00000  Uiso   1.00
C299   C     0.78519   0.47047   0.02726   0.00000  Uiso   1.00
H300   H     0.99801   0.60613   0.03616   0.00000  Uiso   1.00
H301   H     0.98330   0.72939   0.07310   0.00000  Uiso   1.00
H302   H     0.08342   0.58627   0.96329   0.00000  Uiso   1.00
H303   H     0.94325   0.50051   0.08095   0.00000  Uiso   1.00
H304   H     0.94190   0.86950   0.10003   0.00000  Uiso   1.00
H305   H     0.15301   0.56772   0.86849   0.00000  Uiso   1.00
H306   H     0.85743   0.38687   0.11661   0.00000  Uiso   1.00
H307   H     0.80452   0.63274   0.92824   0.00000  Uiso   1.00
H308   H     0.77919   0.75746   0.95926   0.00000  Uiso   1.00
H309   H     0.87932   0.61434   0.84945   0.00000  Uiso   1.00
H310   H     0.73914   0.52859   0.96711   0.00000  Uiso   1.00
H311   H     0.77624   0.89229   0.00763   0.00000  Uiso   1.00
H312   H     0.98736   0.59050   0.77609   0.00000  Uiso   1.00
H313   H     0.69177   0.40966   0.02421   0.00000  Uiso   1.00
O314   O     0.84591   0.96247   0.07617   0.00000  Uiso   1.00
O315   O     0.12289   0.56652   0.77240   0.00000  Uiso   1.00
O316   O     0.73508   0.32927   0.09793   0.00000  Uiso   1.00
N317   N     0.90638   0.85774   0.07404   0.00000  Uiso   1.00
N318   N     0.10376   0.57560   0.85756   0.00000  Uiso   1.00
N319   N     0.82742   0.40652   0.08952   0.00000  Uiso   1.00
N320   N     0.81724   0.87000   0.02432   0.00000  Uiso   1.00
N321   N     0.01462   0.58786   0.80784   0.00000  Uiso   1.00
N322   N     0.73828   0.41878   0.03981   0.00000  Uiso   1.00
C323   C     0.45367   0.11222   0.51144   0.00000  Uiso   1.00
C324   C     0.41885   0.18288   0.51655   0.00000  Uiso   1.00
C325   C     0.43923   0.23546   0.54853   0.00000  Uiso   1.00
C326   C     0.40061   0.29623   0.54763   0.00000  Uiso   1.00
C327   C     0.35521   0.40476   0.56038   0.00000  Uiso   1.00
C328   C     0.47325   0.10513   0.45688   0.00000  Uiso   1.00
C329   C     0.53937   0.09234   0.43870   0.00000  Uiso   1.00
C330   C     0.54654   0.08765   0.38758   0.00000  Uiso   1.00
C331   C     0.58561   0.07542   0.30769   0.00000  Uiso   1.00
C332   C     0.39709   0.05854   0.52082   0.00000  Uiso   1.00
C333   C     0.39918   0.00656   0.55638   0.00000  Uiso   1.00
C334   C     0.34223   0.96263   0.55908   0.00000  Uiso   1.00
C335   C     0.26304   0.87807   0.57846   0.00000  Uiso   1.00
C336   C     0.34885   0.12664   0.45297   0.00000  Uiso   1.00
C337   C     0.36191   0.19071   0.48478   0.00000  Uiso   1.00
C338   C     0.32325   0.25141   0.48384   0.00000  Uiso   1.00
C339   C     0.34356   0.30408   0.51582   0.00000  Uiso   1.00
C340   C     0.41632   0.11296   0.42512   0.00000  Uiso   1.00
C341   C     0.42339   0.10829   0.37401   0.00000  Uiso   1.00
C342   C     0.48950   0.09549   0.35576   0.00000  Uiso   1.00
C343   C     0.34015   0.06637   0.48906   0.00000  Uiso   1.00
C344   C     0.28320   0.02251   0.49170   0.00000  Uiso   1.00
C345   C     0.28519   0.97047   0.52726   0.00000  Uiso   1.00
H346   H     0.49801   0.10613   0.53616   0.00000  Uiso   1.00
H347   H     0.48330   0.22939   0.57310   0.00000  Uiso   1.00
H348   H     0.58342   0.08627   0.46329   0.00000  Uiso   1.00
H349   H     0.44325   0.00051   0.58095   0.00000  Uiso   1.00
H350   H     0.44190   0.36950   0.60003   0.00000  Uiso   1.00
H351   H     0.65301   0.06772   0.36849   0.00000  Uiso   1.00
H352   H     0.35743   0.88687   0.61661   0.00000  Uiso   1.00
H353   H     0.30452   0.13274   0.42824   0.00000  Uiso   1.00
H354   H     0.27919   0.25746   0.45926   0.00000  Uiso   1.00
H355   H     0.37932   0.11434   0.34945   0.00000  Uiso   1.00
H356   H     0.23914   0.02859   0.46711   0.00000  Uiso   1.00
H357   H     0.27624   0.39229   0.50763   0.00000  Uiso   1.00
H358   H     0.48736   0.09050   0.27609   0.00000  Uiso   1.00
H359   H     0.19177   0.90966   0.52421   0.00000  Uiso   1.00
O360   O     0.34591   0.46247   0.57617   0.00000  Uiso   1.00
O361   O     0.62289   0.06652   0.27240   0.00000  Uiso   1.00
O362   O     0.23508   0.82927   0.59793   0.00000  Uiso   1.00
N363   N     0.40638   0.35774   0.57404   0.00000  Uiso   1.00
N364   N     0.60376   0.07560   0.35756   0.00000  Uiso   1.00
N365   N     0.32742   0.90652   0.58952   0.00000  Uiso   1.00
N366   N     0.31724   0.37000   0.52432   0.00000  Uiso   1.00
N367   N     0.51462   0.08786   0.30784   0.00000  Uiso   1.00
N368   N     0.23828   0.91878   0.53981   0.00000  Uiso   1.00
C369   C     0.88778   0.04633   0.76144   0.00000  Uiso   1.00
C370   C     0.81712   0.08115   0.76655   0.00000  Uiso   1.00
C371   C     0.76454   0.06077   0.79853   0.00000  Uiso   1.00
C372   C     0.70377   0.09939   0.79763   0.00000  Uiso   1.00
C373   C     0.59524   0.14479   0.81038   0.00000  Uiso   1.00
C374   C     0.89487   0.02675   0.70688   0.00000  Uiso   1.00
C375   C     0.90766   0.96063   0.68870   0.00000  Uiso   1.00
C376   C     0.91235   0.95346   0.63758   0.00000  Uiso   1.00
C377   C     0.92458   0.91439   0.55769   0.00000  Uiso   1.00
C378   C     0.94146   0.10291   0.77082   0.00000  Uiso   1.00
C379   C     0.99344   0.10082   0.80638   0.00000  Uiso   1.00
C380   C     0.03737   0.15777   0.80908   0.00000  Uiso   1.00
C381   C     0.12193   0.23696   0.82846   0.00000  Uiso   1.00
C382   C     0.87336   0.15115   0.70297   0.00000  Uiso   1.00
C383   C     0.80929   0.13809   0.73478   0.00000  Uiso   1.00
C384   C     0.74859   0.17675   0.73384   0.00000  Uiso   1.00
C385   C     0.69592   0.15644   0.76582   0.00000  Uiso   1.00
C386   C     0.88704   0.08368   0.67512   0.00000  Uiso   1.00
C387   C     0.89171   0.07661   0.62401   0.00000  Uiso   1.00
C388   C     0.90451   0.01050   0.60576   0.00000  Uiso   1.00
C389   C     0.93363   0.15985   0.73906   0.00000  Uiso   1.00
C390   C     0.97749   0.21680   0.74170   0.00000  Uiso   1.00
C391   C     0.02953   0.21481   0.77726   0.00000  Uiso   1.00
H392   H     0.89387   0.00199   0.78616   0.00000  Uiso   1.00
H393   H     0.77061   0.01670   0.82310   0.00000  Uiso   1.00
H394   H     0.91373   0.91658   0.71329   0.00000  Uiso   1.00
H395   H     0.99949   0.05675   0.83095   0.00000  Uiso   1.00
H396   H     0.63050   0.05810   0.85003   0.00000  Uiso   1.00
H397   H     0.93228   0.84699   0.61849   0.00000  Uiso   1.00
H398   H     0.11313   0.14257   0.86661   0.00000  Uiso   1.00
H399   H     0.86726   0.19548   0.67824   0.00000  Uiso   1.00
H400   H     0.74254   0.22081   0.70926   0.00000  Uiso   1.00
H401   H     0.88566   0.12068   0.59945   0.00000  Uiso   1.00
H402   H     0.97141   0.26086   0.71711   0.00000  Uiso   1.00
H403   H     0.60771   0.22376   0.75763   0.00000  Uiso   1.00
H404   H     0.90950   0.01264   0.52609   0.00000  Uiso   1.00
H405   H     0.09034   0.30823   0.77421   0.00000  Uiso   1.00
O406   O     0.53753   0.15409   0.82617   0.00000  Uiso   1.00
O407   O     0.93348   0.87711   0.52240   0.00000  Uiso   1.00
O408   O     0.17073   0.26492   0.84793   0.00000  Uiso   1.00
N409   N     0.64226   0.09362   0.82404   0.00000  Uiso   1.00
N410   N     0.92440   0.89624   0.60756   0.00000  Uiso   1.00
N411   N     0.09348   0.17258   0.83952   0.00000  Uiso   1.00
N412   N     0.63000   0.18276   0.77432   0.00000  Uiso   1.00
N413   N     0.91214   0.98538   0.55784   0.00000  Uiso   1.00
N414   N     0.08122   0.26172   0.78981   0.00000  Uiso   1.00
C415   C     0.38778   0.54633   0.26144   0.00000  Uiso   1.00
C416   C     0.31712   0.58115   0.26655   0.00000  Uiso   1.00
C417   C     0.26454   0.56077   0.29853   0.00000  Uiso   1.00
C418   C     0.20377   0.59939   0.29763   0.00000  Uiso   1.00
C419   C     0.09524   0.64479   0.31038   0.00000  Uiso   1.00
C420   C     0.39487   0.52675   0.20688   0.00000  Uiso   1.00
C421   C     0.40766   0.46063   0.18870   0.00000  Uiso   1.00
C422   C     0.41235   0.45346   0.13758   0.00000  Uiso   1.00
C423   C     0.42458   0.41439   0.05769   0.00000  Uiso   1.00
C424   C     0.44146   0.60291   0.27082   0.00000  Uiso   1.00
C425   C     0.49344   0.60082   0.30638   0.00000  Uiso   1.00
C426   C     0.53737   0.65777   0.30908   0.00000  Uiso   1.00
C427   C     0.62193   0.73696   0.32846   0.00000  Uiso   1.00
C428   C     0.37336   0.65115   0.20297   0.00000  Uiso   1.00
C429   C     0.30929   0.63809   0.23478   0.00000  Uiso   1.00
C430   C     0.24859   0.67675   0.23384   0.00000  Uiso   1.00
C431   C     0.19592   0.65644   0.26582   0.00000  Uiso   1.00
C432   C     0.38704   0.58368   0.17512   0.00000  Uiso   1.00
C433   C     0.39171   0.57661   0.12401   0.00000  Uiso   1.00
C434   C     0.40451   0.51050   0.10576   0.00000  Uiso   1.00
C435   C     0.43363   0.65985   0.23906   0.00000  Uiso   1.00
C436   C     0.47749   0.71680   0.24170   0.00000  Uiso   1.00
C437   C     0.52953   0.71481   0.27726   0.00000  Uiso   1.00
H438   H     0.39387   0.50199   0.28616   0.00000  Uiso   1.00
H439   H     0.27061   0.51670   0.32310   0.00000  Uiso   1.00
H440   H     0.41373   0.41658   0.21329   0.00000  Uiso   1.00
H441   H     0.49949   0.55675   0.33095   0.00000  Uiso   1.00
H442   H     0.13050   0.55810   0.35003   0.00000  Uiso   1.00
H443   H     0.43228   0.34699   0.11849   0.00000  Uiso   1.00
H444   H     0.61313   0.64257   0.36661   0.00000  Uiso   1.00
H445   H     0.36726   0.69548   0.17824   0.00000  Uiso   1.00
H446   H     0.24254   0.72081   0.20926   0.00000  Uiso   1.00
H447   H     0.38566   0.62068   0.09945   0.00000  Uiso   1.00
H448   H     0.47141   0.76086   0.21711   0.00000  Uiso   1.00
H449   H     0.10771   0.72376   0.25763   0.00000  Uiso   1.00
H450   H     0.40950   0.51264   0.02609   0.00000  Uiso   1.00
H451   H     0.59034   0.80823   0.27421   0.00000  Uiso   1.00
O452   O     0.03753   0.65409   0.32617   0.00000  Uiso   1.00
O453   O     0.43348   0.37711   0.02240   0.00000  Uiso   1.00
O454   O     0.67073   0.76492   0.34793   0.00000  Uiso   1.00
N455   N     0.14226   0.59362   0.32404   0.00000  Uiso   1.00
N456   N     0.42440   0.39624   0.10756   0.00000  Uiso   1.00
N457   N     0.59348   0.67258   0.33952   0.00000  Uiso   1.00
N458   N     0.13000   0.68276   0.27432   0.00000  Uiso   1.00
N459   N     0.41214   0.48538   0.05784   0.00000  Uiso   1.00
N460   N     0.58122   0.76172   0.28981   0.00000  Uiso   1.00
C461   C     0.11222   0.95367   0.76144   0.00000  Uiso   1.00
C462   C     0.18288   0.91885   0.76655   0.00000  Uiso   1.00
C463   C     0.23546   0.93923   0.79853   0.00000  Uiso   1.00
C464   C     0.29623   0.90061   0.79763   0.00000  Uiso   1.00
C465   C     0.40476   0.85521   0.81038   0.00000  Uiso   1.00
C466   C     0.10513   0.97325   0.70688   0.00000  Uiso   1.00
C467   C     0.09234   0.03937   0.68870   0.00000  Uiso   1.00
C468   C     0.08765   0.04654   0.63758   0.00000  Uiso   1.00
C469   C     0.07542   0.08561   0.55769   0.00000  Uiso   1.00
C470   C     0.05854   0.89709   0.77082   0.00000  Uiso   1.00
C471   C     0.00656   0.89918   0.80638   0.00000  Uiso   1.00
C472   C     0.96263   0.84223   0.80908   0.00000  Uiso   1.00
C473   C     0.87807   0.76304   0.82846   0.00000  Uiso   1.00
C474   C     0.12664   0.84885   0.70297   0.00000  Uiso   1.00
C475   C     0.19071   0.86191   0.73478   0.00000  Uiso   1.00
C476   C     0.25141   0.82325   0.73384   0.00000  Uiso   1.00
C477   C     0.30408   0.84356   0.76582   0.00000  Uiso   1.00
C478   C     0.11296   0.91632   0.67512   0.00000  Uiso   1.00
C479   C     0.10829   0.92339   0.62401   0.00000  Uiso   1.00
C480   C     0.09549   0.98950   0.60576   0.00000  Uiso   1.00
C481   C     0.06637   0.84015   0.73906   0.00000  Uiso   1.00
C482   C     0.02251   0.78320   0.74170   0.00000  Uiso   1.00
C483   C     0.97047   0.78519   0.77726   0.00000  Uiso   1.00
H484   H     0.10613   0.99801   0.78616   0.00000  Uiso   1.00
H485   H     0.22939   0.98330   0.82310   0.00000  Uiso   1.00
H486   H     0.08627   0.08342   0.71329   0.00000  Uiso   1.00
H487   H     0.00051   0.94325   0.83095   0.00000  Uiso   1.00
H488   H     0.36950   0.94190   0.85003   0.00000  Uiso   1.00
H489   H     0.06772   0.15301   0.61849   0.00000  Uiso   1.00
H490   H     0.88687   0.85743   0.86661   0.00000  Uiso   1.00
H491   H     0.13274   0.80452   0.67824   0.00000  Uiso   1.00
H492   H     0.25746   0.77919   0.70926   0.00000  Uiso   1.00
H493   H     0.11434   0.87932   0.59945   0.00000  Uiso   1.00
H494   H     0.02859   0.73914   0.71711   0.00000  Uiso   1.00
H495   H     0.39229   0.77624   0.75763   0.00000  Uiso   1.00
H496   H     0.09050   0.98736   0.52609   0.00000  Uiso   1.00
H497   H     0.90966   0.69177   0.77421   0.00000  Uiso   1.00
O498   O     0.46247   0.84591   0.82617   0.00000  Uiso   1.00
O499   O     0.06652   0.12289   0.52240   0.00000  Uiso   1.00
O500   O     0.82927   0.73508   0.84793   0.00000  Uiso   1.00
N501   N     0.35774   0.90638   0.82404   0.00000  Uiso   1.00
N502   N     0.07560   0.10376   0.60756   0.00000  Uiso   1.00
N503   N     0.90652   0.82742   0.83952   0.00000  Uiso   1.00
N504   N     0.37000   0.81724   0.77432   0.00000  Uiso   1.00
N505   N     0.08786   0.01462   0.55784   0.00000  Uiso   1.00
N506   N     0.91878   0.73828   0.78981   0.00000  Uiso   1.00
C507   C     0.61222   0.45367   0.26144   0.00000  Uiso   1.00
C508   C     0.68288   0.41885   0.26655   0.00000  Uiso   1.00
C509   C     0.73546   0.43923   0.29853   0.00000  Uiso   1.00
C510   C     0.79623   0.40061   0.29763   0.00000  Uiso   1.00
C511   C     0.90476   0.35521   0.31038   0.00000  Uiso   1.00
C512   C     0.60513   0.47325   0.20688   0.00000  Uiso   1.00
C513   C     0.59234   0.53937   0.18870   0.00000  Uiso   1.00
C514   C     0.58765   0.54654   0.13758   0.00000  Uiso   1.00
C515   C     0.57542   0.58561   0.05769   0.00000  Uiso   1.00
C516   C     0.55854   0.39709   0.27082   0.00000  Uiso   1.00
C517   C     0.50656   0.39918   0.30638   0.00000  Uiso   1.00
C518   C     0.46263   0.34223   0.30908   0.00000  Uiso   1.00
C519   C     0.37807   0.26304   0.32846   0.00000  Uiso   1.00
C520   C     0.62664   0.34885   0.20297   0.00000  Uiso   1.00
C521   C     0.69071   0.36191   0.23478   0.00000  Uiso   1.00
C522   C     0.75141   0.32325   0.23384   0.00000  Uiso   1.00
C523   C     0.80408   0.34356   0.26582   0.00000  Uiso   1.00
C524   C     0.61296   0.41632   0.17512   0.00000  Uiso   1.00
C525   C     0.60829   0.42339   0.12401   0.00000  Uiso   1.00
C526   C     0.59549   0.48950   0.10576   0.00000  Uiso   1.00
C527   C     0.56637   0.34015   0.23906   0.00000  Uiso   1.00
C528   C     0.52251   0.28320   0.24170   0.00000  Uiso   1.00
C529   C     0.47047   0.28519   0.27726   0.00000  Uiso   1.00
H530   H     0.60613   0.49801   0.28616   0.00000  Uiso   1.00
H531   H     0.72939   0.48330   0.32310   0.00000  Uiso   1.00
H532   H     0.58627   0.58342   0.21329   0.00000  Uiso   1.00
H533   H     0.50051   0.44325   0.33095   0.00000  Uiso   1.00
H534   H     0.86950   0.44190   0.35003   0.00000  Uiso   1.00
H535   H     0.56772   0.65301   0.11849   0.00000  Uiso   1.00
H536   H     0.38687   0.35743   0.36661   0.00000  Uiso   1.00
H537   H     0.63274   0.30452   0.17824   0.00000  Uiso   1.00
H538   H     0.75746   0.27919   0.20926   0.00000  Uiso   1.00
H539   H     0.61434   0.37932   0.09945   0.00000  Uiso   1.00
H540   H     0.52859   0.23914   0.21711   0.00000  Uiso   1.00
H541   H     0.89229   0.27624   0.25763   0.00000  Uiso   1.00
H542   H     0.59050   0.48736   0.02609   0.00000  Uiso   1.00
H543   H     0.40966   0.19177   0.27421   0.00000  Uiso   1.00
O544   O     0.96247   0.34591   0.32617   0.00000  Uiso   1.00
O545   O     0.56652   0.62289   0.02240   0.00000  Uiso   1.00
O546   O     0.32927   0.23508   0.34793   0.00000  Uiso   1.00
N547   N     0.85774   0.40638   0.32404   0.00000  Uiso   1.00
N548   N     0.57560   0.60376   0.10756   0.00000  Uiso   1.00
N549   N     0.40652   0.32742   0.33952   0.00000  Uiso   1.00
N550   N     0.87000   0.31724   0.27432   0.00000  Uiso   1.00
N551   N     0.58786   0.51462   0.05784   0.00000  Uiso   1.00
N552   N     0.41878   0.23828   0.28981   0.00000  Uiso   1.00
C553   C     0.45367   0.38778   0.73856   0.00000  Uiso   1.00
C554   C     0.41885   0.31712   0.73345   0.00000  Uiso   1.00
C555   C     0.43923   0.26454   0.70147   0.00000  Uiso   1.00
C556   C     0.40061   0.20377   0.70237   0.00000  Uiso   1.00
C557   C     0.35521   0.09524   0.68962   0.00000  Uiso   1.00
C558   C     0.47325   0.39487   0.79312   0.00000  Uiso   1.00
C559   C     0.53937   0.40766   0.81130   0.00000  Uiso   1.00
C560   C     0.54654   0.41235   0.86242   0.00000  Uiso   1.00
C561   C     0.58561   0.42458   0.94231   0.00000  Uiso   1.00
C562   C     0.39709   0.44146   0.72918   0.00000  Uiso   1.00
C563   C     0.39918   0.49344   0.69362   0.00000  Uiso   1.00
C564   C     0.34223   0.53737   0.69092   0.00000  Uiso   1.00
C565   C     0.26304   0.62193   0.67154   0.00000  Uiso   1.00
C566   C     0.34885   0.37336   0.79703   0.00000  Uiso   1.00
C567   C     0.36191   0.30929   0.76522   0.00000  Uiso   1.00
C568   C     0.32325   0.24859   0.76616   0.00000  Uiso   1.00
C569   C     0.34356   0.19592   0.73418   0.00000  Uiso   1.00
C570   C     0.41632   0.38704   0.82488   0.00000  Uiso   1.00
C571   C     0.42339   0.39171   0.87599   0.00000  Uiso   1.00
C572   C     0.48950   0.40451   0.89424   0.00000  Uiso   1.00
C573   C     0.34015   0.43363   0.76094   0.00000  Uiso   1.00
C574   C     0.28320   0.47749   0.75830   0.00000  Uiso   1.00
C575   C     0.28519   0.52953   0.72274   0.00000  Uiso   1.00
H576   H     0.49801   0.39387   0.71384   0.00000  Uiso   1.00
H577   H     0.48330   0.27061   0.67690   0.00000  Uiso   1.00
H578   H     0.58342   0.41373   0.78671   0.00000  Uiso   1.00
H579   H     0.44325   0.49949   0.66905   0.00000  Uiso   1.00
H580   H     0.44190   0.13050   0.64997   0.00000  Uiso   1.00
H581   H     0.65301   0.43228   0.88151   0.00000  Uiso   1.00
H582   H     0.35743   0.61313   0.63339   0.00000  Uiso   1.00
H583   H     0.30452   0.36726   0.82176   0.00000  Uiso   1.00
H584   H     0.27919   0.24254   0.79074   0.00000  Uiso   1.00
H585   H     0.37932   0.38566   0.90055   0.00000  Uiso   1.00
H586   H     0.23914   0.47141   0.78289   0.00000  Uiso   1.00
H587   H     0.27624   0.10771   0.74237   0.00000  Uiso   1.00
H588   H     0.48736   0.40950   0.97391   0.00000  Uiso   1.00
H589   H     0.19177   0.59034   0.72579   0.00000  Uiso   1.00
O590   O     0.34591   0.03753   0.67383   0.00000  Uiso   1.00
O591   O     0.62289   0.43348   0.97760   0.00000  Uiso   1.00
O592   O     0.23508   0.67073   0.65207   0.00000  Uiso   1.00
N593   N     0.40638   0.14226   0.67596   0.00000  Uiso   1.00
N594   N     0.60376   0.42440   0.89244   0.00000  Uiso   1.00
N595   N     0.32742   0.59348   0.66048   0.00000  Uiso   1.00
N596   N     0.31724   0.13000   0.72568   0.00000  Uiso   1.00
N597   N     0.51462   0.41214   0.94216   0.00000  Uiso   1.00
N598   N     0.23828   0.58122   0.71019   0.00000  Uiso   1.00
C599   C     0.95367   0.88778   0.23856   0.00000  Uiso   1.00
C600   C     0.91885   0.81712   0.23345   0.00000  Uiso   1.00
C601   C     0.93923   0.76454   0.20147   0.00000  Uiso   1.00
C602   C     0.90061   0.70377   0.20237   0.00000  Uiso   1.00
C603   C     0.85521   0.59524   0.18962   0.00000  Uiso   1.00
C604   C     0.97325   0.89487   0.29312   0.00000  Uiso   1.00
C605   C     0.03937   0.90766   0.31130   0.00000  Uiso   1.00
C606   C     0.04654   0.91235   0.36242   0.00000  Uiso   1.00
C607   C     0.08561   0.92458   0.44231   0.00000  Uiso   1.00
C608   C     0.89709   0.94146   0.22918   0.00000  Uiso   1.00
C609   C     0.89918   0.99344   0.19362   0.00000  Uiso   1.00
C610   C     0.84223   0.03737   0.19092   0.00000  Uiso   1.00
C611   C     0.76304   0.12193   0.17154   0.00000  Uiso   1.00
C612   C     0.84885   0.87336   0.29703   0.00000  Uiso   1.00
C613   C     0.86191   0.80929   0.26522   0.00000  Uiso   1.00
C614   C     0.82325   0.74859   0.26616   0.00000  Uiso   1.00
C615   C     0.84356   0.69592   0.23418   0.00000  Uiso   1.00
C616   C     0.91632   0.88704   0.32488   0.00000  Uiso   1.00
C617   C     0.92339   0.89171   0.37599   0.00000  Uiso   1.00
C618   C     0.98950   0.90451   0.39424   0.00000  Uiso   1.00
C619   C     0.84015   0.93363   0.26094   0.00000  Uiso   1.00
C620   C     0.78320   0.97749   0.25830   0.00000  Uiso   1.00
C621   C     0.78519   0.02953   0.22274   0.00000  Uiso   1.00
H622   H     0.99801   0.89387   0.21384   0.00000  Uiso   1.00
H623   H     0.98330   0.77061   0.17690   0.00000  Uiso   1.00
H624   H     0.08342   0.91373   0.28671   0.00000  Uiso   1.00
H625   H     0.94325   0.99949   0.16905   0.00000  Uiso   1.00
H626   H     0.94190   0.63050   0.14997   0.00000  Uiso   1.00
H627   H     0.15301   0.93228   0.38151   0.00000  Uiso   1.00
H628   H     0.85743   0.11313   0.13339   0.00000  Uiso   1.00
H629   H     0.80452   0.86726   0.32176   0.00000  Uiso   1.00
H630   H     0.77919   0.74254   0.29074   0.00000  Uiso   1.00
H631   H     0.87932   0.88566   0.40055   0.00000  Uiso   1.00
H632   H     0.73914   0.97141   0.28289   0.00000  Uiso   1.00
H633   H     0.77624   0.60771   0.24237   0.00000  Uiso   1.00
H634   H     0.98736   0.90950   0.47391   0.00000  Uiso   1.00
H635   H     0.69177   0.09034   0.22579   0.00000  Uiso   1.00
O636   O     0.84591   0.53753   0.17383   0.00000  Uiso   1.00
O637   O     0.12289   0.93348   0.47760   0.00000  Uiso   1.00
O638   O     0.73508   0.17073   0.15207   0.00000  Uiso   1.00
N639   N     0.90638   0.64226   0.17596   0.00000  Uiso   1.00
N640   N     0.10376   0.92440   0.39244   0.00000  Uiso   1.00
N641   N     0.82742   0.09348   0.16048   0.00000  Uiso   1.00
N642   N     0.81724   0.63000   0.22568   0.00000  Uiso   1.00
N643   N     0.01462   0.91214   0.44216   0.00000  Uiso   1.00
N644   N     0.73828   0.08122   0.21019   0.00000  Uiso   1.00
C645   C     0.54633   0.61222   0.73856   0.00000  Uiso   1.00
C646   C     0.58115   0.68288   0.73345   0.00000  Uiso   1.00
C647   C     0.56077   0.73546   0.70147   0.00000  Uiso   1.00
C648   C     0.59939   0.79623   0.70237   0.00000  Uiso   1.00
C649   C     0.64479   0.90476   0.68962   0.00000  Uiso   1.00
C650   C     0.52675   0.60513   0.79312   0.00000  Uiso   1.00
C651   C     0.46063   0.59234   0.81130   0.00000  Uiso   1.00
C652   C     0.45346   0.58765   0.86242   0.00000  Uiso   1.00
C653   C     0.41439   0.57542   0.94231   0.00000  Uiso   1.00
C654   C     0.60291   0.55854   0.72918   0.00000  Uiso   1.00
C655   C     0.60082   0.50656   0.69362   0.00000  Uiso   1.00
C656   C     0.65777   0.46263   0.69092   0.00000  Uiso   1.00
C657   C     0.73696   0.37807   0.67154   0.00000  Uiso   1.00
C658   C     0.65115   0.62664   0.79703   0.00000  Uiso   1.00
C659   C     0.63809   0.69071   0.76522   0.00000  Uiso   1.00
C660   C     0.67675   0.75141   0.76616   0.00000  Uiso   1.00
C661   C     0.65644   0.80408   0.73418   0.00000  Uiso   1.00
C662   C     0.58368   0.61296   0.82488   0.00000  Uiso   1.00
C663   C     0.57661   0.60829   0.87599   0.00000  Uiso   1.00
C664   C     0.51050   0.59549   0.89424   0.00000  Uiso   1.00
C665   C     0.65985   0.56637   0.76094   0.00000  Uiso   1.00
C666   C     0.71680   0.52251   0.75830   0.00000  Uiso   1.00
C667   C     0.71481   0.47047   0.72274   0.00000  Uiso   1.00
H668   H     0.50199   0.60613   0.71384   0.00000  Uiso   1.00
H669   H     0.51670   0.72939   0.67690   0.00000  Uiso   1.00
H670   H     0.41658   0.58627   0.78671   0.00000  Uiso   1.00
H671   H     0.55675   0.50051   0.66905   0.00000  Uiso   1.00
H672   H     0.55810   0.86950   0.64997   0.00000  Uiso   1.00
H673   H     0.34699   0.56772   0.88151   0.00000  Uiso   1.00
H674   H     0.64257   0.38687   0.63339   0.00000  Uiso   1.00
H675   H     0.69548   0.63274   0.82176   0.00000  Uiso   1.00
H676   H     0.72081   0.75746   0.79074   0.00000  Uiso   1.00
H677   H     0.62068   0.61434   0.90055   0.00000  Uiso   1.00
H678   H     0.76086   0.52859   0.78289   0.00000  Uiso   1.00
H679   H     0.72376   0.89229   0.74237   0.00000  Uiso   1.00
H680   H     0.51264   0.59050   0.97391   0.00000  Uiso   1.00
H681   H     0.80823   0.40966   0.72579   0.00000  Uiso   1.00
O682   O     0.65409   0.96247   0.67383   0.00000  Uiso   1.00
O683   O     0.37711   0.56652   0.97760   0.00000  Uiso   1.00
O684   O     0.76492   0.32927   0.65207   0.00000  Uiso   1.00
N685   N     0.59362   0.85774   0.67596   0.00000  Uiso   1.00
N686   N     0.39624   0.57560   0.89244   0.00000  Uiso   1.00
N687   N     0.67258   0.40652   0.66048   0.00000  Uiso   1.00
N688   N     0.68276   0.87000   0.72568   0.00000  Uiso   1.00
N689   N     0.48538   0.58786   0.94216   0.00000  Uiso   1.00
N690   N     0.76172   0.41878   0.71019   0.00000  Uiso   1.00
C691   C     0.04633   0.11222   0.23856   0.00000  Uiso   1.00
C692   C     0.08115   0.18288   0.23345   0.00000  Uiso   1.00
C693   C     0.06077   0.23546   0.20147   0.00000  Uiso   1.00
C694   C     0.09939   0.29623   0.20237   0.00000  Uiso   1.00
C695   C     0.14479   0.40476   0.18962   0.00000  Uiso   1.00
C696   C     0.02675   0.10513   0.29312   0.00000  Uiso   1.00
C697   C     0.96063   0.09234   0.31130   0.00000  Uiso   1.00
C698   C     0.95346   0.08765   0.36242   0.00000  Uiso   1.00
C699   C     0.91439   0.07542   0.44231   0.00000  Uiso   1.00
C700   C     0.10291   0.05854   0.22918   0.00000  Uiso   1.00
C701   C     0.10082   0.00656   0.19362   0.00000  Uiso   1.00
C702   C     0.15777   0.96263   0.19092   0.00000  Uiso   1.00
C703   C     0.23696   0.87807   0.17154   0.00000  Uiso   1.00
C704   C     0.15115   0.12664   0.29703   0.00000  Uiso   1.00
C705   C     0.13809   0.19071   0.26522   0.00000  Uiso   1.00
C706   C     0.17675   0.25141   0.26616   0.00000  Uiso   1.00
C707   C     0.15644   0.30408   0.23418   0.00000  Uiso   1.00
C708   C     0.08368   0.11296   0.32488   0.00000  Uiso   1.00
C709   C     0.07661   0.10829   0.37599   0.00000  Uiso   1.00
C710   C     0.01050   0.09549   0.39424   0.00000  Uiso   1.00
C711   C     0.15985   0.06637   0.26094   0.00000  Uiso   1.00
C712   C     0.21680   0.02251   0.25830   0.00000  Uiso   1.00
C713   C     0.21481   0.97047   0.22274   0.00000  Uiso   1.00
H714   H     0.00199   0.10613   0.21384   0.00000  Uiso   1.00
H715   H     0.01670   0.22939   0.17690   0.00000  Uiso   1.00
H716   H     0.91658   0.08627   0.28671   0.00000  Uiso   1.00
H717   H     0.05675   0.00051   0.16905   0.00000  Uiso   1.00
H718   H     0.05810   0.36950   0.14997   0.00000  Uiso   1.00
H719   H     0.84699   0.06772   0.38151   0.00000  Uiso   1.00
H720   H     0.14257   0.88687   0.13339   0.00000  Uiso   1.00
H721   H     0.19548   0.13274   0.32176   0.00000  Uiso   1.00
H722   H     0.22081   0.25746   0.29074   0.00000  Uiso   1.00
H723   H     0.12068   0.11434   0.40055   0.00000  Uiso   1.00
H724   H     0.26086   0.02859   0.28289   0.00000  Uiso   1.00
H725   H     0.22376   0.39229   0.24237   0.00000  Uiso   1.00
H726   H     0.01264   0.09050   0.47391   0.00000  Uiso   1.00
H727   H     0.30823   0.90966   0.22579   0.00000  Uiso   1.00
O728   O     0.15409   0.46247   0.17383   0.00000  Uiso   1.00
O729   O     0.87711   0.06652   0.47760   0.00000  Uiso   1.00
O730   O     0.26492   0.82927   0.15207   0.00000  Uiso   1.00
N731   N     0.09362   0.35774   0.17596   0.00000  Uiso   1.00
N732   N     0.89624   0.07560   0.39244   0.00000  Uiso   1.00
N733   N     0.17258   0.90652   0.16048   0.00000  Uiso   1.00
N734   N     0.18276   0.37000   0.22568   0.00000  Uiso   1.00
N735   N     0.98538   0.08786   0.44216   0.00000  Uiso   1.00
N736   N     0.26172   0.91878   0.21019   0.00000  Uiso   1.00
