data_job_01122
_audit_creation_date              2018-12-19
_audit_creation_method            'Materials Studio'
_symmetry_space_group_name_H-M    'P1'
_symmetry_Int_Tables_number       1
_symmetry_cell_setting            triclinic
loop_
_symmetry_equiv_pos_as_xyz
  x,y,z
_cell_length_a                    22.3117
_cell_length_b                    22.3117
_cell_length_c                    27.1661
_cell_angle_alpha                 90.0000
_cell_angle_beta                  90.0000
_cell_angle_gamma                 90.0000
loop_
_atom_site_label
_atom_site_type_symbol
_atom_site_fract_x
_atom_site_fract_y
_atom_site_fract_z
_atom_site_U_iso_or_equiv
_atom_site_adp_type
_atom_site_occupancy
C1     C     0.25377   0.67413   0.88740   0.00000  Uiso   1.00
C2     C     0.19365   0.66386   0.91272   0.00000  Uiso   1.00
C3     C     0.13946   0.65331   0.88918   0.00000  Uiso   1.00
C4     C     0.08952   0.64503   0.91890   0.00000  Uiso   1.00
C5     C     0.99552   0.62877   0.95039   0.00000  Uiso   1.00
C6     C     0.27665   0.73436   0.90615   0.00000  Uiso   1.00
C7     C     0.29226   0.78307   0.87708   0.00000  Uiso   1.00
C8     C     0.31220   0.83413   0.90127   0.00000  Uiso   1.00
C9     C     0.34710   0.92731   0.92257   0.00000  Uiso   1.00
C10    C     0.29628   0.62697   0.90818   0.00000  Uiso   1.00
C11    C     0.32840   0.58541   0.88083   0.00000  Uiso   1.00
C12    C     0.36488   0.54607   0.90673   0.00000  Uiso   1.00
C13    C     0.43025   0.47252   0.93118   0.00000  Uiso   1.00
C14    C     0.26143   0.67819   0.98204   0.00000  Uiso   1.00
C15    C     0.19781   0.66607   0.96412   0.00000  Uiso   1.00
C16    C     0.14794   0.65780   0.99389   0.00000  Uiso   1.00
C17    C     0.09369   0.64723   0.97039   0.00000  Uiso   1.00
C18    C     0.28081   0.73656   0.95755   0.00000  Uiso   1.00
C19    C     0.30073   0.78756   0.98179   0.00000  Uiso   1.00
C20    C     0.31636   0.83635   0.95277   0.00000  Uiso   1.00
C21    C     0.30044   0.62918   0.95959   0.00000  Uiso   1.00
C22    C     0.33687   0.58990   0.98554   0.00000  Uiso   1.00
C23    C     0.36905   0.54828   0.95823   0.00000  Uiso   1.00
H24    H     0.25054   0.67242   0.84738   0.00000  Uiso   1.00
H25    H     0.13626   0.65161   0.84939   0.00000  Uiso   1.00
H26    H     0.28904   0.78135   0.83730   0.00000  Uiso   1.00
H27    H     0.32517   0.58372   0.84105   0.00000  Uiso   1.00
H28    H     0.01139   0.62953   0.87430   0.00000  Uiso   1.00
H29    H     0.33355   0.90309   0.84881   0.00000  Uiso   1.00
H30    H     0.40975   0.48634   0.85670   0.00000  Uiso   1.00
H31    H     0.26467   0.67991   0.02206   0.00000  Uiso   1.00
H32    H     0.15117   0.65951   0.03367   0.00000  Uiso   1.00
H33    H     0.30395   0.78925   0.02157   0.00000  Uiso   1.00
H34    H     0.34008   0.59162   0.02532   0.00000  Uiso   1.00
H35    H     0.02349   0.63594   0.02386   0.00000  Uiso   1.00
H36    H     0.34566   0.90951   0.99837   0.00000  Uiso   1.00
H37    H     0.42185   0.49276   0.00626   0.00000  Uiso   1.00
O38    O     0.94252   0.61920   0.95356   0.00000  Uiso   1.00
O39    O     0.36519   0.97810   0.92011   0.00000  Uiso   1.00
O40    O     0.46516   0.43133   0.93047   0.00000  Uiso   1.00
N41    N     0.02982   0.63383   0.90791   0.00000  Uiso   1.00
N42    N     0.33101   0.88959   0.88407   0.00000  Uiso   1.00
N43    N     0.40227   0.49998   0.89145   0.00000  Uiso   1.00
N44    N     0.03633   0.63728   0.98839   0.00000  Uiso   1.00
N45    N     0.33752   0.89304   0.96455   0.00000  Uiso   1.00
N46    N     0.40878   0.50343   0.97193   0.00000  Uiso   1.00
C47    C     0.75377   0.17413   0.38740   0.00000  Uiso   1.00
C48    C     0.69365   0.16386   0.41272   0.00000  Uiso   1.00
C49    C     0.63946   0.15331   0.38918   0.00000  Uiso   1.00
C50    C     0.58952   0.14503   0.41890   0.00000  Uiso   1.00
C51    C     0.49552   0.12877   0.45039   0.00000  Uiso   1.00
C52    C     0.77665   0.23436   0.40615   0.00000  Uiso   1.00
C53    C     0.79226   0.28307   0.37708   0.00000  Uiso   1.00
C54    C     0.81220   0.33413   0.40127   0.00000  Uiso   1.00
C55    C     0.84710   0.42731   0.42257   0.00000  Uiso   1.00
C56    C     0.79628   0.12697   0.40818   0.00000  Uiso   1.00
C57    C     0.82840   0.08541   0.38083   0.00000  Uiso   1.00
C58    C     0.86488   0.04607   0.40673   0.00000  Uiso   1.00
C59    C     0.93025   0.97252   0.43118   0.00000  Uiso   1.00
C60    C     0.76143   0.17819   0.48204   0.00000  Uiso   1.00
C61    C     0.69781   0.16607   0.46412   0.00000  Uiso   1.00
C62    C     0.64794   0.15780   0.49389   0.00000  Uiso   1.00
C63    C     0.59369   0.14723   0.47039   0.00000  Uiso   1.00
C64    C     0.78081   0.23656   0.45755   0.00000  Uiso   1.00
C65    C     0.80073   0.28756   0.48179   0.00000  Uiso   1.00
C66    C     0.81636   0.33635   0.45277   0.00000  Uiso   1.00
C67    C     0.80044   0.12918   0.45959   0.00000  Uiso   1.00
C68    C     0.83687   0.08990   0.48554   0.00000  Uiso   1.00
C69    C     0.86905   0.04828   0.45823   0.00000  Uiso   1.00
H70    H     0.75054   0.17242   0.34738   0.00000  Uiso   1.00
H71    H     0.63626   0.15161   0.34939   0.00000  Uiso   1.00
H72    H     0.78904   0.28135   0.33730   0.00000  Uiso   1.00
H73    H     0.82517   0.08372   0.34105   0.00000  Uiso   1.00
H74    H     0.51139   0.12953   0.37430   0.00000  Uiso   1.00
H75    H     0.83355   0.40309   0.34881   0.00000  Uiso   1.00
H76    H     0.90975   0.98634   0.35670   0.00000  Uiso   1.00
H77    H     0.76467   0.17991   0.52206   0.00000  Uiso   1.00
H78    H     0.65117   0.15951   0.53367   0.00000  Uiso   1.00
H79    H     0.80395   0.28925   0.52157   0.00000  Uiso   1.00
H80    H     0.84008   0.09162   0.52532   0.00000  Uiso   1.00
H81    H     0.52349   0.13594   0.52386   0.00000  Uiso   1.00
H82    H     0.84566   0.40951   0.49837   0.00000  Uiso   1.00
H83    H     0.92185   0.99276   0.50626   0.00000  Uiso   1.00
O84    O     0.44252   0.11920   0.45356   0.00000  Uiso   1.00
O85    O     0.86519   0.47810   0.42011   0.00000  Uiso   1.00
O86    O     0.96516   0.93133   0.43047   0.00000  Uiso   1.00
N87    N     0.52982   0.13383   0.40791   0.00000  Uiso   1.00
N88    N     0.83101   0.38959   0.38407   0.00000  Uiso   1.00
N89    N     0.90227   0.99998   0.39145   0.00000  Uiso   1.00
N90    N     0.53633   0.13728   0.48839   0.00000  Uiso   1.00
N91    N     0.83752   0.39304   0.46455   0.00000  Uiso   1.00
N92    N     0.90878   0.00343   0.47193   0.00000  Uiso   1.00
C93    C     0.24623   0.82587   0.38740   0.00000  Uiso   1.00
C94    C     0.30635   0.83614   0.41272   0.00000  Uiso   1.00
C95    C     0.36054   0.84669   0.38918   0.00000  Uiso   1.00
C96    C     0.41048   0.85497   0.41890   0.00000  Uiso   1.00
C97    C     0.50448   0.87123   0.45039   0.00000  Uiso   1.00
C98    C     0.22335   0.76564   0.40615   0.00000  Uiso   1.00
C99    C     0.20774   0.71693   0.37708   0.00000  Uiso   1.00
C100   C     0.18780   0.66587   0.40127   0.00000  Uiso   1.00
C101   C     0.15290   0.57269   0.42257   0.00000  Uiso   1.00
C102   C     0.20372   0.87303   0.40818   0.00000  Uiso   1.00
C103   C     0.17160   0.91459   0.38083   0.00000  Uiso   1.00
C104   C     0.13512   0.95393   0.40673   0.00000  Uiso   1.00
C105   C     0.06975   0.02748   0.43118   0.00000  Uiso   1.00
C106   C     0.23857   0.82181   0.48204   0.00000  Uiso   1.00
C107   C     0.30219   0.83393   0.46412   0.00000  Uiso   1.00
C108   C     0.35206   0.84220   0.49389   0.00000  Uiso   1.00
C109   C     0.40631   0.85277   0.47039   0.00000  Uiso   1.00
C110   C     0.21919   0.76344   0.45755   0.00000  Uiso   1.00
C111   C     0.19927   0.71244   0.48179   0.00000  Uiso   1.00
C112   C     0.18364   0.66365   0.45277   0.00000  Uiso   1.00
C113   C     0.19956   0.87082   0.45959   0.00000  Uiso   1.00
C114   C     0.16313   0.91010   0.48554   0.00000  Uiso   1.00
C115   C     0.13095   0.95172   0.45823   0.00000  Uiso   1.00
H116   H     0.24946   0.82758   0.34738   0.00000  Uiso   1.00
H117   H     0.36374   0.84839   0.34939   0.00000  Uiso   1.00
H118   H     0.21096   0.71865   0.33730   0.00000  Uiso   1.00
H119   H     0.17483   0.91628   0.34105   0.00000  Uiso   1.00
H120   H     0.48861   0.87047   0.37430   0.00000  Uiso   1.00
H121   H     0.16645   0.59691   0.34881   0.00000  Uiso   1.00
H122   H     0.09025   0.01366   0.35670   0.00000  Uiso   1.00
H123   H     0.23533   0.82009   0.52206   0.00000  Uiso   1.00
H124   H     0.34883   0.84049   0.53367   0.00000  Uiso   1.00
H125   H     0.19605   0.71075   0.52157   0.00000  Uiso   1.00
H126   H     0.15992   0.90838   0.52532   0.00000  Uiso   1.00
H127   H     0.47651   0.86406   0.52386   0.00000  Uiso   1.00
H128   H     0.15434   0.59049   0.49837   0.00000  Uiso   1.00
H129   H     0.07815   0.00724   0.50626   0.00000  Uiso   1.00
O130   O     0.55748   0.88080   0.45356   0.00000  Uiso   1.00
O131   O     0.13481   0.52190   0.42011   0.00000  Uiso   1.00
O132   O     0.03484   0.06867   0.43047   0.00000  Uiso   1.00
N133   N     0.47018   0.86617   0.40791   0.00000  Uiso   1.00
N134   N     0.16899   0.61041   0.38407   0.00000  Uiso   1.00
N135   N     0.09773   0.00002   0.39145   0.00000  Uiso   1.00
N136   N     0.46367   0.86272   0.48839   0.00000  Uiso   1.00
N137   N     0.16248   0.60696   0.46455   0.00000  Uiso   1.00
N138   N     0.09122   0.99657   0.47193   0.00000  Uiso   1.00
C139   C     0.74623   0.32587   0.88740   0.00000  Uiso   1.00
C140   C     0.80635   0.33614   0.91272   0.00000  Uiso   1.00
C141   C     0.86054   0.34669   0.88918   0.00000  Uiso   1.00
C142   C     0.91048   0.35497   0.91890   0.00000  Uiso   1.00
C143   C     0.00448   0.37123   0.95039   0.00000  Uiso   1.00
C144   C     0.72335   0.26564   0.90615   0.00000  Uiso   1.00
C145   C     0.70774   0.21693   0.87708   0.00000  Uiso   1.00
C146   C     0.68780   0.16587   0.90127   0.00000  Uiso   1.00
C147   C     0.65290   0.07269   0.92257   0.00000  Uiso   1.00
C148   C     0.70372   0.37303   0.90818   0.00000  Uiso   1.00
C149   C     0.67160   0.41459   0.88083   0.00000  Uiso   1.00
C150   C     0.63512   0.45393   0.90673   0.00000  Uiso   1.00
C151   C     0.56975   0.52748   0.93118   0.00000  Uiso   1.00
C152   C     0.73857   0.32181   0.98204   0.00000  Uiso   1.00
C153   C     0.80219   0.33393   0.96412   0.00000  Uiso   1.00
C154   C     0.85206   0.34220   0.99389   0.00000  Uiso   1.00
C155   C     0.90631   0.35277   0.97039   0.00000  Uiso   1.00
C156   C     0.71919   0.26344   0.95755   0.00000  Uiso   1.00
C157   C     0.69927   0.21244   0.98179   0.00000  Uiso   1.00
C158   C     0.68364   0.16365   0.95277   0.00000  Uiso   1.00
C159   C     0.69956   0.37082   0.95959   0.00000  Uiso   1.00
C160   C     0.66313   0.41010   0.98554   0.00000  Uiso   1.00
C161   C     0.63095   0.45172   0.95823   0.00000  Uiso   1.00
H162   H     0.74946   0.32758   0.84738   0.00000  Uiso   1.00
H163   H     0.86374   0.34839   0.84939   0.00000  Uiso   1.00
H164   H     0.71096   0.21865   0.83730   0.00000  Uiso   1.00
H165   H     0.67483   0.41628   0.84105   0.00000  Uiso   1.00
H166   H     0.98861   0.37047   0.87430   0.00000  Uiso   1.00
H167   H     0.66645   0.09691   0.84881   0.00000  Uiso   1.00
H168   H     0.59025   0.51366   0.85670   0.00000  Uiso   1.00
H169   H     0.73533   0.32009   0.02206   0.00000  Uiso   1.00
H170   H     0.84883   0.34049   0.03367   0.00000  Uiso   1.00
H171   H     0.69605   0.21075   0.02157   0.00000  Uiso   1.00
H172   H     0.65992   0.40838   0.02532   0.00000  Uiso   1.00
H173   H     0.97651   0.36406   0.02386   0.00000  Uiso   1.00
H174   H     0.65434   0.09049   0.99837   0.00000  Uiso   1.00
H175   H     0.57815   0.50724   0.00626   0.00000  Uiso   1.00
O176   O     0.05748   0.38080   0.95356   0.00000  Uiso   1.00
O177   O     0.63481   0.02190   0.92011   0.00000  Uiso   1.00
O178   O     0.53484   0.56867   0.93047   0.00000  Uiso   1.00
N179   N     0.97018   0.36617   0.90791   0.00000  Uiso   1.00
N180   N     0.66899   0.11041   0.88407   0.00000  Uiso   1.00
N181   N     0.59773   0.50002   0.89145   0.00000  Uiso   1.00
N182   N     0.96367   0.36272   0.98839   0.00000  Uiso   1.00
N183   N     0.66248   0.10696   0.96455   0.00000  Uiso   1.00
N184   N     0.59122   0.49657   0.97193   0.00000  Uiso   1.00
C185   C     0.32587   0.75377   0.13740   0.00000  Uiso   1.00
C186   C     0.33614   0.69365   0.16272   0.00000  Uiso   1.00
C187   C     0.34669   0.63946   0.13918   0.00000  Uiso   1.00
C188   C     0.35497   0.58952   0.16890   0.00000  Uiso   1.00
C189   C     0.37123   0.49552   0.20039   0.00000  Uiso   1.00
C190   C     0.26564   0.77665   0.15615   0.00000  Uiso   1.00
C191   C     0.21693   0.79226   0.12708   0.00000  Uiso   1.00
C192   C     0.16587   0.81220   0.15127   0.00000  Uiso   1.00
C193   C     0.07269   0.84710   0.17257   0.00000  Uiso   1.00
C194   C     0.37303   0.79628   0.15818   0.00000  Uiso   1.00
C195   C     0.41459   0.82840   0.13083   0.00000  Uiso   1.00
C196   C     0.45393   0.86488   0.15673   0.00000  Uiso   1.00
C197   C     0.52748   0.93025   0.18118   0.00000  Uiso   1.00
C198   C     0.32181   0.76143   0.23204   0.00000  Uiso   1.00
C199   C     0.33393   0.69781   0.21412   0.00000  Uiso   1.00
C200   C     0.34220   0.64794   0.24389   0.00000  Uiso   1.00
C201   C     0.35277   0.59369   0.22039   0.00000  Uiso   1.00
C202   C     0.26344   0.78081   0.20755   0.00000  Uiso   1.00
C203   C     0.21244   0.80073   0.23179   0.00000  Uiso   1.00
C204   C     0.16365   0.81636   0.20277   0.00000  Uiso   1.00
C205   C     0.37082   0.80044   0.20959   0.00000  Uiso   1.00
C206   C     0.41010   0.83687   0.23554   0.00000  Uiso   1.00
C207   C     0.45172   0.86905   0.20823   0.00000  Uiso   1.00
H208   H     0.32758   0.75054   0.09738   0.00000  Uiso   1.00
H209   H     0.34839   0.63626   0.09939   0.00000  Uiso   1.00
H210   H     0.21865   0.78904   0.08730   0.00000  Uiso   1.00
H211   H     0.41628   0.82517   0.09105   0.00000  Uiso   1.00
H212   H     0.37047   0.51139   0.12430   0.00000  Uiso   1.00
H213   H     0.09691   0.83355   0.09881   0.00000  Uiso   1.00
H214   H     0.51366   0.90975   0.10670   0.00000  Uiso   1.00
H215   H     0.32009   0.76467   0.27206   0.00000  Uiso   1.00
H216   H     0.34049   0.65117   0.28367   0.00000  Uiso   1.00
H217   H     0.21075   0.80395   0.27157   0.00000  Uiso   1.00
H218   H     0.40838   0.84008   0.27532   0.00000  Uiso   1.00
H219   H     0.36406   0.52349   0.27386   0.00000  Uiso   1.00
H220   H     0.09049   0.84566   0.24837   0.00000  Uiso   1.00
H221   H     0.50724   0.92185   0.25626   0.00000  Uiso   1.00
O222   O     0.38080   0.44252   0.20356   0.00000  Uiso   1.00
O223   O     0.02190   0.86519   0.17011   0.00000  Uiso   1.00
O224   O     0.56867   0.96516   0.18047   0.00000  Uiso   1.00
N225   N     0.36617   0.52982   0.15791   0.00000  Uiso   1.00
N226   N     0.11041   0.83101   0.13407   0.00000  Uiso   1.00
N227   N     0.50002   0.90227   0.14145   0.00000  Uiso   1.00
N228   N     0.36272   0.53633   0.23839   0.00000  Uiso   1.00
N229   N     0.10696   0.83752   0.21455   0.00000  Uiso   1.00
N230   N     0.49657   0.90878   0.22193   0.00000  Uiso   1.00
C231   C     0.82587   0.25377   0.63740   0.00000  Uiso   1.00
C232   C     0.83614   0.19365   0.66272   0.00000  Uiso   1.00
C233   C     0.84669   0.13946   0.63918   0.00000  Uiso   1.00
C234   C     0.85497   0.08952   0.66890   0.00000  Uiso   1.00
C235   C     0.87123   0.99552   0.70039   0.00000  Uiso   1.00
C236   C     0.76564   0.27665   0.65615   0.00000  Uiso   1.00
C237   C     0.71693   0.29226   0.62708   0.00000  Uiso   1.00
C238   C     0.66587   0.31220   0.65127   0.00000  Uiso   1.00
C239   C     0.57269   0.34710   0.67257   0.00000  Uiso   1.00
C240   C     0.87303   0.29628   0.65818   0.00000  Uiso   1.00
C241   C     0.91459   0.32840   0.63083   0.00000  Uiso   1.00
C242   C     0.95393   0.36488   0.65673   0.00000  Uiso   1.00
C243   C     0.02748   0.43025   0.68118   0.00000  Uiso   1.00
C244   C     0.82181   0.26143   0.73204   0.00000  Uiso   1.00
C245   C     0.83393   0.19781   0.71412   0.00000  Uiso   1.00
C246   C     0.84220   0.14794   0.74389   0.00000  Uiso   1.00
C247   C     0.85277   0.09369   0.72039   0.00000  Uiso   1.00
C248   C     0.76344   0.28081   0.70755   0.00000  Uiso   1.00
C249   C     0.71244   0.30073   0.73179   0.00000  Uiso   1.00
C250   C     0.66365   0.31636   0.70277   0.00000  Uiso   1.00
C251   C     0.87082   0.30044   0.70959   0.00000  Uiso   1.00
C252   C     0.91010   0.33687   0.73554   0.00000  Uiso   1.00
C253   C     0.95172   0.36905   0.70823   0.00000  Uiso   1.00
H254   H     0.82758   0.25054   0.59738   0.00000  Uiso   1.00
H255   H     0.84839   0.13626   0.59939   0.00000  Uiso   1.00
H256   H     0.71865   0.28904   0.58730   0.00000  Uiso   1.00
H257   H     0.91628   0.32517   0.59105   0.00000  Uiso   1.00
H258   H     0.87047   0.01139   0.62430   0.00000  Uiso   1.00
H259   H     0.59691   0.33355   0.59881   0.00000  Uiso   1.00
H260   H     0.01366   0.40975   0.60670   0.00000  Uiso   1.00
H261   H     0.82009   0.26467   0.77206   0.00000  Uiso   1.00
H262   H     0.84049   0.15117   0.78367   0.00000  Uiso   1.00
H263   H     0.71075   0.30395   0.77157   0.00000  Uiso   1.00
H264   H     0.90838   0.34008   0.77532   0.00000  Uiso   1.00
H265   H     0.86406   0.02349   0.77386   0.00000  Uiso   1.00
H266   H     0.59049   0.34566   0.74837   0.00000  Uiso   1.00
H267   H     0.00724   0.42185   0.75626   0.00000  Uiso   1.00
O268   O     0.88080   0.94252   0.70356   0.00000  Uiso   1.00
O269   O     0.52190   0.36519   0.67011   0.00000  Uiso   1.00
O270   O     0.06867   0.46516   0.68047   0.00000  Uiso   1.00
N271   N     0.86617   0.02982   0.65791   0.00000  Uiso   1.00
N272   N     0.61041   0.33101   0.63407   0.00000  Uiso   1.00
N273   N     0.00002   0.40227   0.64145   0.00000  Uiso   1.00
N274   N     0.86272   0.03633   0.73839   0.00000  Uiso   1.00
N275   N     0.60696   0.33752   0.71455   0.00000  Uiso   1.00
N276   N     0.99657   0.40878   0.72193   0.00000  Uiso   1.00
C277   C     0.17413   0.74623   0.63740   0.00000  Uiso   1.00
C278   C     0.16386   0.80635   0.66272   0.00000  Uiso   1.00
C279   C     0.15331   0.86054   0.63918   0.00000  Uiso   1.00
C280   C     0.14503   0.91048   0.66890   0.00000  Uiso   1.00
C281   C     0.12877   0.00448   0.70039   0.00000  Uiso   1.00
C282   C     0.23436   0.72335   0.65615   0.00000  Uiso   1.00
C283   C     0.28307   0.70774   0.62708   0.00000  Uiso   1.00
C284   C     0.33413   0.68780   0.65127   0.00000  Uiso   1.00
C285   C     0.42731   0.65290   0.67257   0.00000  Uiso   1.00
C286   C     0.12697   0.70372   0.65818   0.00000  Uiso   1.00
C287   C     0.08541   0.67160   0.63083   0.00000  Uiso   1.00
C288   C     0.04607   0.63512   0.65673   0.00000  Uiso   1.00
C289   C     0.97252   0.56975   0.68118   0.00000  Uiso   1.00
C290   C     0.17819   0.73857   0.73204   0.00000  Uiso   1.00
C291   C     0.16607   0.80219   0.71412   0.00000  Uiso   1.00
C292   C     0.15780   0.85206   0.74389   0.00000  Uiso   1.00
C293   C     0.14723   0.90631   0.72039   0.00000  Uiso   1.00
C294   C     0.23656   0.71919   0.70755   0.00000  Uiso   1.00
C295   C     0.28756   0.69927   0.73179   0.00000  Uiso   1.00
C296   C     0.33635   0.68364   0.70277   0.00000  Uiso   1.00
C297   C     0.12918   0.69956   0.70959   0.00000  Uiso   1.00
C298   C     0.08990   0.66313   0.73554   0.00000  Uiso   1.00
C299   C     0.04828   0.63095   0.70823   0.00000  Uiso   1.00
H300   H     0.17242   0.74946   0.59738   0.00000  Uiso   1.00
H301   H     0.15161   0.86374   0.59939   0.00000  Uiso   1.00
H302   H     0.28135   0.71096   0.58730   0.00000  Uiso   1.00
H303   H     0.08372   0.67483   0.59105   0.00000  Uiso   1.00
H304   H     0.12953   0.98861   0.62430   0.00000  Uiso   1.00
H305   H     0.40309   0.66645   0.59881   0.00000  Uiso   1.00
H306   H     0.98634   0.59025   0.60670   0.00000  Uiso   1.00
H307   H     0.17991   0.73533   0.77206   0.00000  Uiso   1.00
H308   H     0.15951   0.84883   0.78367   0.00000  Uiso   1.00
H309   H     0.28925   0.69605   0.77157   0.00000  Uiso   1.00
H310   H     0.09162   0.65992   0.77532   0.00000  Uiso   1.00
H311   H     0.13594   0.97651   0.77386   0.00000  Uiso   1.00
H312   H     0.40951   0.65434   0.74837   0.00000  Uiso   1.00
H313   H     0.99276   0.57815   0.75626   0.00000  Uiso   1.00
O314   O     0.11920   0.05748   0.70356   0.00000  Uiso   1.00
O315   O     0.47810   0.63481   0.67011   0.00000  Uiso   1.00
O316   O     0.93133   0.53484   0.68047   0.00000  Uiso   1.00
N317   N     0.13383   0.97018   0.65791   0.00000  Uiso   1.00
N318   N     0.38959   0.66899   0.63407   0.00000  Uiso   1.00
N319   N     0.99998   0.59773   0.64145   0.00000  Uiso   1.00
N320   N     0.13728   0.96367   0.73839   0.00000  Uiso   1.00
N321   N     0.39304   0.66248   0.71455   0.00000  Uiso   1.00
N322   N     0.00343   0.59122   0.72193   0.00000  Uiso   1.00
C323   C     0.67413   0.24623   0.13740   0.00000  Uiso   1.00
C324   C     0.66386   0.30635   0.16272   0.00000  Uiso   1.00
C325   C     0.65331   0.36054   0.13918   0.00000  Uiso   1.00
C326   C     0.64503   0.41048   0.16890   0.00000  Uiso   1.00
C327   C     0.62877   0.50448   0.20039   0.00000  Uiso   1.00
C328   C     0.73436   0.22335   0.15615   0.00000  Uiso   1.00
C329   C     0.78307   0.20774   0.12708   0.00000  Uiso   1.00
C330   C     0.83413   0.18780   0.15127   0.00000  Uiso   1.00
C331   C     0.92731   0.15290   0.17257   0.00000  Uiso   1.00
C332   C     0.62697   0.20372   0.15818   0.00000  Uiso   1.00
C333   C     0.58541   0.17160   0.13083   0.00000  Uiso   1.00
C334   C     0.54607   0.13512   0.15673   0.00000  Uiso   1.00
C335   C     0.47252   0.06975   0.18118   0.00000  Uiso   1.00
C336   C     0.67819   0.23857   0.23204   0.00000  Uiso   1.00
C337   C     0.66607   0.30219   0.21412   0.00000  Uiso   1.00
C338   C     0.65780   0.35206   0.24389   0.00000  Uiso   1.00
C339   C     0.64723   0.40631   0.22039   0.00000  Uiso   1.00
C340   C     0.73656   0.21919   0.20755   0.00000  Uiso   1.00
C341   C     0.78756   0.19927   0.23179   0.00000  Uiso   1.00
C342   C     0.83635   0.18364   0.20277   0.00000  Uiso   1.00
C343   C     0.62918   0.19956   0.20959   0.00000  Uiso   1.00
C344   C     0.58990   0.16313   0.23554   0.00000  Uiso   1.00
C345   C     0.54828   0.13095   0.20823   0.00000  Uiso   1.00
H346   H     0.67242   0.24946   0.09738   0.00000  Uiso   1.00
H347   H     0.65161   0.36374   0.09939   0.00000  Uiso   1.00
H348   H     0.78135   0.21096   0.08730   0.00000  Uiso   1.00
H349   H     0.58372   0.17483   0.09105   0.00000  Uiso   1.00
H350   H     0.62953   0.48861   0.12430   0.00000  Uiso   1.00
H351   H     0.90309   0.16645   0.09881   0.00000  Uiso   1.00
H352   H     0.48634   0.09025   0.10670   0.00000  Uiso   1.00
H353   H     0.67991   0.23533   0.27206   0.00000  Uiso   1.00
H354   H     0.65951   0.34883   0.28367   0.00000  Uiso   1.00
H355   H     0.78925   0.19605   0.27157   0.00000  Uiso   1.00
H356   H     0.59162   0.15992   0.27532   0.00000  Uiso   1.00
H357   H     0.63594   0.47651   0.27386   0.00000  Uiso   1.00
H358   H     0.90951   0.15434   0.24837   0.00000  Uiso   1.00
H359   H     0.49276   0.07815   0.25626   0.00000  Uiso   1.00
O360   O     0.61920   0.55748   0.20356   0.00000  Uiso   1.00
O361   O     0.97810   0.13481   0.17011   0.00000  Uiso   1.00
O362   O     0.43133   0.03484   0.18047   0.00000  Uiso   1.00
N363   N     0.63383   0.47018   0.15791   0.00000  Uiso   1.00
N364   N     0.88959   0.16899   0.13407   0.00000  Uiso   1.00
N365   N     0.49998   0.09773   0.14145   0.00000  Uiso   1.00
N366   N     0.63728   0.46367   0.23839   0.00000  Uiso   1.00
N367   N     0.89304   0.16248   0.21455   0.00000  Uiso   1.00
N368   N     0.50343   0.09122   0.22193   0.00000  Uiso   1.00
C369   C     0.74623   0.82587   0.36260   0.00000  Uiso   1.00
C370   C     0.80635   0.83614   0.33728   0.00000  Uiso   1.00
C371   C     0.86054   0.84669   0.36082   0.00000  Uiso   1.00
C372   C     0.91048   0.85497   0.33110   0.00000  Uiso   1.00
C373   C     0.00448   0.87123   0.29961   0.00000  Uiso   1.00
C374   C     0.72335   0.76564   0.34385   0.00000  Uiso   1.00
C375   C     0.70774   0.71693   0.37292   0.00000  Uiso   1.00
C376   C     0.68780   0.66587   0.34873   0.00000  Uiso   1.00
C377   C     0.65290   0.57269   0.32743   0.00000  Uiso   1.00
C378   C     0.70372   0.87303   0.34182   0.00000  Uiso   1.00
C379   C     0.67160   0.91459   0.36917   0.00000  Uiso   1.00
C380   C     0.63512   0.95393   0.34327   0.00000  Uiso   1.00
C381   C     0.56975   0.02748   0.31882   0.00000  Uiso   1.00
C382   C     0.73857   0.82181   0.26796   0.00000  Uiso   1.00
C383   C     0.80219   0.83393   0.28588   0.00000  Uiso   1.00
C384   C     0.85206   0.84220   0.25611   0.00000  Uiso   1.00
C385   C     0.90631   0.85277   0.27961   0.00000  Uiso   1.00
C386   C     0.71919   0.76344   0.29245   0.00000  Uiso   1.00
C387   C     0.69927   0.71244   0.26821   0.00000  Uiso   1.00
C388   C     0.68364   0.66365   0.29723   0.00000  Uiso   1.00
C389   C     0.69956   0.87082   0.29041   0.00000  Uiso   1.00
C390   C     0.66313   0.91010   0.26446   0.00000  Uiso   1.00
C391   C     0.63095   0.95172   0.29177   0.00000  Uiso   1.00
H392   H     0.74946   0.82758   0.40262   0.00000  Uiso   1.00
H393   H     0.86374   0.84839   0.40061   0.00000  Uiso   1.00
H394   H     0.71096   0.71865   0.41270   0.00000  Uiso   1.00
H395   H     0.67483   0.91628   0.40895   0.00000  Uiso   1.00
H396   H     0.98861   0.87047   0.37570   0.00000  Uiso   1.00
H397   H     0.66645   0.59691   0.40119   0.00000  Uiso   1.00
H398   H     0.59025   0.01366   0.39330   0.00000  Uiso   1.00
H399   H     0.73533   0.82009   0.22794   0.00000  Uiso   1.00
H400   H     0.84883   0.84049   0.21633   0.00000  Uiso   1.00
H401   H     0.69605   0.71075   0.22843   0.00000  Uiso   1.00
H402   H     0.65992   0.90838   0.22468   0.00000  Uiso   1.00
H403   H     0.97651   0.86406   0.22614   0.00000  Uiso   1.00
H404   H     0.65434   0.59049   0.25163   0.00000  Uiso   1.00
H405   H     0.57815   0.00724   0.24374   0.00000  Uiso   1.00
O406   O     0.05748   0.88080   0.29644   0.00000  Uiso   1.00
O407   O     0.63481   0.52190   0.32989   0.00000  Uiso   1.00
O408   O     0.53484   0.06867   0.31953   0.00000  Uiso   1.00
N409   N     0.97018   0.86617   0.34209   0.00000  Uiso   1.00
N410   N     0.66899   0.61041   0.36593   0.00000  Uiso   1.00
N411   N     0.59773   0.00002   0.35855   0.00000  Uiso   1.00
N412   N     0.96367   0.86272   0.26161   0.00000  Uiso   1.00
N413   N     0.66248   0.60696   0.28545   0.00000  Uiso   1.00
N414   N     0.59122   0.99657   0.27807   0.00000  Uiso   1.00
C415   C     0.24623   0.32587   0.86260   0.00000  Uiso   1.00
C416   C     0.30635   0.33614   0.83728   0.00000  Uiso   1.00
C417   C     0.36054   0.34669   0.86082   0.00000  Uiso   1.00
C418   C     0.41048   0.35497   0.83110   0.00000  Uiso   1.00
C419   C     0.50448   0.37123   0.79961   0.00000  Uiso   1.00
C420   C     0.22335   0.26564   0.84385   0.00000  Uiso   1.00
C421   C     0.20774   0.21693   0.87292   0.00000  Uiso   1.00
C422   C     0.18780   0.16587   0.84873   0.00000  Uiso   1.00
C423   C     0.15290   0.07269   0.82743   0.00000  Uiso   1.00
C424   C     0.20372   0.37303   0.84182   0.00000  Uiso   1.00
C425   C     0.17160   0.41459   0.86917   0.00000  Uiso   1.00
C426   C     0.13512   0.45393   0.84327   0.00000  Uiso   1.00
C427   C     0.06975   0.52748   0.81882   0.00000  Uiso   1.00
C428   C     0.23857   0.32181   0.76796   0.00000  Uiso   1.00
C429   C     0.30219   0.33393   0.78588   0.00000  Uiso   1.00
C430   C     0.35206   0.34220   0.75611   0.00000  Uiso   1.00
C431   C     0.40631   0.35277   0.77961   0.00000  Uiso   1.00
C432   C     0.21919   0.26344   0.79245   0.00000  Uiso   1.00
C433   C     0.19927   0.21244   0.76821   0.00000  Uiso   1.00
C434   C     0.18364   0.16365   0.79723   0.00000  Uiso   1.00
C435   C     0.19956   0.37082   0.79041   0.00000  Uiso   1.00
C436   C     0.16313   0.41010   0.76446   0.00000  Uiso   1.00
C437   C     0.13095   0.45172   0.79177   0.00000  Uiso   1.00
H438   H     0.24946   0.32758   0.90262   0.00000  Uiso   1.00
H439   H     0.36374   0.34839   0.90061   0.00000  Uiso   1.00
H440   H     0.21096   0.21865   0.91270   0.00000  Uiso   1.00
H441   H     0.17483   0.41628   0.90895   0.00000  Uiso   1.00
H442   H     0.48861   0.37047   0.87570   0.00000  Uiso   1.00
H443   H     0.16645   0.09691   0.90119   0.00000  Uiso   1.00
H444   H     0.09025   0.51366   0.89330   0.00000  Uiso   1.00
H445   H     0.23533   0.32009   0.72794   0.00000  Uiso   1.00
H446   H     0.34883   0.34049   0.71633   0.00000  Uiso   1.00
H447   H     0.19605   0.21075   0.72843   0.00000  Uiso   1.00
H448   H     0.15992   0.40838   0.72468   0.00000  Uiso   1.00
H449   H     0.47651   0.36406   0.72614   0.00000  Uiso   1.00
H450   H     0.15434   0.09049   0.75163   0.00000  Uiso   1.00
H451   H     0.07815   0.50724   0.74374   0.00000  Uiso   1.00
O452   O     0.55748   0.38080   0.79644   0.00000  Uiso   1.00
O453   O     0.13481   0.02190   0.82989   0.00000  Uiso   1.00
O454   O     0.03484   0.56867   0.81953   0.00000  Uiso   1.00
N455   N     0.47018   0.36617   0.84209   0.00000  Uiso   1.00
N456   N     0.16899   0.11041   0.86593   0.00000  Uiso   1.00
N457   N     0.09773   0.50002   0.85855   0.00000  Uiso   1.00
N458   N     0.46367   0.36272   0.76161   0.00000  Uiso   1.00
N459   N     0.16248   0.10696   0.78545   0.00000  Uiso   1.00
N460   N     0.09122   0.49657   0.77807   0.00000  Uiso   1.00
C461   C     0.75377   0.67413   0.86260   0.00000  Uiso   1.00
C462   C     0.69365   0.66386   0.83728   0.00000  Uiso   1.00
C463   C     0.63946   0.65331   0.86082   0.00000  Uiso   1.00
C464   C     0.58952   0.64503   0.83110   0.00000  Uiso   1.00
C465   C     0.49552   0.62877   0.79961   0.00000  Uiso   1.00
C466   C     0.77665   0.73436   0.84385   0.00000  Uiso   1.00
C467   C     0.79226   0.78307   0.87292   0.00000  Uiso   1.00
C468   C     0.81220   0.83413   0.84873   0.00000  Uiso   1.00
C469   C     0.84710   0.92731   0.82743   0.00000  Uiso   1.00
C470   C     0.79628   0.62697   0.84182   0.00000  Uiso   1.00
C471   C     0.82840   0.58541   0.86917   0.00000  Uiso   1.00
C472   C     0.86488   0.54607   0.84327   0.00000  Uiso   1.00
C473   C     0.93025   0.47252   0.81882   0.00000  Uiso   1.00
C474   C     0.76143   0.67819   0.76796   0.00000  Uiso   1.00
C475   C     0.69781   0.66607   0.78588   0.00000  Uiso   1.00
C476   C     0.64794   0.65780   0.75611   0.00000  Uiso   1.00
C477   C     0.59369   0.64723   0.77961   0.00000  Uiso   1.00
C478   C     0.78081   0.73656   0.79245   0.00000  Uiso   1.00
C479   C     0.80073   0.78756   0.76821   0.00000  Uiso   1.00
C480   C     0.81636   0.83635   0.79723   0.00000  Uiso   1.00
C481   C     0.80044   0.62918   0.79041   0.00000  Uiso   1.00
C482   C     0.83687   0.58990   0.76446   0.00000  Uiso   1.00
C483   C     0.86905   0.54828   0.79177   0.00000  Uiso   1.00
H484   H     0.75054   0.67242   0.90262   0.00000  Uiso   1.00
H485   H     0.63626   0.65161   0.90061   0.00000  Uiso   1.00
H486   H     0.78904   0.78135   0.91270   0.00000  Uiso   1.00
H487   H     0.82517   0.58372   0.90895   0.00000  Uiso   1.00
H488   H     0.51139   0.62953   0.87570   0.00000  Uiso   1.00
H489   H     0.83355   0.90309   0.90119   0.00000  Uiso   1.00
H490   H     0.90975   0.48634   0.89330   0.00000  Uiso   1.00
H491   H     0.76467   0.67991   0.72794   0.00000  Uiso   1.00
H492   H     0.65117   0.65951   0.71633   0.00000  Uiso   1.00
H493   H     0.80395   0.78925   0.72843   0.00000  Uiso   1.00
H494   H     0.84008   0.59162   0.72468   0.00000  Uiso   1.00
H495   H     0.52349   0.63594   0.72614   0.00000  Uiso   1.00
H496   H     0.84566   0.90951   0.75163   0.00000  Uiso   1.00
H497   H     0.92185   0.49276   0.74374   0.00000  Uiso   1.00
O498   O     0.44252   0.61920   0.79644   0.00000  Uiso   1.00
O499   O     0.86519   0.97810   0.82989   0.00000  Uiso   1.00
O500   O     0.96516   0.43133   0.81953   0.00000  Uiso   1.00
N501   N     0.52982   0.63383   0.84209   0.00000  Uiso   1.00
N502   N     0.83101   0.88959   0.86593   0.00000  Uiso   1.00
N503   N     0.90227   0.49998   0.85855   0.00000  Uiso   1.00
N504   N     0.53633   0.63728   0.76161   0.00000  Uiso   1.00
N505   N     0.83752   0.89304   0.78545   0.00000  Uiso   1.00
N506   N     0.90878   0.50343   0.77807   0.00000  Uiso   1.00
C507   C     0.25377   0.17413   0.36260   0.00000  Uiso   1.00
C508   C     0.19365   0.16386   0.33728   0.00000  Uiso   1.00
C509   C     0.13946   0.15331   0.36082   0.00000  Uiso   1.00
C510   C     0.08952   0.14503   0.33110   0.00000  Uiso   1.00
C511   C     0.99552   0.12877   0.29961   0.00000  Uiso   1.00
C512   C     0.27665   0.23436   0.34385   0.00000  Uiso   1.00
C513   C     0.29226   0.28307   0.37292   0.00000  Uiso   1.00
C514   C     0.31220   0.33413   0.34873   0.00000  Uiso   1.00
C515   C     0.34710   0.42731   0.32743   0.00000  Uiso   1.00
C516   C     0.29628   0.12697   0.34182   0.00000  Uiso   1.00
C517   C     0.32840   0.08541   0.36917   0.00000  Uiso   1.00
C518   C     0.36488   0.04607   0.34327   0.00000  Uiso   1.00
C519   C     0.43025   0.97252   0.31882   0.00000  Uiso   1.00
C520   C     0.26143   0.17819   0.26796   0.00000  Uiso   1.00
C521   C     0.19781   0.16607   0.28588   0.00000  Uiso   1.00
C522   C     0.14794   0.15780   0.25611   0.00000  Uiso   1.00
C523   C     0.09369   0.14723   0.27961   0.00000  Uiso   1.00
C524   C     0.28081   0.23656   0.29245   0.00000  Uiso   1.00
C525   C     0.30073   0.28756   0.26821   0.00000  Uiso   1.00
C526   C     0.31636   0.33635   0.29723   0.00000  Uiso   1.00
C527   C     0.30044   0.12918   0.29041   0.00000  Uiso   1.00
C528   C     0.33687   0.08990   0.26446   0.00000  Uiso   1.00
C529   C     0.36905   0.04828   0.29177   0.00000  Uiso   1.00
H530   H     0.25054   0.17242   0.40262   0.00000  Uiso   1.00
H531   H     0.13626   0.15161   0.40061   0.00000  Uiso   1.00
H532   H     0.28904   0.28135   0.41270   0.00000  Uiso   1.00
H533   H     0.32517   0.08372   0.40895   0.00000  Uiso   1.00
H534   H     0.01139   0.12953   0.37570   0.00000  Uiso   1.00
H535   H     0.33355   0.40309   0.40119   0.00000  Uiso   1.00
H536   H     0.40975   0.98634   0.39330   0.00000  Uiso   1.00
H537   H     0.26467   0.17991   0.22794   0.00000  Uiso   1.00
H538   H     0.15117   0.15951   0.21633   0.00000  Uiso   1.00
H539   H     0.30395   0.28925   0.22843   0.00000  Uiso   1.00
H540   H     0.34008   0.09162   0.22468   0.00000  Uiso   1.00
H541   H     0.02349   0.13594   0.22614   0.00000  Uiso   1.00
H542   H     0.34566   0.40951   0.25163   0.00000  Uiso   1.00
H543   H     0.42185   0.99276   0.24374   0.00000  Uiso   1.00
O544   O     0.94252   0.11920   0.29644   0.00000  Uiso   1.00
O545   O     0.36519   0.47810   0.32989   0.00000  Uiso   1.00
O546   O     0.46516   0.93133   0.31953   0.00000  Uiso   1.00
N547   N     0.02982   0.13383   0.34209   0.00000  Uiso   1.00
N548   N     0.33101   0.38959   0.36593   0.00000  Uiso   1.00
N549   N     0.40227   0.99998   0.35855   0.00000  Uiso   1.00
N550   N     0.03633   0.13728   0.26161   0.00000  Uiso   1.00
N551   N     0.33752   0.39304   0.28545   0.00000  Uiso   1.00
N552   N     0.40878   0.00343   0.27807   0.00000  Uiso   1.00
C553   C     0.67413   0.74623   0.11260   0.00000  Uiso   1.00
C554   C     0.66386   0.80635   0.08728   0.00000  Uiso   1.00
C555   C     0.65331   0.86054   0.11082   0.00000  Uiso   1.00
C556   C     0.64503   0.91048   0.08110   0.00000  Uiso   1.00
C557   C     0.62877   0.00448   0.04961   0.00000  Uiso   1.00
C558   C     0.73436   0.72335   0.09385   0.00000  Uiso   1.00
C559   C     0.78307   0.70774   0.12292   0.00000  Uiso   1.00
C560   C     0.83413   0.68780   0.09873   0.00000  Uiso   1.00
C561   C     0.92731   0.65290   0.07743   0.00000  Uiso   1.00
C562   C     0.62697   0.70372   0.09182   0.00000  Uiso   1.00
C563   C     0.58541   0.67160   0.11917   0.00000  Uiso   1.00
C564   C     0.54607   0.63512   0.09327   0.00000  Uiso   1.00
C565   C     0.47252   0.56975   0.06882   0.00000  Uiso   1.00
C566   C     0.67819   0.73857   0.01796   0.00000  Uiso   1.00
C567   C     0.66607   0.80219   0.03588   0.00000  Uiso   1.00
C568   C     0.65780   0.85206   0.00611   0.00000  Uiso   1.00
C569   C     0.64723   0.90631   0.02961   0.00000  Uiso   1.00
C570   C     0.73656   0.71919   0.04245   0.00000  Uiso   1.00
C571   C     0.78756   0.69927   0.01821   0.00000  Uiso   1.00
C572   C     0.83635   0.68364   0.04723   0.00000  Uiso   1.00
C573   C     0.62918   0.69956   0.04041   0.00000  Uiso   1.00
C574   C     0.58990   0.66313   0.01446   0.00000  Uiso   1.00
C575   C     0.54828   0.63095   0.04177   0.00000  Uiso   1.00
H576   H     0.67242   0.74946   0.15262   0.00000  Uiso   1.00
H577   H     0.65161   0.86374   0.15061   0.00000  Uiso   1.00
H578   H     0.78135   0.71096   0.16270   0.00000  Uiso   1.00
H579   H     0.58372   0.67483   0.15895   0.00000  Uiso   1.00
H580   H     0.62953   0.98861   0.12570   0.00000  Uiso   1.00
H581   H     0.90309   0.66645   0.15119   0.00000  Uiso   1.00
H582   H     0.48634   0.59025   0.14330   0.00000  Uiso   1.00
H583   H     0.67991   0.73533   0.97794   0.00000  Uiso   1.00
H584   H     0.65951   0.84883   0.96633   0.00000  Uiso   1.00
H585   H     0.78925   0.69605   0.97843   0.00000  Uiso   1.00
H586   H     0.59162   0.65992   0.97468   0.00000  Uiso   1.00
H587   H     0.63594   0.97651   0.97614   0.00000  Uiso   1.00
H588   H     0.90951   0.65434   0.00163   0.00000  Uiso   1.00
H589   H     0.49276   0.57815   0.99374   0.00000  Uiso   1.00
O590   O     0.61920   0.05748   0.04644   0.00000  Uiso   1.00
O591   O     0.97810   0.63481   0.07989   0.00000  Uiso   1.00
O592   O     0.43133   0.53484   0.06953   0.00000  Uiso   1.00
N593   N     0.63383   0.97018   0.09209   0.00000  Uiso   1.00
N594   N     0.88959   0.66899   0.11593   0.00000  Uiso   1.00
N595   N     0.49998   0.59773   0.10855   0.00000  Uiso   1.00
N596   N     0.63728   0.96367   0.01161   0.00000  Uiso   1.00
N597   N     0.89304   0.66248   0.03545   0.00000  Uiso   1.00
N598   N     0.50343   0.59122   0.02807   0.00000  Uiso   1.00
C599   C     0.17413   0.24623   0.61260   0.00000  Uiso   1.00
C600   C     0.16386   0.30635   0.58728   0.00000  Uiso   1.00
C601   C     0.15331   0.36054   0.61082   0.00000  Uiso   1.00
C602   C     0.14503   0.41048   0.58110   0.00000  Uiso   1.00
C603   C     0.12877   0.50448   0.54961   0.00000  Uiso   1.00
C604   C     0.23436   0.22335   0.59385   0.00000  Uiso   1.00
C605   C     0.28307   0.20774   0.62292   0.00000  Uiso   1.00
C606   C     0.33413   0.18780   0.59873   0.00000  Uiso   1.00
C607   C     0.42731   0.15290   0.57743   0.00000  Uiso   1.00
C608   C     0.12697   0.20372   0.59182   0.00000  Uiso   1.00
C609   C     0.08541   0.17160   0.61917   0.00000  Uiso   1.00
C610   C     0.04607   0.13512   0.59327   0.00000  Uiso   1.00
C611   C     0.97252   0.06975   0.56882   0.00000  Uiso   1.00
C612   C     0.17819   0.23857   0.51796   0.00000  Uiso   1.00
C613   C     0.16607   0.30219   0.53588   0.00000  Uiso   1.00
C614   C     0.15780   0.35206   0.50611   0.00000  Uiso   1.00
C615   C     0.14723   0.40631   0.52961   0.00000  Uiso   1.00
C616   C     0.23656   0.21919   0.54245   0.00000  Uiso   1.00
C617   C     0.28756   0.19927   0.51821   0.00000  Uiso   1.00
C618   C     0.33635   0.18364   0.54723   0.00000  Uiso   1.00
C619   C     0.12918   0.19956   0.54041   0.00000  Uiso   1.00
C620   C     0.08990   0.16313   0.51446   0.00000  Uiso   1.00
C621   C     0.04828   0.13095   0.54177   0.00000  Uiso   1.00
H622   H     0.17242   0.24946   0.65262   0.00000  Uiso   1.00
H623   H     0.15161   0.36374   0.65061   0.00000  Uiso   1.00
H624   H     0.28135   0.21096   0.66270   0.00000  Uiso   1.00
H625   H     0.08372   0.17483   0.65895   0.00000  Uiso   1.00
H626   H     0.12953   0.48861   0.62570   0.00000  Uiso   1.00
H627   H     0.40309   0.16645   0.65119   0.00000  Uiso   1.00
H628   H     0.98634   0.09025   0.64330   0.00000  Uiso   1.00
H629   H     0.17991   0.23533   0.47794   0.00000  Uiso   1.00
H630   H     0.15951   0.34883   0.46633   0.00000  Uiso   1.00
H631   H     0.28925   0.19605   0.47843   0.00000  Uiso   1.00
H632   H     0.09162   0.15992   0.47468   0.00000  Uiso   1.00
H633   H     0.13594   0.47651   0.47614   0.00000  Uiso   1.00
H634   H     0.40951   0.15434   0.50163   0.00000  Uiso   1.00
H635   H     0.99276   0.07815   0.49374   0.00000  Uiso   1.00
O636   O     0.11920   0.55748   0.54644   0.00000  Uiso   1.00
O637   O     0.47810   0.13481   0.57989   0.00000  Uiso   1.00
O638   O     0.93133   0.03484   0.56953   0.00000  Uiso   1.00
N639   N     0.13383   0.47018   0.59209   0.00000  Uiso   1.00
N640   N     0.38959   0.16899   0.61593   0.00000  Uiso   1.00
N641   N     0.99998   0.09773   0.60855   0.00000  Uiso   1.00
N642   N     0.13728   0.46367   0.51161   0.00000  Uiso   1.00
N643   N     0.39304   0.16248   0.53545   0.00000  Uiso   1.00
N644   N     0.00343   0.09122   0.52807   0.00000  Uiso   1.00
C645   C     0.82587   0.75377   0.61260   0.00000  Uiso   1.00
C646   C     0.83614   0.69365   0.58728   0.00000  Uiso   1.00
C647   C     0.84669   0.63946   0.61082   0.00000  Uiso   1.00
C648   C     0.85497   0.58952   0.58110   0.00000  Uiso   1.00
C649   C     0.87123   0.49552   0.54961   0.00000  Uiso   1.00
C650   C     0.76564   0.77665   0.59385   0.00000  Uiso   1.00
C651   C     0.71693   0.79226   0.62292   0.00000  Uiso   1.00
C652   C     0.66587   0.81220   0.59873   0.00000  Uiso   1.00
C653   C     0.57269   0.84710   0.57743   0.00000  Uiso   1.00
C654   C     0.87303   0.79628   0.59182   0.00000  Uiso   1.00
C655   C     0.91459   0.82840   0.61917   0.00000  Uiso   1.00
C656   C     0.95393   0.86488   0.59327   0.00000  Uiso   1.00
C657   C     0.02748   0.93025   0.56882   0.00000  Uiso   1.00
C658   C     0.82181   0.76143   0.51796   0.00000  Uiso   1.00
C659   C     0.83393   0.69781   0.53588   0.00000  Uiso   1.00
C660   C     0.84220   0.64794   0.50611   0.00000  Uiso   1.00
C661   C     0.85277   0.59369   0.52961   0.00000  Uiso   1.00
C662   C     0.76344   0.78081   0.54245   0.00000  Uiso   1.00
C663   C     0.71244   0.80073   0.51821   0.00000  Uiso   1.00
C664   C     0.66365   0.81636   0.54723   0.00000  Uiso   1.00
C665   C     0.87082   0.80044   0.54041   0.00000  Uiso   1.00
C666   C     0.91010   0.83687   0.51446   0.00000  Uiso   1.00
C667   C     0.95172   0.86905   0.54177   0.00000  Uiso   1.00
H668   H     0.82758   0.75054   0.65262   0.00000  Uiso   1.00
H669   H     0.84839   0.63626   0.65061   0.00000  Uiso   1.00
H670   H     0.71865   0.78904   0.66270   0.00000  Uiso   1.00
H671   H     0.91628   0.82517   0.65895   0.00000  Uiso   1.00
H672   H     0.87047   0.51139   0.62570   0.00000  Uiso   1.00
H673   H     0.59691   0.83355   0.65119   0.00000  Uiso   1.00
H674   H     0.01366   0.90975   0.64330   0.00000  Uiso   1.00
H675   H     0.82009   0.76467   0.47794   0.00000  Uiso   1.00
H676   H     0.84049   0.65117   0.46633   0.00000  Uiso   1.00
H677   H     0.71075   0.80395   0.47843   0.00000  Uiso   1.00
H678   H     0.90838   0.84008   0.47468   0.00000  Uiso   1.00
H679   H     0.86406   0.52349   0.47614   0.00000  Uiso   1.00
H680   H     0.59049   0.84566   0.50163   0.00000  Uiso   1.00
H681   H     0.00724   0.92185   0.49374   0.00000  Uiso   1.00
O682   O     0.88080   0.44252   0.54644   0.00000  Uiso   1.00
O683   O     0.52190   0.86519   0.57989   0.00000  Uiso   1.00
O684   O     0.06867   0.96516   0.56953   0.00000  Uiso   1.00
N685   N     0.86617   0.52982   0.59209   0.00000  Uiso   1.00
N686   N     0.61041   0.83101   0.61593   0.00000  Uiso   1.00
N687   N     0.00002   0.90227   0.60855   0.00000  Uiso   1.00
N688   N     0.86272   0.53633   0.51161   0.00000  Uiso   1.00
N689   N     0.60696   0.83752   0.53545   0.00000  Uiso   1.00
N690   N     0.99657   0.90878   0.52807   0.00000  Uiso   1.00
C691   C     0.32587   0.25377   0.11260   0.00000  Uiso   1.00
C692   C     0.33614   0.19365   0.08728   0.00000  Uiso   1.00
C693   C     0.34669   0.13946   0.11082   0.00000  Uiso   1.00
C694   C     0.35497   0.08952   0.08110   0.00000  Uiso   1.00
C695   C     0.37123   0.99552   0.04961   0.00000  Uiso   1.00
C696   C     0.26564   0.27665   0.09385   0.00000  Uiso   1.00
C697   C     0.21693   0.29226   0.12292   0.00000  Uiso   1.00
C698   C     0.16587   0.31220   0.09873   0.00000  Uiso   1.00
C699   C     0.07269   0.34710   0.07743   0.00000  Uiso   1.00
C700   C     0.37303   0.29628   0.09182   0.00000  Uiso   1.00
C701   C     0.41459   0.32840   0.11917   0.00000  Uiso   1.00
C702   C     0.45393   0.36488   0.09327   0.00000  Uiso   1.00
C703   C     0.52748   0.43025   0.06882   0.00000  Uiso   1.00
C704   C     0.32181   0.26143   0.01796   0.00000  Uiso   1.00
C705   C     0.33393   0.19781   0.03588   0.00000  Uiso   1.00
C706   C     0.34220   0.14794   0.00611   0.00000  Uiso   1.00
C707   C     0.35277   0.09369   0.02961   0.00000  Uiso   1.00
C708   C     0.26344   0.28081   0.04245   0.00000  Uiso   1.00
C709   C     0.21244   0.30073   0.01821   0.00000  Uiso   1.00
C710   C     0.16365   0.31636   0.04723   0.00000  Uiso   1.00
C711   C     0.37082   0.30044   0.04041   0.00000  Uiso   1.00
C712   C     0.41010   0.33687   0.01446   0.00000  Uiso   1.00
C713   C     0.45172   0.36905   0.04177   0.00000  Uiso   1.00
H714   H     0.32758   0.25054   0.15262   0.00000  Uiso   1.00
H715   H     0.34839   0.13626   0.15061   0.00000  Uiso   1.00
H716   H     0.21865   0.28904   0.16270   0.00000  Uiso   1.00
H717   H     0.41628   0.32517   0.15895   0.00000  Uiso   1.00
H718   H     0.37047   0.01139   0.12570   0.00000  Uiso   1.00
H719   H     0.09691   0.33355   0.15119   0.00000  Uiso   1.00
H720   H     0.51366   0.40975   0.14330   0.00000  Uiso   1.00
H721   H     0.32009   0.26467   0.97794   0.00000  Uiso   1.00
H722   H     0.34049   0.15117   0.96633   0.00000  Uiso   1.00
H723   H     0.21075   0.30395   0.97843   0.00000  Uiso   1.00
H724   H     0.40838   0.34008   0.97468   0.00000  Uiso   1.00
H725   H     0.36406   0.02349   0.97614   0.00000  Uiso   1.00
H726   H     0.09049   0.34566   0.00163   0.00000  Uiso   1.00
H727   H     0.50724   0.42185   0.99374   0.00000  Uiso   1.00
O728   O     0.38080   0.94252   0.04644   0.00000  Uiso   1.00
O729   O     0.02190   0.36519   0.07989   0.00000  Uiso   1.00
O730   O     0.56867   0.46516   0.06953   0.00000  Uiso   1.00
N731   N     0.36617   0.02982   0.09209   0.00000  Uiso   1.00
N732   N     0.11041   0.33101   0.11593   0.00000  Uiso   1.00
N733   N     0.50002   0.40227   0.10855   0.00000  Uiso   1.00
N734   N     0.36272   0.03633   0.01161   0.00000  Uiso   1.00
N735   N     0.10696   0.33752   0.03545   0.00000  Uiso   1.00
N736   N     0.49657   0.40878   0.02807   0.00000  Uiso   1.00
