data_job_05836
_audit_creation_date              2018-12-19
_audit_creation_method            'Materials Studio'
_symmetry_space_group_name_H-M    'P1'
_symmetry_Int_Tables_number       1
_symmetry_cell_setting            triclinic
loop_
_symmetry_equiv_pos_as_xyz
  x,y,z
_cell_length_a                    23.9148
_cell_length_b                    23.9148
_cell_length_c                    19.9961
_cell_angle_alpha                 90.0000
_cell_angle_beta                  90.0000
_cell_angle_gamma                 90.0000
loop_
_atom_site_label
_atom_site_type_symbol
_atom_site_fract_x
_atom_site_fract_y
_atom_site_fract_z
_atom_site_U_iso_or_equiv
_atom_site_adp_type
_atom_site_occupancy
C1     C     0.21190   0.55095   0.11963   0.00000  Uiso   1.00
C2     C     0.18668   0.50444   0.07706   0.00000  Uiso   1.00
C3     C     0.15930   0.45740   0.10115   0.00000  Uiso   1.00
C4     C     0.13924   0.41973   0.05408   0.00000  Uiso   1.00
C5     C     0.09904   0.34611   0.99843   0.00000  Uiso   1.00
C6     C     0.27325   0.55479   0.09939   0.00000  Uiso   1.00
C7     C     0.31866   0.55010   0.14225   0.00000  Uiso   1.00
C8     C     0.37148   0.55481   0.11397   0.00000  Uiso   1.00
C9     C     0.46567   0.55941   0.09298   0.00000  Uiso   1.00
C10    C     0.18471   0.60508   0.09582   0.00000  Uiso   1.00
C11    C     0.15569   0.64268   0.13568   0.00000  Uiso   1.00
C12    C     0.13397   0.68975   0.10441   0.00000  Uiso   1.00
C13    C     0.09069   0.77243   0.07788   0.00000  Uiso   1.00
C14    C     0.22496   0.56768   0.99322   0.00000  Uiso   1.00
C15    C     0.19378   0.51352   0.00840   0.00000  Uiso   1.00
C16    C     0.17376   0.47591   0.96128   0.00000  Uiso   1.00
C17    C     0.14635   0.42883   0.98530   0.00000  Uiso   1.00
C18    C     0.28035   0.56387   0.03072   0.00000  Uiso   1.00
C19    C     0.33311   0.56860   0.00238   0.00000  Uiso   1.00
C20    C     0.37859   0.56392   0.04518   0.00000  Uiso   1.00
C21    C     0.19181   0.61417   0.02715   0.00000  Uiso   1.00
C22    C     0.17014   0.66119   0.99581   0.00000  Uiso   1.00
C23    C     0.14108   0.69886   0.03562   0.00000  Uiso   1.00
H24    H     0.20638   0.54387   0.17309   0.00000  Uiso   1.00
H25    H     0.15382   0.45038   0.15429   0.00000  Uiso   1.00
H26    H     0.31315   0.54307   0.19538   0.00000  Uiso   1.00
H27    H     0.15020   0.63564   0.18882   0.00000  Uiso   1.00
H28    H     0.09871   0.35073   0.10317   0.00000  Uiso   1.00
H29    H     0.43466   0.54618   0.18981   0.00000  Uiso   1.00
H30    H     0.09105   0.74139   0.17597   0.00000  Uiso   1.00
H31    H     0.23049   0.57475   0.93976   0.00000  Uiso   1.00
H32    H     0.17925   0.48295   0.90815   0.00000  Uiso   1.00
H33    H     0.33859   0.57564   0.94924   0.00000  Uiso   1.00
H34    H     0.17564   0.66821   0.94268   0.00000  Uiso   1.00
H35    H     0.11935   0.37716   0.90339   0.00000  Uiso   1.00
H36    H     0.45531   0.57261   0.99004   0.00000  Uiso   1.00
H37    H     0.11169   0.76782   0.97619   0.00000  Uiso   1.00
O38    O     0.07491   0.30299   0.98670   0.00000  Uiso   1.00
O39    O     0.51567   0.55943   0.10038   0.00000  Uiso   1.00
O40    O     0.06485   0.81553   0.08221   0.00000  Uiso   1.00
N41    N     0.11058   0.36956   0.06049   0.00000  Uiso   1.00
N42    N     0.42469   0.55228   0.14149   0.00000  Uiso   1.00
N43    N     0.10345   0.73479   0.12855   0.00000  Uiso   1.00
N44    N     0.12169   0.38378   0.95299   0.00000  Uiso   1.00
N45    N     0.43579   0.56650   0.03399   0.00000  Uiso   1.00
N46    N     0.11456   0.74901   0.02106   0.00000  Uiso   1.00
C47    C     0.71190   0.05095   0.61963   0.00000  Uiso   1.00
C48    C     0.68668   0.00444   0.57706   0.00000  Uiso   1.00
C49    C     0.65930   0.95740   0.60115   0.00000  Uiso   1.00
C50    C     0.63924   0.91973   0.55408   0.00000  Uiso   1.00
C51    C     0.59904   0.84611   0.49843   0.00000  Uiso   1.00
C52    C     0.77325   0.05479   0.59939   0.00000  Uiso   1.00
C53    C     0.81866   0.05010   0.64225   0.00000  Uiso   1.00
C54    C     0.87148   0.05481   0.61397   0.00000  Uiso   1.00
C55    C     0.96567   0.05941   0.59298   0.00000  Uiso   1.00
C56    C     0.68471   0.10508   0.59582   0.00000  Uiso   1.00
C57    C     0.65569   0.14268   0.63568   0.00000  Uiso   1.00
C58    C     0.63397   0.18975   0.60441   0.00000  Uiso   1.00
C59    C     0.59069   0.27243   0.57788   0.00000  Uiso   1.00
C60    C     0.72496   0.06768   0.49322   0.00000  Uiso   1.00
C61    C     0.69378   0.01352   0.50840   0.00000  Uiso   1.00
C62    C     0.67376   0.97591   0.46128   0.00000  Uiso   1.00
C63    C     0.64635   0.92883   0.48530   0.00000  Uiso   1.00
C64    C     0.78035   0.06387   0.53072   0.00000  Uiso   1.00
C65    C     0.83311   0.06860   0.50238   0.00000  Uiso   1.00
C66    C     0.87859   0.06392   0.54518   0.00000  Uiso   1.00
C67    C     0.69181   0.11417   0.52715   0.00000  Uiso   1.00
C68    C     0.67014   0.16119   0.49581   0.00000  Uiso   1.00
C69    C     0.64108   0.19886   0.53562   0.00000  Uiso   1.00
H70    H     0.70638   0.04387   0.67309   0.00000  Uiso   1.00
H71    H     0.65382   0.95038   0.65429   0.00000  Uiso   1.00
H72    H     0.81315   0.04307   0.69538   0.00000  Uiso   1.00
H73    H     0.65020   0.13564   0.68882   0.00000  Uiso   1.00
H74    H     0.59871   0.85073   0.60317   0.00000  Uiso   1.00
H75    H     0.93466   0.04618   0.68981   0.00000  Uiso   1.00
H76    H     0.59105   0.24139   0.67597   0.00000  Uiso   1.00
H77    H     0.73049   0.07475   0.43976   0.00000  Uiso   1.00
H78    H     0.67925   0.98295   0.40815   0.00000  Uiso   1.00
H79    H     0.83859   0.07564   0.44924   0.00000  Uiso   1.00
H80    H     0.67564   0.16821   0.44268   0.00000  Uiso   1.00
H81    H     0.61935   0.87716   0.40339   0.00000  Uiso   1.00
H82    H     0.95531   0.07261   0.49004   0.00000  Uiso   1.00
H83    H     0.61169   0.26782   0.47619   0.00000  Uiso   1.00
O84    O     0.57491   0.80299   0.48670   0.00000  Uiso   1.00
O85    O     0.01567   0.05943   0.60038   0.00000  Uiso   1.00
O86    O     0.56485   0.31553   0.58221   0.00000  Uiso   1.00
N87    N     0.61058   0.86956   0.56049   0.00000  Uiso   1.00
N88    N     0.92469   0.05228   0.64149   0.00000  Uiso   1.00
N89    N     0.60345   0.23479   0.62855   0.00000  Uiso   1.00
N90    N     0.62169   0.88378   0.45299   0.00000  Uiso   1.00
N91    N     0.93579   0.06650   0.53399   0.00000  Uiso   1.00
N92    N     0.61456   0.24901   0.52106   0.00000  Uiso   1.00
C93    C     0.28810   0.94905   0.61963   0.00000  Uiso   1.00
C94    C     0.31332   0.99556   0.57706   0.00000  Uiso   1.00
C95    C     0.34070   0.04260   0.60115   0.00000  Uiso   1.00
C96    C     0.36076   0.08027   0.55408   0.00000  Uiso   1.00
C97    C     0.40096   0.15389   0.49843   0.00000  Uiso   1.00
C98    C     0.22675   0.94521   0.59939   0.00000  Uiso   1.00
C99    C     0.18134   0.94990   0.64225   0.00000  Uiso   1.00
C100   C     0.12852   0.94519   0.61397   0.00000  Uiso   1.00
C101   C     0.03433   0.94059   0.59298   0.00000  Uiso   1.00
C102   C     0.31529   0.89492   0.59582   0.00000  Uiso   1.00
C103   C     0.34431   0.85732   0.63568   0.00000  Uiso   1.00
C104   C     0.36603   0.81025   0.60441   0.00000  Uiso   1.00
C105   C     0.40931   0.72757   0.57788   0.00000  Uiso   1.00
C106   C     0.27504   0.93232   0.49322   0.00000  Uiso   1.00
C107   C     0.30622   0.98648   0.50840   0.00000  Uiso   1.00
C108   C     0.32624   0.02409   0.46128   0.00000  Uiso   1.00
C109   C     0.35365   0.07117   0.48530   0.00000  Uiso   1.00
C110   C     0.21965   0.93613   0.53072   0.00000  Uiso   1.00
C111   C     0.16689   0.93140   0.50238   0.00000  Uiso   1.00
C112   C     0.12141   0.93608   0.54518   0.00000  Uiso   1.00
C113   C     0.30819   0.88583   0.52715   0.00000  Uiso   1.00
C114   C     0.32986   0.83881   0.49581   0.00000  Uiso   1.00
C115   C     0.35892   0.80114   0.53562   0.00000  Uiso   1.00
H116   H     0.29362   0.95613   0.67309   0.00000  Uiso   1.00
H117   H     0.34618   0.04962   0.65429   0.00000  Uiso   1.00
H118   H     0.18685   0.95693   0.69538   0.00000  Uiso   1.00
H119   H     0.34980   0.86436   0.68882   0.00000  Uiso   1.00
H120   H     0.40129   0.14927   0.60317   0.00000  Uiso   1.00
H121   H     0.06534   0.95382   0.68981   0.00000  Uiso   1.00
H122   H     0.40895   0.75861   0.67597   0.00000  Uiso   1.00
H123   H     0.26951   0.92525   0.43976   0.00000  Uiso   1.00
H124   H     0.32075   0.01705   0.40815   0.00000  Uiso   1.00
H125   H     0.16141   0.92436   0.44924   0.00000  Uiso   1.00
H126   H     0.32436   0.83179   0.44268   0.00000  Uiso   1.00
H127   H     0.38065   0.12284   0.40339   0.00000  Uiso   1.00
H128   H     0.04469   0.92739   0.49004   0.00000  Uiso   1.00
H129   H     0.38831   0.73218   0.47619   0.00000  Uiso   1.00
O130   O     0.42509   0.19701   0.48670   0.00000  Uiso   1.00
O131   O     0.98433   0.94057   0.60038   0.00000  Uiso   1.00
O132   O     0.43515   0.68447   0.58221   0.00000  Uiso   1.00
N133   N     0.38942   0.13044   0.56049   0.00000  Uiso   1.00
N134   N     0.07531   0.94772   0.64149   0.00000  Uiso   1.00
N135   N     0.39655   0.76521   0.62855   0.00000  Uiso   1.00
N136   N     0.37831   0.11622   0.45299   0.00000  Uiso   1.00
N137   N     0.06421   0.93350   0.53399   0.00000  Uiso   1.00
N138   N     0.38544   0.75099   0.52106   0.00000  Uiso   1.00
C139   C     0.78810   0.44905   0.11963   0.00000  Uiso   1.00
C140   C     0.81332   0.49556   0.07706   0.00000  Uiso   1.00
C141   C     0.84070   0.54260   0.10115   0.00000  Uiso   1.00
C142   C     0.86076   0.58027   0.05408   0.00000  Uiso   1.00
C143   C     0.90096   0.65389   0.99843   0.00000  Uiso   1.00
C144   C     0.72675   0.44521   0.09939   0.00000  Uiso   1.00
C145   C     0.68134   0.44990   0.14225   0.00000  Uiso   1.00
C146   C     0.62852   0.44519   0.11397   0.00000  Uiso   1.00
C147   C     0.53433   0.44059   0.09298   0.00000  Uiso   1.00
C148   C     0.81529   0.39492   0.09582   0.00000  Uiso   1.00
C149   C     0.84431   0.35732   0.13568   0.00000  Uiso   1.00
C150   C     0.86603   0.31025   0.10441   0.00000  Uiso   1.00
C151   C     0.90931   0.22757   0.07788   0.00000  Uiso   1.00
C152   C     0.77504   0.43232   0.99322   0.00000  Uiso   1.00
C153   C     0.80622   0.48648   0.00840   0.00000  Uiso   1.00
C154   C     0.82624   0.52409   0.96128   0.00000  Uiso   1.00
C155   C     0.85365   0.57117   0.98530   0.00000  Uiso   1.00
C156   C     0.71965   0.43613   0.03072   0.00000  Uiso   1.00
C157   C     0.66689   0.43140   0.00238   0.00000  Uiso   1.00
C158   C     0.62141   0.43608   0.04518   0.00000  Uiso   1.00
C159   C     0.80819   0.38583   0.02715   0.00000  Uiso   1.00
C160   C     0.82986   0.33881   0.99581   0.00000  Uiso   1.00
C161   C     0.85892   0.30114   0.03562   0.00000  Uiso   1.00
H162   H     0.79362   0.45613   0.17309   0.00000  Uiso   1.00
H163   H     0.84618   0.54962   0.15429   0.00000  Uiso   1.00
H164   H     0.68685   0.45693   0.19538   0.00000  Uiso   1.00
H165   H     0.84980   0.36436   0.18882   0.00000  Uiso   1.00
H166   H     0.90129   0.64927   0.10317   0.00000  Uiso   1.00
H167   H     0.56534   0.45382   0.18981   0.00000  Uiso   1.00
H168   H     0.90895   0.25861   0.17597   0.00000  Uiso   1.00
H169   H     0.76951   0.42525   0.93976   0.00000  Uiso   1.00
H170   H     0.82075   0.51705   0.90815   0.00000  Uiso   1.00
H171   H     0.66141   0.42436   0.94924   0.00000  Uiso   1.00
H172   H     0.82436   0.33179   0.94268   0.00000  Uiso   1.00
H173   H     0.88065   0.62284   0.90339   0.00000  Uiso   1.00
H174   H     0.54469   0.42739   0.99004   0.00000  Uiso   1.00
H175   H     0.88831   0.23218   0.97619   0.00000  Uiso   1.00
O176   O     0.92509   0.69701   0.98670   0.00000  Uiso   1.00
O177   O     0.48433   0.44057   0.10038   0.00000  Uiso   1.00
O178   O     0.93515   0.18447   0.08221   0.00000  Uiso   1.00
N179   N     0.88942   0.63044   0.06049   0.00000  Uiso   1.00
N180   N     0.57531   0.44772   0.14149   0.00000  Uiso   1.00
N181   N     0.89655   0.26521   0.12855   0.00000  Uiso   1.00
N182   N     0.87831   0.61622   0.95299   0.00000  Uiso   1.00
N183   N     0.56421   0.43350   0.03399   0.00000  Uiso   1.00
N184   N     0.88544   0.25099   0.02106   0.00000  Uiso   1.00
C185   C     0.44905   0.71190   0.36963   0.00000  Uiso   1.00
C186   C     0.49556   0.68668   0.32706   0.00000  Uiso   1.00
C187   C     0.54260   0.65930   0.35115   0.00000  Uiso   1.00
C188   C     0.58027   0.63924   0.30408   0.00000  Uiso   1.00
C189   C     0.65389   0.59904   0.24843   0.00000  Uiso   1.00
C190   C     0.44521   0.77325   0.34939   0.00000  Uiso   1.00
C191   C     0.44990   0.81866   0.39225   0.00000  Uiso   1.00
C192   C     0.44519   0.87148   0.36397   0.00000  Uiso   1.00
C193   C     0.44059   0.96567   0.34298   0.00000  Uiso   1.00
C194   C     0.39492   0.68471   0.34582   0.00000  Uiso   1.00
C195   C     0.35732   0.65569   0.38568   0.00000  Uiso   1.00
C196   C     0.31025   0.63397   0.35441   0.00000  Uiso   1.00
C197   C     0.22757   0.59069   0.32788   0.00000  Uiso   1.00
C198   C     0.43232   0.72496   0.24322   0.00000  Uiso   1.00
C199   C     0.48648   0.69378   0.25840   0.00000  Uiso   1.00
C200   C     0.52409   0.67376   0.21128   0.00000  Uiso   1.00
C201   C     0.57117   0.64635   0.23530   0.00000  Uiso   1.00
C202   C     0.43613   0.78035   0.28072   0.00000  Uiso   1.00
C203   C     0.43140   0.83311   0.25238   0.00000  Uiso   1.00
C204   C     0.43608   0.87859   0.29518   0.00000  Uiso   1.00
C205   C     0.38583   0.69181   0.27715   0.00000  Uiso   1.00
C206   C     0.33881   0.67014   0.24581   0.00000  Uiso   1.00
C207   C     0.30114   0.64108   0.28562   0.00000  Uiso   1.00
H208   H     0.45613   0.70638   0.42309   0.00000  Uiso   1.00
H209   H     0.54962   0.65382   0.40429   0.00000  Uiso   1.00
H210   H     0.45693   0.81315   0.44538   0.00000  Uiso   1.00
H211   H     0.36436   0.65020   0.43882   0.00000  Uiso   1.00
H212   H     0.64927   0.59871   0.35317   0.00000  Uiso   1.00
H213   H     0.45382   0.93466   0.43981   0.00000  Uiso   1.00
H214   H     0.25861   0.59105   0.42597   0.00000  Uiso   1.00
H215   H     0.42525   0.73049   0.18976   0.00000  Uiso   1.00
H216   H     0.51705   0.67925   0.15815   0.00000  Uiso   1.00
H217   H     0.42436   0.83859   0.19924   0.00000  Uiso   1.00
H218   H     0.33179   0.67564   0.19268   0.00000  Uiso   1.00
H219   H     0.62284   0.61935   0.15339   0.00000  Uiso   1.00
H220   H     0.42739   0.95531   0.24004   0.00000  Uiso   1.00
H221   H     0.23218   0.61169   0.22619   0.00000  Uiso   1.00
O222   O     0.69701   0.57491   0.23670   0.00000  Uiso   1.00
O223   O     0.44057   0.01567   0.35038   0.00000  Uiso   1.00
O224   O     0.18447   0.56485   0.33221   0.00000  Uiso   1.00
N225   N     0.63044   0.61058   0.31049   0.00000  Uiso   1.00
N226   N     0.44772   0.92469   0.39149   0.00000  Uiso   1.00
N227   N     0.26521   0.60345   0.37855   0.00000  Uiso   1.00
N228   N     0.61622   0.62169   0.20299   0.00000  Uiso   1.00
N229   N     0.43350   0.93579   0.28399   0.00000  Uiso   1.00
N230   N     0.25099   0.61456   0.27106   0.00000  Uiso   1.00
C231   C     0.94905   0.21190   0.86963   0.00000  Uiso   1.00
C232   C     0.99556   0.18668   0.82706   0.00000  Uiso   1.00
C233   C     0.04260   0.15930   0.85115   0.00000  Uiso   1.00
C234   C     0.08027   0.13924   0.80408   0.00000  Uiso   1.00
C235   C     0.15389   0.09904   0.74843   0.00000  Uiso   1.00
C236   C     0.94521   0.27325   0.84939   0.00000  Uiso   1.00
C237   C     0.94990   0.31866   0.89225   0.00000  Uiso   1.00
C238   C     0.94519   0.37148   0.86397   0.00000  Uiso   1.00
C239   C     0.94059   0.46567   0.84298   0.00000  Uiso   1.00
C240   C     0.89492   0.18471   0.84582   0.00000  Uiso   1.00
C241   C     0.85732   0.15569   0.88568   0.00000  Uiso   1.00
C242   C     0.81025   0.13397   0.85441   0.00000  Uiso   1.00
C243   C     0.72757   0.09069   0.82788   0.00000  Uiso   1.00
C244   C     0.93232   0.22496   0.74322   0.00000  Uiso   1.00
C245   C     0.98648   0.19378   0.75840   0.00000  Uiso   1.00
C246   C     0.02409   0.17376   0.71128   0.00000  Uiso   1.00
C247   C     0.07117   0.14635   0.73530   0.00000  Uiso   1.00
C248   C     0.93613   0.28035   0.78072   0.00000  Uiso   1.00
C249   C     0.93140   0.33311   0.75238   0.00000  Uiso   1.00
C250   C     0.93608   0.37859   0.79518   0.00000  Uiso   1.00
C251   C     0.88583   0.19181   0.77715   0.00000  Uiso   1.00
C252   C     0.83881   0.17014   0.74581   0.00000  Uiso   1.00
C253   C     0.80114   0.14108   0.78562   0.00000  Uiso   1.00
H254   H     0.95613   0.20638   0.92309   0.00000  Uiso   1.00
H255   H     0.04962   0.15382   0.90429   0.00000  Uiso   1.00
H256   H     0.95693   0.31315   0.94538   0.00000  Uiso   1.00
H257   H     0.86436   0.15020   0.93882   0.00000  Uiso   1.00
H258   H     0.14927   0.09871   0.85317   0.00000  Uiso   1.00
H259   H     0.95382   0.43466   0.93981   0.00000  Uiso   1.00
H260   H     0.75861   0.09105   0.92597   0.00000  Uiso   1.00
H261   H     0.92525   0.23049   0.68976   0.00000  Uiso   1.00
H262   H     0.01705   0.17925   0.65815   0.00000  Uiso   1.00
H263   H     0.92436   0.33859   0.69924   0.00000  Uiso   1.00
H264   H     0.83179   0.17564   0.69268   0.00000  Uiso   1.00
H265   H     0.12284   0.11935   0.65339   0.00000  Uiso   1.00
H266   H     0.92739   0.45531   0.74004   0.00000  Uiso   1.00
H267   H     0.73218   0.11169   0.72619   0.00000  Uiso   1.00
O268   O     0.19701   0.07491   0.73670   0.00000  Uiso   1.00
O269   O     0.94057   0.51567   0.85038   0.00000  Uiso   1.00
O270   O     0.68447   0.06485   0.83221   0.00000  Uiso   1.00
N271   N     0.13044   0.11058   0.81049   0.00000  Uiso   1.00
N272   N     0.94772   0.42469   0.89149   0.00000  Uiso   1.00
N273   N     0.76521   0.10345   0.87855   0.00000  Uiso   1.00
N274   N     0.11622   0.12169   0.70299   0.00000  Uiso   1.00
N275   N     0.93350   0.43579   0.78399   0.00000  Uiso   1.00
N276   N     0.75099   0.11456   0.77106   0.00000  Uiso   1.00
C277   C     0.05095   0.78810   0.86963   0.00000  Uiso   1.00
C278   C     0.00444   0.81332   0.82706   0.00000  Uiso   1.00
C279   C     0.95740   0.84070   0.85115   0.00000  Uiso   1.00
C280   C     0.91973   0.86076   0.80408   0.00000  Uiso   1.00
C281   C     0.84611   0.90096   0.74843   0.00000  Uiso   1.00
C282   C     0.05479   0.72675   0.84939   0.00000  Uiso   1.00
C283   C     0.05010   0.68134   0.89225   0.00000  Uiso   1.00
C284   C     0.05481   0.62852   0.86397   0.00000  Uiso   1.00
C285   C     0.05941   0.53433   0.84298   0.00000  Uiso   1.00
C286   C     0.10508   0.81529   0.84582   0.00000  Uiso   1.00
C287   C     0.14268   0.84431   0.88568   0.00000  Uiso   1.00
C288   C     0.18975   0.86603   0.85441   0.00000  Uiso   1.00
C289   C     0.27243   0.90931   0.82788   0.00000  Uiso   1.00
C290   C     0.06768   0.77504   0.74322   0.00000  Uiso   1.00
C291   C     0.01352   0.80622   0.75840   0.00000  Uiso   1.00
C292   C     0.97591   0.82624   0.71128   0.00000  Uiso   1.00
C293   C     0.92883   0.85365   0.73530   0.00000  Uiso   1.00
C294   C     0.06387   0.71965   0.78072   0.00000  Uiso   1.00
C295   C     0.06860   0.66689   0.75238   0.00000  Uiso   1.00
C296   C     0.06392   0.62141   0.79518   0.00000  Uiso   1.00
C297   C     0.11417   0.80819   0.77715   0.00000  Uiso   1.00
C298   C     0.16119   0.82986   0.74581   0.00000  Uiso   1.00
C299   C     0.19886   0.85892   0.78562   0.00000  Uiso   1.00
H300   H     0.04387   0.79362   0.92309   0.00000  Uiso   1.00
H301   H     0.95038   0.84618   0.90429   0.00000  Uiso   1.00
H302   H     0.04307   0.68685   0.94538   0.00000  Uiso   1.00
H303   H     0.13564   0.84980   0.93882   0.00000  Uiso   1.00
H304   H     0.85073   0.90129   0.85317   0.00000  Uiso   1.00
H305   H     0.04618   0.56534   0.93981   0.00000  Uiso   1.00
H306   H     0.24139   0.90895   0.92597   0.00000  Uiso   1.00
H307   H     0.07475   0.76951   0.68976   0.00000  Uiso   1.00
H308   H     0.98295   0.82075   0.65815   0.00000  Uiso   1.00
H309   H     0.07564   0.66141   0.69924   0.00000  Uiso   1.00
H310   H     0.16821   0.82436   0.69268   0.00000  Uiso   1.00
H311   H     0.87716   0.88065   0.65339   0.00000  Uiso   1.00
H312   H     0.07261   0.54469   0.74004   0.00000  Uiso   1.00
H313   H     0.26782   0.88831   0.72619   0.00000  Uiso   1.00
O314   O     0.80299   0.92509   0.73670   0.00000  Uiso   1.00
O315   O     0.05943   0.48433   0.85038   0.00000  Uiso   1.00
O316   O     0.31553   0.93515   0.83221   0.00000  Uiso   1.00
N317   N     0.86956   0.88942   0.81049   0.00000  Uiso   1.00
N318   N     0.05228   0.57531   0.89149   0.00000  Uiso   1.00
N319   N     0.23479   0.89655   0.87855   0.00000  Uiso   1.00
N320   N     0.88378   0.87831   0.70299   0.00000  Uiso   1.00
N321   N     0.06650   0.56421   0.78399   0.00000  Uiso   1.00
N322   N     0.24901   0.88544   0.77106   0.00000  Uiso   1.00
C323   C     0.55095   0.28810   0.36963   0.00000  Uiso   1.00
C324   C     0.50444   0.31332   0.32706   0.00000  Uiso   1.00
C325   C     0.45740   0.34070   0.35115   0.00000  Uiso   1.00
C326   C     0.41973   0.36076   0.30408   0.00000  Uiso   1.00
C327   C     0.34611   0.40096   0.24843   0.00000  Uiso   1.00
C328   C     0.55479   0.22675   0.34939   0.00000  Uiso   1.00
C329   C     0.55010   0.18134   0.39225   0.00000  Uiso   1.00
C330   C     0.55481   0.12852   0.36397   0.00000  Uiso   1.00
C331   C     0.55941   0.03433   0.34298   0.00000  Uiso   1.00
C332   C     0.60508   0.31529   0.34582   0.00000  Uiso   1.00
C333   C     0.64268   0.34431   0.38568   0.00000  Uiso   1.00
C334   C     0.68975   0.36603   0.35441   0.00000  Uiso   1.00
C335   C     0.77243   0.40931   0.32788   0.00000  Uiso   1.00
C336   C     0.56768   0.27504   0.24322   0.00000  Uiso   1.00
C337   C     0.51352   0.30622   0.25840   0.00000  Uiso   1.00
C338   C     0.47591   0.32624   0.21128   0.00000  Uiso   1.00
C339   C     0.42883   0.35365   0.23530   0.00000  Uiso   1.00
C340   C     0.56387   0.21965   0.28072   0.00000  Uiso   1.00
C341   C     0.56860   0.16689   0.25238   0.00000  Uiso   1.00
C342   C     0.56392   0.12141   0.29518   0.00000  Uiso   1.00
C343   C     0.61417   0.30819   0.27715   0.00000  Uiso   1.00
C344   C     0.66119   0.32986   0.24581   0.00000  Uiso   1.00
C345   C     0.69886   0.35892   0.28562   0.00000  Uiso   1.00
H346   H     0.54387   0.29362   0.42309   0.00000  Uiso   1.00
H347   H     0.45038   0.34618   0.40429   0.00000  Uiso   1.00
H348   H     0.54307   0.18685   0.44538   0.00000  Uiso   1.00
H349   H     0.63564   0.34980   0.43882   0.00000  Uiso   1.00
H350   H     0.35073   0.40129   0.35317   0.00000  Uiso   1.00
H351   H     0.54618   0.06534   0.43981   0.00000  Uiso   1.00
H352   H     0.74139   0.40895   0.42597   0.00000  Uiso   1.00
H353   H     0.57475   0.26951   0.18976   0.00000  Uiso   1.00
H354   H     0.48295   0.32075   0.15815   0.00000  Uiso   1.00
H355   H     0.57564   0.16141   0.19924   0.00000  Uiso   1.00
H356   H     0.66821   0.32436   0.19268   0.00000  Uiso   1.00
H357   H     0.37716   0.38065   0.15339   0.00000  Uiso   1.00
H358   H     0.57261   0.04469   0.24004   0.00000  Uiso   1.00
H359   H     0.76782   0.38831   0.22619   0.00000  Uiso   1.00
O360   O     0.30299   0.42509   0.23670   0.00000  Uiso   1.00
O361   O     0.55943   0.98433   0.35038   0.00000  Uiso   1.00
O362   O     0.81553   0.43515   0.33221   0.00000  Uiso   1.00
N363   N     0.36956   0.38942   0.31049   0.00000  Uiso   1.00
N364   N     0.55228   0.07531   0.39149   0.00000  Uiso   1.00
N365   N     0.73479   0.39655   0.37855   0.00000  Uiso   1.00
N366   N     0.38378   0.37831   0.20299   0.00000  Uiso   1.00
N367   N     0.56650   0.06421   0.28399   0.00000  Uiso   1.00
N368   N     0.74901   0.38544   0.27106   0.00000  Uiso   1.00
C369   C     0.78810   0.94905   0.13037   0.00000  Uiso   1.00
C370   C     0.81332   0.99556   0.17294   0.00000  Uiso   1.00
C371   C     0.84070   0.04260   0.14885   0.00000  Uiso   1.00
C372   C     0.86076   0.08027   0.19592   0.00000  Uiso   1.00
C373   C     0.90096   0.15389   0.25157   0.00000  Uiso   1.00
C374   C     0.72675   0.94521   0.15061   0.00000  Uiso   1.00
C375   C     0.68134   0.94990   0.10775   0.00000  Uiso   1.00
C376   C     0.62852   0.94519   0.13603   0.00000  Uiso   1.00
C377   C     0.53433   0.94059   0.15702   0.00000  Uiso   1.00
C378   C     0.81529   0.89492   0.15418   0.00000  Uiso   1.00
C379   C     0.84431   0.85732   0.11432   0.00000  Uiso   1.00
C380   C     0.86603   0.81025   0.14559   0.00000  Uiso   1.00
C381   C     0.90931   0.72757   0.17212   0.00000  Uiso   1.00
C382   C     0.77504   0.93232   0.25678   0.00000  Uiso   1.00
C383   C     0.80622   0.98648   0.24160   0.00000  Uiso   1.00
C384   C     0.82624   0.02409   0.28872   0.00000  Uiso   1.00
C385   C     0.85365   0.07117   0.26470   0.00000  Uiso   1.00
C386   C     0.71965   0.93613   0.21928   0.00000  Uiso   1.00
C387   C     0.66689   0.93140   0.24762   0.00000  Uiso   1.00
C388   C     0.62141   0.93608   0.20482   0.00000  Uiso   1.00
C389   C     0.80819   0.88583   0.22285   0.00000  Uiso   1.00
C390   C     0.82986   0.83881   0.25419   0.00000  Uiso   1.00
C391   C     0.85892   0.80114   0.21438   0.00000  Uiso   1.00
H392   H     0.79362   0.95613   0.07691   0.00000  Uiso   1.00
H393   H     0.84618   0.04962   0.09571   0.00000  Uiso   1.00
H394   H     0.68685   0.95693   0.05462   0.00000  Uiso   1.00
H395   H     0.84980   0.86436   0.06118   0.00000  Uiso   1.00
H396   H     0.90129   0.14927   0.14683   0.00000  Uiso   1.00
H397   H     0.56534   0.95382   0.06019   0.00000  Uiso   1.00
H398   H     0.90895   0.75861   0.07403   0.00000  Uiso   1.00
H399   H     0.76951   0.92525   0.31024   0.00000  Uiso   1.00
H400   H     0.82075   0.01705   0.34185   0.00000  Uiso   1.00
H401   H     0.66141   0.92436   0.30076   0.00000  Uiso   1.00
H402   H     0.82436   0.83179   0.30732   0.00000  Uiso   1.00
H403   H     0.88065   0.12284   0.34661   0.00000  Uiso   1.00
H404   H     0.54469   0.92739   0.25996   0.00000  Uiso   1.00
H405   H     0.88831   0.73218   0.27381   0.00000  Uiso   1.00
O406   O     0.92509   0.19701   0.26330   0.00000  Uiso   1.00
O407   O     0.48433   0.94057   0.14962   0.00000  Uiso   1.00
O408   O     0.93515   0.68447   0.16779   0.00000  Uiso   1.00
N409   N     0.88942   0.13044   0.18951   0.00000  Uiso   1.00
N410   N     0.57531   0.94772   0.10851   0.00000  Uiso   1.00
N411   N     0.89655   0.76521   0.12145   0.00000  Uiso   1.00
N412   N     0.87831   0.11622   0.29701   0.00000  Uiso   1.00
N413   N     0.56421   0.93350   0.21601   0.00000  Uiso   1.00
N414   N     0.88544   0.75099   0.22894   0.00000  Uiso   1.00
C415   C     0.28810   0.44905   0.63037   0.00000  Uiso   1.00
C416   C     0.31332   0.49556   0.67294   0.00000  Uiso   1.00
C417   C     0.34070   0.54260   0.64885   0.00000  Uiso   1.00
C418   C     0.36076   0.58027   0.69592   0.00000  Uiso   1.00
C419   C     0.40096   0.65389   0.75157   0.00000  Uiso   1.00
C420   C     0.22675   0.44521   0.65061   0.00000  Uiso   1.00
C421   C     0.18134   0.44990   0.60775   0.00000  Uiso   1.00
C422   C     0.12852   0.44519   0.63603   0.00000  Uiso   1.00
C423   C     0.03433   0.44059   0.65702   0.00000  Uiso   1.00
C424   C     0.31529   0.39492   0.65418   0.00000  Uiso   1.00
C425   C     0.34431   0.35732   0.61432   0.00000  Uiso   1.00
C426   C     0.36603   0.31025   0.64559   0.00000  Uiso   1.00
C427   C     0.40931   0.22757   0.67212   0.00000  Uiso   1.00
C428   C     0.27504   0.43232   0.75678   0.00000  Uiso   1.00
C429   C     0.30622   0.48648   0.74160   0.00000  Uiso   1.00
C430   C     0.32624   0.52409   0.78872   0.00000  Uiso   1.00
C431   C     0.35365   0.57117   0.76470   0.00000  Uiso   1.00
C432   C     0.21965   0.43613   0.71928   0.00000  Uiso   1.00
C433   C     0.16689   0.43140   0.74762   0.00000  Uiso   1.00
C434   C     0.12141   0.43608   0.70482   0.00000  Uiso   1.00
C435   C     0.30819   0.38583   0.72285   0.00000  Uiso   1.00
C436   C     0.32986   0.33881   0.75419   0.00000  Uiso   1.00
C437   C     0.35892   0.30114   0.71438   0.00000  Uiso   1.00
H438   H     0.29362   0.45613   0.57691   0.00000  Uiso   1.00
H439   H     0.34618   0.54962   0.59571   0.00000  Uiso   1.00
H440   H     0.18685   0.45693   0.55462   0.00000  Uiso   1.00
H441   H     0.34980   0.36436   0.56118   0.00000  Uiso   1.00
H442   H     0.40129   0.64927   0.64683   0.00000  Uiso   1.00
H443   H     0.06534   0.45382   0.56019   0.00000  Uiso   1.00
H444   H     0.40895   0.25861   0.57403   0.00000  Uiso   1.00
H445   H     0.26951   0.42525   0.81024   0.00000  Uiso   1.00
H446   H     0.32075   0.51705   0.84185   0.00000  Uiso   1.00
H447   H     0.16141   0.42436   0.80076   0.00000  Uiso   1.00
H448   H     0.32436   0.33179   0.80732   0.00000  Uiso   1.00
H449   H     0.38065   0.62284   0.84661   0.00000  Uiso   1.00
H450   H     0.04469   0.42739   0.75996   0.00000  Uiso   1.00
H451   H     0.38831   0.23218   0.77381   0.00000  Uiso   1.00
O452   O     0.42509   0.69701   0.76330   0.00000  Uiso   1.00
O453   O     0.98433   0.44057   0.64962   0.00000  Uiso   1.00
O454   O     0.43515   0.18447   0.66779   0.00000  Uiso   1.00
N455   N     0.38942   0.63044   0.68951   0.00000  Uiso   1.00
N456   N     0.07531   0.44772   0.60851   0.00000  Uiso   1.00
N457   N     0.39655   0.26521   0.62145   0.00000  Uiso   1.00
N458   N     0.37831   0.61622   0.79701   0.00000  Uiso   1.00
N459   N     0.06421   0.43350   0.71601   0.00000  Uiso   1.00
N460   N     0.38544   0.25099   0.72894   0.00000  Uiso   1.00
C461   C     0.71190   0.55095   0.63037   0.00000  Uiso   1.00
C462   C     0.68668   0.50444   0.67294   0.00000  Uiso   1.00
C463   C     0.65930   0.45740   0.64885   0.00000  Uiso   1.00
C464   C     0.63924   0.41973   0.69592   0.00000  Uiso   1.00
C465   C     0.59904   0.34611   0.75157   0.00000  Uiso   1.00
C466   C     0.77325   0.55479   0.65061   0.00000  Uiso   1.00
C467   C     0.81866   0.55010   0.60775   0.00000  Uiso   1.00
C468   C     0.87148   0.55481   0.63603   0.00000  Uiso   1.00
C469   C     0.96567   0.55941   0.65702   0.00000  Uiso   1.00
C470   C     0.68471   0.60508   0.65418   0.00000  Uiso   1.00
C471   C     0.65569   0.64268   0.61432   0.00000  Uiso   1.00
C472   C     0.63397   0.68975   0.64559   0.00000  Uiso   1.00
C473   C     0.59069   0.77243   0.67212   0.00000  Uiso   1.00
C474   C     0.72496   0.56768   0.75678   0.00000  Uiso   1.00
C475   C     0.69378   0.51352   0.74160   0.00000  Uiso   1.00
C476   C     0.67376   0.47591   0.78872   0.00000  Uiso   1.00
C477   C     0.64635   0.42883   0.76470   0.00000  Uiso   1.00
C478   C     0.78035   0.56387   0.71928   0.00000  Uiso   1.00
C479   C     0.83311   0.56860   0.74762   0.00000  Uiso   1.00
C480   C     0.87859   0.56392   0.70482   0.00000  Uiso   1.00
C481   C     0.69181   0.61417   0.72285   0.00000  Uiso   1.00
C482   C     0.67014   0.66119   0.75419   0.00000  Uiso   1.00
C483   C     0.64108   0.69886   0.71438   0.00000  Uiso   1.00
H484   H     0.70638   0.54387   0.57691   0.00000  Uiso   1.00
H485   H     0.65382   0.45038   0.59571   0.00000  Uiso   1.00
H486   H     0.81315   0.54307   0.55462   0.00000  Uiso   1.00
H487   H     0.65020   0.63564   0.56118   0.00000  Uiso   1.00
H488   H     0.59871   0.35073   0.64683   0.00000  Uiso   1.00
H489   H     0.93466   0.54618   0.56019   0.00000  Uiso   1.00
H490   H     0.59105   0.74139   0.57403   0.00000  Uiso   1.00
H491   H     0.73049   0.57475   0.81024   0.00000  Uiso   1.00
H492   H     0.67925   0.48295   0.84185   0.00000  Uiso   1.00
H493   H     0.83859   0.57564   0.80076   0.00000  Uiso   1.00
H494   H     0.67564   0.66821   0.80732   0.00000  Uiso   1.00
H495   H     0.61935   0.37716   0.84661   0.00000  Uiso   1.00
H496   H     0.95531   0.57261   0.75996   0.00000  Uiso   1.00
H497   H     0.61169   0.76782   0.77381   0.00000  Uiso   1.00
O498   O     0.57491   0.30299   0.76330   0.00000  Uiso   1.00
O499   O     0.01567   0.55943   0.64962   0.00000  Uiso   1.00
O500   O     0.56485   0.81553   0.66779   0.00000  Uiso   1.00
N501   N     0.61058   0.36956   0.68951   0.00000  Uiso   1.00
N502   N     0.92469   0.55228   0.60851   0.00000  Uiso   1.00
N503   N     0.60345   0.73479   0.62145   0.00000  Uiso   1.00
N504   N     0.62169   0.38378   0.79701   0.00000  Uiso   1.00
N505   N     0.93579   0.56650   0.71601   0.00000  Uiso   1.00
N506   N     0.61456   0.74901   0.72894   0.00000  Uiso   1.00
C507   C     0.21190   0.05095   0.13037   0.00000  Uiso   1.00
C508   C     0.18668   0.00444   0.17294   0.00000  Uiso   1.00
C509   C     0.15930   0.95740   0.14885   0.00000  Uiso   1.00
C510   C     0.13924   0.91973   0.19592   0.00000  Uiso   1.00
C511   C     0.09904   0.84611   0.25157   0.00000  Uiso   1.00
C512   C     0.27325   0.05479   0.15061   0.00000  Uiso   1.00
C513   C     0.31866   0.05010   0.10775   0.00000  Uiso   1.00
C514   C     0.37148   0.05481   0.13603   0.00000  Uiso   1.00
C515   C     0.46567   0.05941   0.15702   0.00000  Uiso   1.00
C516   C     0.18471   0.10508   0.15418   0.00000  Uiso   1.00
C517   C     0.15569   0.14268   0.11432   0.00000  Uiso   1.00
C518   C     0.13397   0.18975   0.14559   0.00000  Uiso   1.00
C519   C     0.09069   0.27243   0.17212   0.00000  Uiso   1.00
C520   C     0.22496   0.06768   0.25678   0.00000  Uiso   1.00
C521   C     0.19378   0.01352   0.24160   0.00000  Uiso   1.00
C522   C     0.17376   0.97591   0.28872   0.00000  Uiso   1.00
C523   C     0.14635   0.92883   0.26470   0.00000  Uiso   1.00
C524   C     0.28035   0.06387   0.21928   0.00000  Uiso   1.00
C525   C     0.33311   0.06860   0.24762   0.00000  Uiso   1.00
C526   C     0.37859   0.06392   0.20482   0.00000  Uiso   1.00
C527   C     0.19181   0.11417   0.22285   0.00000  Uiso   1.00
C528   C     0.17014   0.16119   0.25419   0.00000  Uiso   1.00
C529   C     0.14108   0.19886   0.21438   0.00000  Uiso   1.00
H530   H     0.20638   0.04387   0.07691   0.00000  Uiso   1.00
H531   H     0.15382   0.95038   0.09571   0.00000  Uiso   1.00
H532   H     0.31315   0.04307   0.05462   0.00000  Uiso   1.00
H533   H     0.15020   0.13564   0.06118   0.00000  Uiso   1.00
H534   H     0.09871   0.85073   0.14683   0.00000  Uiso   1.00
H535   H     0.43466   0.04618   0.06019   0.00000  Uiso   1.00
H536   H     0.09105   0.24139   0.07403   0.00000  Uiso   1.00
H537   H     0.23049   0.07475   0.31024   0.00000  Uiso   1.00
H538   H     0.17925   0.98295   0.34185   0.00000  Uiso   1.00
H539   H     0.33859   0.07564   0.30076   0.00000  Uiso   1.00
H540   H     0.17564   0.16821   0.30732   0.00000  Uiso   1.00
H541   H     0.11935   0.87716   0.34661   0.00000  Uiso   1.00
H542   H     0.45531   0.07261   0.25996   0.00000  Uiso   1.00
H543   H     0.11169   0.26782   0.27381   0.00000  Uiso   1.00
O544   O     0.07491   0.80299   0.26330   0.00000  Uiso   1.00
O545   O     0.51567   0.05943   0.14962   0.00000  Uiso   1.00
O546   O     0.06485   0.31553   0.16779   0.00000  Uiso   1.00
N547   N     0.11058   0.86956   0.18951   0.00000  Uiso   1.00
N548   N     0.42469   0.05228   0.10851   0.00000  Uiso   1.00
N549   N     0.10345   0.23479   0.12145   0.00000  Uiso   1.00
N550   N     0.12169   0.88378   0.29701   0.00000  Uiso   1.00
N551   N     0.43579   0.06650   0.21601   0.00000  Uiso   1.00
N552   N     0.11456   0.24901   0.22894   0.00000  Uiso   1.00
C553   C     0.55095   0.78810   0.88037   0.00000  Uiso   1.00
C554   C     0.50444   0.81332   0.92294   0.00000  Uiso   1.00
C555   C     0.45740   0.84070   0.89885   0.00000  Uiso   1.00
C556   C     0.41973   0.86076   0.94592   0.00000  Uiso   1.00
C557   C     0.34611   0.90096   0.00157   0.00000  Uiso   1.00
C558   C     0.55479   0.72675   0.90061   0.00000  Uiso   1.00
C559   C     0.55010   0.68134   0.85775   0.00000  Uiso   1.00
C560   C     0.55481   0.62852   0.88603   0.00000  Uiso   1.00
C561   C     0.55941   0.53433   0.90702   0.00000  Uiso   1.00
C562   C     0.60508   0.81529   0.90418   0.00000  Uiso   1.00
C563   C     0.64268   0.84431   0.86432   0.00000  Uiso   1.00
C564   C     0.68975   0.86603   0.89559   0.00000  Uiso   1.00
C565   C     0.77243   0.90931   0.92212   0.00000  Uiso   1.00
C566   C     0.56768   0.77504   0.00678   0.00000  Uiso   1.00
C567   C     0.51352   0.80622   0.99160   0.00000  Uiso   1.00
C568   C     0.47591   0.82624   0.03872   0.00000  Uiso   1.00
C569   C     0.42883   0.85365   0.01470   0.00000  Uiso   1.00
C570   C     0.56387   0.71965   0.96928   0.00000  Uiso   1.00
C571   C     0.56860   0.66689   0.99762   0.00000  Uiso   1.00
C572   C     0.56392   0.62141   0.95482   0.00000  Uiso   1.00
C573   C     0.61417   0.80819   0.97285   0.00000  Uiso   1.00
C574   C     0.66119   0.82986   0.00419   0.00000  Uiso   1.00
C575   C     0.69886   0.85892   0.96438   0.00000  Uiso   1.00
H576   H     0.54387   0.79362   0.82691   0.00000  Uiso   1.00
H577   H     0.45038   0.84618   0.84571   0.00000  Uiso   1.00
H578   H     0.54307   0.68685   0.80462   0.00000  Uiso   1.00
H579   H     0.63564   0.84980   0.81118   0.00000  Uiso   1.00
H580   H     0.35073   0.90129   0.89683   0.00000  Uiso   1.00
H581   H     0.54618   0.56534   0.81019   0.00000  Uiso   1.00
H582   H     0.74139   0.90895   0.82403   0.00000  Uiso   1.00
H583   H     0.57475   0.76951   0.06024   0.00000  Uiso   1.00
H584   H     0.48295   0.82075   0.09185   0.00000  Uiso   1.00
H585   H     0.57564   0.66141   0.05076   0.00000  Uiso   1.00
H586   H     0.66821   0.82436   0.05732   0.00000  Uiso   1.00
H587   H     0.37716   0.88065   0.09661   0.00000  Uiso   1.00
H588   H     0.57261   0.54469   0.00996   0.00000  Uiso   1.00
H589   H     0.76782   0.88831   0.02381   0.00000  Uiso   1.00
O590   O     0.30299   0.92509   0.01330   0.00000  Uiso   1.00
O591   O     0.55943   0.48433   0.89962   0.00000  Uiso   1.00
O592   O     0.81553   0.93515   0.91779   0.00000  Uiso   1.00
N593   N     0.36956   0.88942   0.93951   0.00000  Uiso   1.00
N594   N     0.55228   0.57531   0.85851   0.00000  Uiso   1.00
N595   N     0.73479   0.89655   0.87145   0.00000  Uiso   1.00
N596   N     0.38378   0.87831   0.04701   0.00000  Uiso   1.00
N597   N     0.56650   0.56421   0.96601   0.00000  Uiso   1.00
N598   N     0.74901   0.88544   0.97894   0.00000  Uiso   1.00
C599   C     0.05095   0.28810   0.38037   0.00000  Uiso   1.00
C600   C     0.00444   0.31332   0.42294   0.00000  Uiso   1.00
C601   C     0.95740   0.34070   0.39885   0.00000  Uiso   1.00
C602   C     0.91973   0.36076   0.44592   0.00000  Uiso   1.00
C603   C     0.84611   0.40096   0.50157   0.00000  Uiso   1.00
C604   C     0.05479   0.22675   0.40061   0.00000  Uiso   1.00
C605   C     0.05010   0.18134   0.35775   0.00000  Uiso   1.00
C606   C     0.05481   0.12852   0.38603   0.00000  Uiso   1.00
C607   C     0.05941   0.03433   0.40702   0.00000  Uiso   1.00
C608   C     0.10508   0.31529   0.40418   0.00000  Uiso   1.00
C609   C     0.14268   0.34431   0.36432   0.00000  Uiso   1.00
C610   C     0.18975   0.36603   0.39559   0.00000  Uiso   1.00
C611   C     0.27243   0.40931   0.42212   0.00000  Uiso   1.00
C612   C     0.06768   0.27504   0.50678   0.00000  Uiso   1.00
C613   C     0.01352   0.30622   0.49160   0.00000  Uiso   1.00
C614   C     0.97591   0.32624   0.53872   0.00000  Uiso   1.00
C615   C     0.92883   0.35365   0.51470   0.00000  Uiso   1.00
C616   C     0.06387   0.21965   0.46928   0.00000  Uiso   1.00
C617   C     0.06860   0.16689   0.49762   0.00000  Uiso   1.00
C618   C     0.06392   0.12141   0.45482   0.00000  Uiso   1.00
C619   C     0.11417   0.30819   0.47285   0.00000  Uiso   1.00
C620   C     0.16119   0.32986   0.50419   0.00000  Uiso   1.00
C621   C     0.19886   0.35892   0.46438   0.00000  Uiso   1.00
H622   H     0.04387   0.29362   0.32691   0.00000  Uiso   1.00
H623   H     0.95038   0.34618   0.34571   0.00000  Uiso   1.00
H624   H     0.04307   0.18685   0.30462   0.00000  Uiso   1.00
H625   H     0.13564   0.34980   0.31118   0.00000  Uiso   1.00
H626   H     0.85073   0.40129   0.39683   0.00000  Uiso   1.00
H627   H     0.04618   0.06534   0.31019   0.00000  Uiso   1.00
H628   H     0.24139   0.40895   0.32403   0.00000  Uiso   1.00
H629   H     0.07475   0.26951   0.56024   0.00000  Uiso   1.00
H630   H     0.98295   0.32075   0.59185   0.00000  Uiso   1.00
H631   H     0.07564   0.16141   0.55076   0.00000  Uiso   1.00
H632   H     0.16821   0.32436   0.55732   0.00000  Uiso   1.00
H633   H     0.87716   0.38065   0.59661   0.00000  Uiso   1.00
H634   H     0.07261   0.04469   0.50996   0.00000  Uiso   1.00
H635   H     0.26782   0.38831   0.52381   0.00000  Uiso   1.00
O636   O     0.80299   0.42509   0.51330   0.00000  Uiso   1.00
O637   O     0.05943   0.98433   0.39962   0.00000  Uiso   1.00
O638   O     0.31553   0.43515   0.41779   0.00000  Uiso   1.00
N639   N     0.86956   0.38942   0.43951   0.00000  Uiso   1.00
N640   N     0.05228   0.07531   0.35851   0.00000  Uiso   1.00
N641   N     0.23479   0.39655   0.37145   0.00000  Uiso   1.00
N642   N     0.88378   0.37831   0.54701   0.00000  Uiso   1.00
N643   N     0.06650   0.06421   0.46601   0.00000  Uiso   1.00
N644   N     0.24901   0.38544   0.47894   0.00000  Uiso   1.00
C645   C     0.94905   0.71190   0.38037   0.00000  Uiso   1.00
C646   C     0.99556   0.68668   0.42294   0.00000  Uiso   1.00
C647   C     0.04260   0.65930   0.39885   0.00000  Uiso   1.00
C648   C     0.08027   0.63924   0.44592   0.00000  Uiso   1.00
C649   C     0.15389   0.59904   0.50157   0.00000  Uiso   1.00
C650   C     0.94521   0.77325   0.40061   0.00000  Uiso   1.00
C651   C     0.94990   0.81866   0.35775   0.00000  Uiso   1.00
C652   C     0.94519   0.87148   0.38603   0.00000  Uiso   1.00
C653   C     0.94059   0.96567   0.40702   0.00000  Uiso   1.00
C654   C     0.89492   0.68471   0.40418   0.00000  Uiso   1.00
C655   C     0.85732   0.65569   0.36432   0.00000  Uiso   1.00
C656   C     0.81025   0.63397   0.39559   0.00000  Uiso   1.00
C657   C     0.72757   0.59069   0.42212   0.00000  Uiso   1.00
C658   C     0.93232   0.72496   0.50678   0.00000  Uiso   1.00
C659   C     0.98648   0.69378   0.49160   0.00000  Uiso   1.00
C660   C     0.02409   0.67376   0.53872   0.00000  Uiso   1.00
C661   C     0.07117   0.64635   0.51470   0.00000  Uiso   1.00
C662   C     0.93613   0.78035   0.46928   0.00000  Uiso   1.00
C663   C     0.93140   0.83311   0.49762   0.00000  Uiso   1.00
C664   C     0.93608   0.87859   0.45482   0.00000  Uiso   1.00
C665   C     0.88583   0.69181   0.47285   0.00000  Uiso   1.00
C666   C     0.83881   0.67014   0.50419   0.00000  Uiso   1.00
C667   C     0.80114   0.64108   0.46438   0.00000  Uiso   1.00
H668   H     0.95613   0.70638   0.32691   0.00000  Uiso   1.00
H669   H     0.04962   0.65382   0.34571   0.00000  Uiso   1.00
H670   H     0.95693   0.81315   0.30462   0.00000  Uiso   1.00
H671   H     0.86436   0.65020   0.31118   0.00000  Uiso   1.00
H672   H     0.14927   0.59871   0.39683   0.00000  Uiso   1.00
H673   H     0.95382   0.93466   0.31019   0.00000  Uiso   1.00
H674   H     0.75861   0.59105   0.32403   0.00000  Uiso   1.00
H675   H     0.92525   0.73049   0.56024   0.00000  Uiso   1.00
H676   H     0.01705   0.67925   0.59185   0.00000  Uiso   1.00
H677   H     0.92436   0.83859   0.55076   0.00000  Uiso   1.00
H678   H     0.83179   0.67564   0.55732   0.00000  Uiso   1.00
H679   H     0.12284   0.61935   0.59661   0.00000  Uiso   1.00
H680   H     0.92739   0.95531   0.50996   0.00000  Uiso   1.00
H681   H     0.73218   0.61169   0.52381   0.00000  Uiso   1.00
O682   O     0.19701   0.57491   0.51330   0.00000  Uiso   1.00
O683   O     0.94057   0.01567   0.39962   0.00000  Uiso   1.00
O684   O     0.68447   0.56485   0.41779   0.00000  Uiso   1.00
N685   N     0.13044   0.61058   0.43951   0.00000  Uiso   1.00
N686   N     0.94772   0.92469   0.35851   0.00000  Uiso   1.00
N687   N     0.76521   0.60345   0.37145   0.00000  Uiso   1.00
N688   N     0.11622   0.62169   0.54701   0.00000  Uiso   1.00
N689   N     0.93350   0.93579   0.46601   0.00000  Uiso   1.00
N690   N     0.75099   0.61456   0.47894   0.00000  Uiso   1.00
C691   C     0.44905   0.21190   0.88037   0.00000  Uiso   1.00
C692   C     0.49556   0.18668   0.92294   0.00000  Uiso   1.00
C693   C     0.54260   0.15930   0.89885   0.00000  Uiso   1.00
C694   C     0.58027   0.13924   0.94592   0.00000  Uiso   1.00
C695   C     0.65389   0.09904   0.00157   0.00000  Uiso   1.00
C696   C     0.44521   0.27325   0.90061   0.00000  Uiso   1.00
C697   C     0.44990   0.31866   0.85775   0.00000  Uiso   1.00
C698   C     0.44519   0.37148   0.88603   0.00000  Uiso   1.00
C699   C     0.44059   0.46567   0.90702   0.00000  Uiso   1.00
C700   C     0.39492   0.18471   0.90418   0.00000  Uiso   1.00
C701   C     0.35732   0.15569   0.86432   0.00000  Uiso   1.00
C702   C     0.31025   0.13397   0.89559   0.00000  Uiso   1.00
C703   C     0.22757   0.09069   0.92212   0.00000  Uiso   1.00
C704   C     0.43232   0.22496   0.00678   0.00000  Uiso   1.00
C705   C     0.48648   0.19378   0.99160   0.00000  Uiso   1.00
C706   C     0.52409   0.17376   0.03872   0.00000  Uiso   1.00
C707   C     0.57117   0.14635   0.01470   0.00000  Uiso   1.00
C708   C     0.43613   0.28035   0.96928   0.00000  Uiso   1.00
C709   C     0.43140   0.33311   0.99762   0.00000  Uiso   1.00
C710   C     0.43608   0.37859   0.95482   0.00000  Uiso   1.00
C711   C     0.38583   0.19181   0.97285   0.00000  Uiso   1.00
C712   C     0.33881   0.17014   0.00419   0.00000  Uiso   1.00
C713   C     0.30114   0.14108   0.96438   0.00000  Uiso   1.00
H714   H     0.45613   0.20638   0.82691   0.00000  Uiso   1.00
H715   H     0.54962   0.15382   0.84571   0.00000  Uiso   1.00
H716   H     0.45693   0.31315   0.80462   0.00000  Uiso   1.00
H717   H     0.36436   0.15020   0.81118   0.00000  Uiso   1.00
H718   H     0.64927   0.09871   0.89683   0.00000  Uiso   1.00
H719   H     0.45382   0.43466   0.81019   0.00000  Uiso   1.00
H720   H     0.25861   0.09105   0.82403   0.00000  Uiso   1.00
H721   H     0.42525   0.23049   0.06024   0.00000  Uiso   1.00
H722   H     0.51705   0.17925   0.09185   0.00000  Uiso   1.00
H723   H     0.42436   0.33859   0.05076   0.00000  Uiso   1.00
H724   H     0.33179   0.17564   0.05732   0.00000  Uiso   1.00
H725   H     0.62284   0.11935   0.09661   0.00000  Uiso   1.00
H726   H     0.42739   0.45531   0.00996   0.00000  Uiso   1.00
H727   H     0.23218   0.11169   0.02381   0.00000  Uiso   1.00
O728   O     0.69701   0.07491   0.01330   0.00000  Uiso   1.00
O729   O     0.44057   0.51567   0.89962   0.00000  Uiso   1.00
O730   O     0.18447   0.06485   0.91779   0.00000  Uiso   1.00
N731   N     0.63044   0.11058   0.93951   0.00000  Uiso   1.00
N732   N     0.44772   0.42469   0.85851   0.00000  Uiso   1.00
N733   N     0.26521   0.10345   0.87145   0.00000  Uiso   1.00
N734   N     0.61622   0.12169   0.04701   0.00000  Uiso   1.00
N735   N     0.43350   0.43579   0.96601   0.00000  Uiso   1.00
N736   N     0.25099   0.11456   0.97894   0.00000  Uiso   1.00
