data_job_05497
_audit_creation_date              2018-12-19
_audit_creation_method            'Materials Studio'
_symmetry_space_group_name_H-M    'P1'
_symmetry_Int_Tables_number       1
_symmetry_cell_setting            triclinic
loop_
_symmetry_equiv_pos_as_xyz
  x,y,z
_cell_length_a                    21.9058
_cell_length_b                    21.9058
_cell_length_c                    26.8344
_cell_angle_alpha                 90.0000
_cell_angle_beta                  90.0000
_cell_angle_gamma                 90.0000
loop_
_atom_site_label
_atom_site_type_symbol
_atom_site_fract_x
_atom_site_fract_y
_atom_site_fract_z
_atom_site_U_iso_or_equiv
_atom_site_adp_type
_atom_site_occupancy
C1     C     0.37260   0.55151   0.78045   0.00000  Uiso   1.00
C2     C     0.39575   0.48631   0.78675   0.00000  Uiso   1.00
C3     C     0.43236   0.46541   0.82535   0.00000  Uiso   1.00
C4     C     0.44865   0.40417   0.82440   0.00000  Uiso   1.00
C5     C     0.48762   0.30886   0.83998   0.00000  Uiso   1.00
C6     C     0.39401   0.57219   0.72908   0.00000  Uiso   1.00
C7     C     0.42915   0.62350   0.71919   0.00000  Uiso   1.00
C8     C     0.44396   0.63455   0.66970   0.00000  Uiso   1.00
C9     C     0.48018   0.67260   0.59574   0.00000  Uiso   1.00
C10    C     0.30324   0.54697   0.77733   0.00000  Uiso   1.00
C11    C     0.26206   0.57707   0.80800   0.00000  Uiso   1.00
C12    C     0.20045   0.56690   0.79912   0.00000  Uiso   1.00
C13    C     0.09575   0.56577   0.80008   0.00000  Uiso   1.00
C14    C     0.33641   0.47992   0.71013   0.00000  Uiso   1.00
C15    C     0.37609   0.44743   0.74855   0.00000  Uiso   1.00
C16    C     0.39233   0.38621   0.74755   0.00000  Uiso   1.00
C17    C     0.42896   0.36522   0.78615   0.00000  Uiso   1.00
C18    C     0.37435   0.53331   0.69089   0.00000  Uiso   1.00
C19    C     0.38911   0.54430   0.64140   0.00000  Uiso   1.00
C20    C     0.42427   0.59560   0.63144   0.00000  Uiso   1.00
C21    C     0.28358   0.50808   0.73914   0.00000  Uiso   1.00
C22    C     0.22202   0.49787   0.73021   0.00000  Uiso   1.00
C23    C     0.18076   0.52795   0.76086   0.00000  Uiso   1.00
H24    H     0.38790   0.58178   0.81018   0.00000  Uiso   1.00
H25    H     0.44757   0.49552   0.85489   0.00000  Uiso   1.00
H26    H     0.44435   0.65358   0.74875   0.00000  Uiso   1.00
H27    H     0.27729   0.60716   0.83755   0.00000  Uiso   1.00
H28    H     0.50508   0.38273   0.88762   0.00000  Uiso   1.00
H29    H     0.49826   0.71603   0.66381   0.00000  Uiso   1.00
H30    H     0.14599   0.61814   0.85105   0.00000  Uiso   1.00
H31    H     0.32110   0.44965   0.68040   0.00000  Uiso   1.00
H32    H     0.37711   0.35613   0.71799   0.00000  Uiso   1.00
H33    H     0.37389   0.51420   0.61185   0.00000  Uiso   1.00
H34    H     0.20683   0.46777   0.70065   0.00000  Uiso   1.00
H35    H     0.44789   0.26960   0.77650   0.00000  Uiso   1.00
H36    H     0.44108   0.60291   0.55269   0.00000  Uiso   1.00
H37    H     0.08880   0.50501   0.73994   0.00000  Uiso   1.00
O38    O     0.51455   0.26703   0.85912   0.00000  Uiso   1.00
O39    O     0.50560   0.70432   0.56550   0.00000  Uiso   1.00
O40    O     0.04342   0.57589   0.81116   0.00000  Uiso   1.00
N41    N     0.48392   0.36894   0.85631   0.00000  Uiso   1.00
N42    N     0.47756   0.68055   0.64707   0.00000  Uiso   1.00
N43    N     0.14821   0.58904   0.82212   0.00000  Uiso   1.00
N44    N     0.45315   0.30806   0.79652   0.00000  Uiso   1.00
N45    N     0.44679   0.61968   0.58728   0.00000  Uiso   1.00
N46    N     0.11744   0.52817   0.76233   0.00000  Uiso   1.00
C47    C     0.87260   0.05151   0.28045   0.00000  Uiso   1.00
C48    C     0.89575   0.98631   0.28675   0.00000  Uiso   1.00
C49    C     0.93236   0.96541   0.32535   0.00000  Uiso   1.00
C50    C     0.94865   0.90417   0.32440   0.00000  Uiso   1.00
C51    C     0.98762   0.80886   0.33998   0.00000  Uiso   1.00
C52    C     0.89401   0.07219   0.22908   0.00000  Uiso   1.00
C53    C     0.92915   0.12350   0.21919   0.00000  Uiso   1.00
C54    C     0.94396   0.13455   0.16970   0.00000  Uiso   1.00
C55    C     0.98018   0.17260   0.09574   0.00000  Uiso   1.00
C56    C     0.80324   0.04697   0.27733   0.00000  Uiso   1.00
C57    C     0.76206   0.07707   0.30800   0.00000  Uiso   1.00
C58    C     0.70045   0.06690   0.29912   0.00000  Uiso   1.00
C59    C     0.59575   0.06577   0.30008   0.00000  Uiso   1.00
C60    C     0.83641   0.97992   0.21013   0.00000  Uiso   1.00
C61    C     0.87609   0.94743   0.24855   0.00000  Uiso   1.00
C62    C     0.89233   0.88621   0.24755   0.00000  Uiso   1.00
C63    C     0.92896   0.86522   0.28615   0.00000  Uiso   1.00
C64    C     0.87435   0.03331   0.19089   0.00000  Uiso   1.00
C65    C     0.88911   0.04430   0.14140   0.00000  Uiso   1.00
C66    C     0.92427   0.09560   0.13144   0.00000  Uiso   1.00
C67    C     0.78358   0.00808   0.23914   0.00000  Uiso   1.00
C68    C     0.72202   0.99787   0.23021   0.00000  Uiso   1.00
C69    C     0.68076   0.02795   0.26086   0.00000  Uiso   1.00
H70    H     0.88790   0.08178   0.31018   0.00000  Uiso   1.00
H71    H     0.94757   0.99552   0.35489   0.00000  Uiso   1.00
H72    H     0.94435   0.15358   0.24875   0.00000  Uiso   1.00
H73    H     0.77729   0.10716   0.33755   0.00000  Uiso   1.00
H74    H     0.00508   0.88273   0.38762   0.00000  Uiso   1.00
H75    H     0.99826   0.21603   0.16381   0.00000  Uiso   1.00
H76    H     0.64599   0.11814   0.35105   0.00000  Uiso   1.00
H77    H     0.82110   0.94965   0.18040   0.00000  Uiso   1.00
H78    H     0.87711   0.85613   0.21799   0.00000  Uiso   1.00
H79    H     0.87389   0.01420   0.11185   0.00000  Uiso   1.00
H80    H     0.70683   0.96777   0.20065   0.00000  Uiso   1.00
H81    H     0.94789   0.76960   0.27650   0.00000  Uiso   1.00
H82    H     0.94108   0.10291   0.05269   0.00000  Uiso   1.00
H83    H     0.58880   0.00501   0.23994   0.00000  Uiso   1.00
O84    O     0.01455   0.76703   0.35912   0.00000  Uiso   1.00
O85    O     0.00560   0.20432   0.06550   0.00000  Uiso   1.00
O86    O     0.54342   0.07589   0.31116   0.00000  Uiso   1.00
N87    N     0.98392   0.86894   0.35631   0.00000  Uiso   1.00
N88    N     0.97756   0.18055   0.14707   0.00000  Uiso   1.00
N89    N     0.64821   0.08904   0.32212   0.00000  Uiso   1.00
N90    N     0.95315   0.80806   0.29652   0.00000  Uiso   1.00
N91    N     0.94679   0.11968   0.08728   0.00000  Uiso   1.00
N92    N     0.61744   0.02817   0.26233   0.00000  Uiso   1.00
C93    C     0.62740   0.44849   0.78045   0.00000  Uiso   1.00
C94    C     0.60425   0.51369   0.78675   0.00000  Uiso   1.00
C95    C     0.56764   0.53459   0.82535   0.00000  Uiso   1.00
C96    C     0.55135   0.59583   0.82440   0.00000  Uiso   1.00
C97    C     0.51238   0.69114   0.83998   0.00000  Uiso   1.00
C98    C     0.60599   0.42781   0.72908   0.00000  Uiso   1.00
C99    C     0.57085   0.37650   0.71919   0.00000  Uiso   1.00
C100   C     0.55604   0.36545   0.66970   0.00000  Uiso   1.00
C101   C     0.51982   0.32740   0.59574   0.00000  Uiso   1.00
C102   C     0.69676   0.45303   0.77733   0.00000  Uiso   1.00
C103   C     0.73794   0.42293   0.80800   0.00000  Uiso   1.00
C104   C     0.79955   0.43310   0.79912   0.00000  Uiso   1.00
C105   C     0.90425   0.43423   0.80008   0.00000  Uiso   1.00
C106   C     0.66359   0.52008   0.71013   0.00000  Uiso   1.00
C107   C     0.62391   0.55257   0.74855   0.00000  Uiso   1.00
C108   C     0.60767   0.61379   0.74755   0.00000  Uiso   1.00
C109   C     0.57104   0.63478   0.78615   0.00000  Uiso   1.00
C110   C     0.62565   0.46669   0.69089   0.00000  Uiso   1.00
C111   C     0.61089   0.45570   0.64140   0.00000  Uiso   1.00
C112   C     0.57573   0.40440   0.63144   0.00000  Uiso   1.00
C113   C     0.71642   0.49192   0.73914   0.00000  Uiso   1.00
C114   C     0.77798   0.50213   0.73021   0.00000  Uiso   1.00
C115   C     0.81924   0.47205   0.76086   0.00000  Uiso   1.00
H116   H     0.61210   0.41822   0.81018   0.00000  Uiso   1.00
H117   H     0.55243   0.50448   0.85489   0.00000  Uiso   1.00
H118   H     0.55565   0.34642   0.74875   0.00000  Uiso   1.00
H119   H     0.72271   0.39284   0.83755   0.00000  Uiso   1.00
H120   H     0.49492   0.61727   0.88762   0.00000  Uiso   1.00
H121   H     0.50174   0.28397   0.66381   0.00000  Uiso   1.00
H122   H     0.85401   0.38186   0.85105   0.00000  Uiso   1.00
H123   H     0.67890   0.55035   0.68040   0.00000  Uiso   1.00
H124   H     0.62289   0.64387   0.71799   0.00000  Uiso   1.00
H125   H     0.62611   0.48580   0.61185   0.00000  Uiso   1.00
H126   H     0.79317   0.53223   0.70065   0.00000  Uiso   1.00
H127   H     0.55211   0.73040   0.77650   0.00000  Uiso   1.00
H128   H     0.55892   0.39709   0.55269   0.00000  Uiso   1.00
H129   H     0.91120   0.49499   0.73994   0.00000  Uiso   1.00
O130   O     0.48545   0.73297   0.85912   0.00000  Uiso   1.00
O131   O     0.49440   0.29568   0.56550   0.00000  Uiso   1.00
O132   O     0.95658   0.42411   0.81116   0.00000  Uiso   1.00
N133   N     0.51608   0.63106   0.85631   0.00000  Uiso   1.00
N134   N     0.52244   0.31945   0.64707   0.00000  Uiso   1.00
N135   N     0.85179   0.41096   0.82212   0.00000  Uiso   1.00
N136   N     0.54685   0.69194   0.79652   0.00000  Uiso   1.00
N137   N     0.55321   0.38032   0.58728   0.00000  Uiso   1.00
N138   N     0.88256   0.47183   0.76233   0.00000  Uiso   1.00
C139   C     0.12740   0.94849   0.28045   0.00000  Uiso   1.00
C140   C     0.10425   0.01369   0.28675   0.00000  Uiso   1.00
C141   C     0.06764   0.03459   0.32535   0.00000  Uiso   1.00
C142   C     0.05135   0.09583   0.32440   0.00000  Uiso   1.00
C143   C     0.01238   0.19114   0.33998   0.00000  Uiso   1.00
C144   C     0.10599   0.92781   0.22908   0.00000  Uiso   1.00
C145   C     0.07085   0.87650   0.21919   0.00000  Uiso   1.00
C146   C     0.05604   0.86545   0.16970   0.00000  Uiso   1.00
C147   C     0.01982   0.82740   0.09574   0.00000  Uiso   1.00
C148   C     0.19676   0.95303   0.27733   0.00000  Uiso   1.00
C149   C     0.23794   0.92293   0.30800   0.00000  Uiso   1.00
C150   C     0.29955   0.93310   0.29912   0.00000  Uiso   1.00
C151   C     0.40425   0.93423   0.30008   0.00000  Uiso   1.00
C152   C     0.16359   0.02008   0.21013   0.00000  Uiso   1.00
C153   C     0.12391   0.05257   0.24855   0.00000  Uiso   1.00
C154   C     0.10767   0.11379   0.24755   0.00000  Uiso   1.00
C155   C     0.07104   0.13478   0.28615   0.00000  Uiso   1.00
C156   C     0.12565   0.96669   0.19089   0.00000  Uiso   1.00
C157   C     0.11089   0.95570   0.14140   0.00000  Uiso   1.00
C158   C     0.07573   0.90440   0.13144   0.00000  Uiso   1.00
C159   C     0.21642   0.99192   0.23914   0.00000  Uiso   1.00
C160   C     0.27798   0.00213   0.23021   0.00000  Uiso   1.00
C161   C     0.31924   0.97205   0.26086   0.00000  Uiso   1.00
H162   H     0.11210   0.91822   0.31018   0.00000  Uiso   1.00
H163   H     0.05243   0.00448   0.35489   0.00000  Uiso   1.00
H164   H     0.05565   0.84642   0.24875   0.00000  Uiso   1.00
H165   H     0.22271   0.89284   0.33755   0.00000  Uiso   1.00
H166   H     0.99492   0.11727   0.38762   0.00000  Uiso   1.00
H167   H     0.00174   0.78397   0.16381   0.00000  Uiso   1.00
H168   H     0.35401   0.88186   0.35105   0.00000  Uiso   1.00
H169   H     0.17890   0.05035   0.18040   0.00000  Uiso   1.00
H170   H     0.12289   0.14387   0.21799   0.00000  Uiso   1.00
H171   H     0.12611   0.98580   0.11185   0.00000  Uiso   1.00
H172   H     0.29317   0.03223   0.20065   0.00000  Uiso   1.00
H173   H     0.05211   0.23040   0.27650   0.00000  Uiso   1.00
H174   H     0.05892   0.89709   0.05269   0.00000  Uiso   1.00
H175   H     0.41120   0.99499   0.23994   0.00000  Uiso   1.00
O176   O     0.98545   0.23297   0.35912   0.00000  Uiso   1.00
O177   O     0.99440   0.79568   0.06550   0.00000  Uiso   1.00
O178   O     0.45658   0.92411   0.31116   0.00000  Uiso   1.00
N179   N     0.01608   0.13106   0.35631   0.00000  Uiso   1.00
N180   N     0.02244   0.81945   0.14707   0.00000  Uiso   1.00
N181   N     0.35179   0.91096   0.32212   0.00000  Uiso   1.00
N182   N     0.04685   0.19194   0.29652   0.00000  Uiso   1.00
N183   N     0.05321   0.88032   0.08728   0.00000  Uiso   1.00
N184   N     0.38256   0.97183   0.26233   0.00000  Uiso   1.00
C185   C     0.55151   0.62740   0.21955   0.00000  Uiso   1.00
C186   C     0.48631   0.60425   0.21325   0.00000  Uiso   1.00
C187   C     0.46541   0.56764   0.17465   0.00000  Uiso   1.00
C188   C     0.40417   0.55135   0.17560   0.00000  Uiso   1.00
C189   C     0.30886   0.51238   0.16002   0.00000  Uiso   1.00
C190   C     0.57219   0.60599   0.27092   0.00000  Uiso   1.00
C191   C     0.62350   0.57085   0.28081   0.00000  Uiso   1.00
C192   C     0.63455   0.55604   0.33030   0.00000  Uiso   1.00
C193   C     0.67260   0.51982   0.40426   0.00000  Uiso   1.00
C194   C     0.54697   0.69676   0.22267   0.00000  Uiso   1.00
C195   C     0.57707   0.73794   0.19200   0.00000  Uiso   1.00
C196   C     0.56690   0.79955   0.20088   0.00000  Uiso   1.00
C197   C     0.56577   0.90425   0.19992   0.00000  Uiso   1.00
C198   C     0.47992   0.66359   0.28987   0.00000  Uiso   1.00
C199   C     0.44743   0.62391   0.25145   0.00000  Uiso   1.00
C200   C     0.38621   0.60767   0.25245   0.00000  Uiso   1.00
C201   C     0.36522   0.57104   0.21385   0.00000  Uiso   1.00
C202   C     0.53331   0.62565   0.30911   0.00000  Uiso   1.00
C203   C     0.54430   0.61089   0.35860   0.00000  Uiso   1.00
C204   C     0.59560   0.57573   0.36856   0.00000  Uiso   1.00
C205   C     0.50808   0.71642   0.26086   0.00000  Uiso   1.00
C206   C     0.49787   0.77798   0.26979   0.00000  Uiso   1.00
C207   C     0.52795   0.81924   0.23914   0.00000  Uiso   1.00
H208   H     0.58178   0.61210   0.18982   0.00000  Uiso   1.00
H209   H     0.49552   0.55243   0.14511   0.00000  Uiso   1.00
H210   H     0.65358   0.55565   0.25125   0.00000  Uiso   1.00
H211   H     0.60716   0.72271   0.16245   0.00000  Uiso   1.00
H212   H     0.38273   0.49492   0.11238   0.00000  Uiso   1.00
H213   H     0.71603   0.50174   0.33619   0.00000  Uiso   1.00
H214   H     0.61814   0.85401   0.14895   0.00000  Uiso   1.00
H215   H     0.44965   0.67890   0.31960   0.00000  Uiso   1.00
H216   H     0.35613   0.62289   0.28201   0.00000  Uiso   1.00
H217   H     0.51420   0.62611   0.38815   0.00000  Uiso   1.00
H218   H     0.46777   0.79317   0.29935   0.00000  Uiso   1.00
H219   H     0.26960   0.55211   0.22350   0.00000  Uiso   1.00
H220   H     0.60291   0.55892   0.44731   0.00000  Uiso   1.00
H221   H     0.50501   0.91120   0.26006   0.00000  Uiso   1.00
O222   O     0.26703   0.48545   0.14088   0.00000  Uiso   1.00
O223   O     0.70432   0.49440   0.43450   0.00000  Uiso   1.00
O224   O     0.57589   0.95658   0.18884   0.00000  Uiso   1.00
N225   N     0.36894   0.51608   0.14369   0.00000  Uiso   1.00
N226   N     0.68055   0.52244   0.35293   0.00000  Uiso   1.00
N227   N     0.58904   0.85179   0.17788   0.00000  Uiso   1.00
N228   N     0.30806   0.54685   0.20348   0.00000  Uiso   1.00
N229   N     0.61968   0.55321   0.41272   0.00000  Uiso   1.00
N230   N     0.52817   0.88256   0.23767   0.00000  Uiso   1.00
C231   C     0.05151   0.12740   0.71955   0.00000  Uiso   1.00
C232   C     0.98631   0.10425   0.71325   0.00000  Uiso   1.00
C233   C     0.96541   0.06764   0.67465   0.00000  Uiso   1.00
C234   C     0.90417   0.05135   0.67560   0.00000  Uiso   1.00
C235   C     0.80886   0.01238   0.66002   0.00000  Uiso   1.00
C236   C     0.07219   0.10599   0.77092   0.00000  Uiso   1.00
C237   C     0.12350   0.07085   0.78081   0.00000  Uiso   1.00
C238   C     0.13455   0.05604   0.83030   0.00000  Uiso   1.00
C239   C     0.17260   0.01982   0.90426   0.00000  Uiso   1.00
C240   C     0.04697   0.19676   0.72267   0.00000  Uiso   1.00
C241   C     0.07707   0.23794   0.69200   0.00000  Uiso   1.00
C242   C     0.06690   0.29955   0.70088   0.00000  Uiso   1.00
C243   C     0.06577   0.40425   0.69992   0.00000  Uiso   1.00
C244   C     0.97992   0.16359   0.78987   0.00000  Uiso   1.00
C245   C     0.94743   0.12391   0.75145   0.00000  Uiso   1.00
C246   C     0.88621   0.10767   0.75245   0.00000  Uiso   1.00
C247   C     0.86522   0.07104   0.71385   0.00000  Uiso   1.00
C248   C     0.03331   0.12565   0.80911   0.00000  Uiso   1.00
C249   C     0.04430   0.11089   0.85860   0.00000  Uiso   1.00
C250   C     0.09560   0.07573   0.86856   0.00000  Uiso   1.00
C251   C     0.00808   0.21642   0.76086   0.00000  Uiso   1.00
C252   C     0.99787   0.27798   0.76979   0.00000  Uiso   1.00
C253   C     0.02795   0.31924   0.73914   0.00000  Uiso   1.00
H254   H     0.08178   0.11210   0.68982   0.00000  Uiso   1.00
H255   H     0.99552   0.05243   0.64511   0.00000  Uiso   1.00
H256   H     0.15358   0.05565   0.75125   0.00000  Uiso   1.00
H257   H     0.10716   0.22271   0.66245   0.00000  Uiso   1.00
H258   H     0.88273   0.99492   0.61238   0.00000  Uiso   1.00
H259   H     0.21603   0.00174   0.83619   0.00000  Uiso   1.00
H260   H     0.11814   0.35401   0.64895   0.00000  Uiso   1.00
H261   H     0.94965   0.17890   0.81960   0.00000  Uiso   1.00
H262   H     0.85613   0.12289   0.78201   0.00000  Uiso   1.00
H263   H     0.01420   0.12611   0.88815   0.00000  Uiso   1.00
H264   H     0.96777   0.29317   0.79935   0.00000  Uiso   1.00
H265   H     0.76960   0.05211   0.72350   0.00000  Uiso   1.00
H266   H     0.10291   0.05892   0.94731   0.00000  Uiso   1.00
H267   H     0.00501   0.41120   0.76006   0.00000  Uiso   1.00
O268   O     0.76703   0.98545   0.64088   0.00000  Uiso   1.00
O269   O     0.20432   0.99440   0.93450   0.00000  Uiso   1.00
O270   O     0.07589   0.45658   0.68884   0.00000  Uiso   1.00
N271   N     0.86894   0.01608   0.64369   0.00000  Uiso   1.00
N272   N     0.18055   0.02244   0.85293   0.00000  Uiso   1.00
N273   N     0.08904   0.35179   0.67788   0.00000  Uiso   1.00
N274   N     0.80806   0.04685   0.70348   0.00000  Uiso   1.00
N275   N     0.11968   0.05321   0.91272   0.00000  Uiso   1.00
N276   N     0.02817   0.38256   0.73767   0.00000  Uiso   1.00
C277   C     0.44849   0.37260   0.21955   0.00000  Uiso   1.00
C278   C     0.51369   0.39575   0.21325   0.00000  Uiso   1.00
C279   C     0.53459   0.43236   0.17465   0.00000  Uiso   1.00
C280   C     0.59583   0.44865   0.17560   0.00000  Uiso   1.00
C281   C     0.69114   0.48762   0.16002   0.00000  Uiso   1.00
C282   C     0.42781   0.39401   0.27092   0.00000  Uiso   1.00
C283   C     0.37650   0.42915   0.28081   0.00000  Uiso   1.00
C284   C     0.36545   0.44396   0.33030   0.00000  Uiso   1.00
C285   C     0.32740   0.48018   0.40426   0.00000  Uiso   1.00
C286   C     0.45303   0.30324   0.22267   0.00000  Uiso   1.00
C287   C     0.42293   0.26206   0.19200   0.00000  Uiso   1.00
C288   C     0.43310   0.20045   0.20088   0.00000  Uiso   1.00
C289   C     0.43423   0.09575   0.19992   0.00000  Uiso   1.00
C290   C     0.52008   0.33641   0.28987   0.00000  Uiso   1.00
C291   C     0.55257   0.37609   0.25145   0.00000  Uiso   1.00
C292   C     0.61379   0.39233   0.25245   0.00000  Uiso   1.00
C293   C     0.63478   0.42896   0.21385   0.00000  Uiso   1.00
C294   C     0.46669   0.37435   0.30911   0.00000  Uiso   1.00
C295   C     0.45570   0.38911   0.35860   0.00000  Uiso   1.00
C296   C     0.40440   0.42427   0.36856   0.00000  Uiso   1.00
C297   C     0.49192   0.28358   0.26086   0.00000  Uiso   1.00
C298   C     0.50213   0.22202   0.26979   0.00000  Uiso   1.00
C299   C     0.47205   0.18076   0.23914   0.00000  Uiso   1.00
H300   H     0.41822   0.38790   0.18982   0.00000  Uiso   1.00
H301   H     0.50448   0.44757   0.14511   0.00000  Uiso   1.00
H302   H     0.34642   0.44435   0.25125   0.00000  Uiso   1.00
H303   H     0.39284   0.27729   0.16245   0.00000  Uiso   1.00
H304   H     0.61727   0.50508   0.11238   0.00000  Uiso   1.00
H305   H     0.28397   0.49826   0.33619   0.00000  Uiso   1.00
H306   H     0.38186   0.14599   0.14895   0.00000  Uiso   1.00
H307   H     0.55035   0.32110   0.31960   0.00000  Uiso   1.00
H308   H     0.64387   0.37711   0.28201   0.00000  Uiso   1.00
H309   H     0.48580   0.37389   0.38815   0.00000  Uiso   1.00
H310   H     0.53223   0.20683   0.29935   0.00000  Uiso   1.00
H311   H     0.73040   0.44789   0.22350   0.00000  Uiso   1.00
H312   H     0.39709   0.44108   0.44731   0.00000  Uiso   1.00
H313   H     0.49499   0.08880   0.26006   0.00000  Uiso   1.00
O314   O     0.73297   0.51455   0.14088   0.00000  Uiso   1.00
O315   O     0.29568   0.50560   0.43450   0.00000  Uiso   1.00
O316   O     0.42411   0.04342   0.18884   0.00000  Uiso   1.00
N317   N     0.63106   0.48392   0.14369   0.00000  Uiso   1.00
N318   N     0.31945   0.47756   0.35293   0.00000  Uiso   1.00
N319   N     0.41096   0.14821   0.17788   0.00000  Uiso   1.00
N320   N     0.69194   0.45315   0.20348   0.00000  Uiso   1.00
N321   N     0.38032   0.44679   0.41272   0.00000  Uiso   1.00
N322   N     0.47183   0.11744   0.23767   0.00000  Uiso   1.00
C323   C     0.94849   0.87260   0.71955   0.00000  Uiso   1.00
C324   C     0.01369   0.89575   0.71325   0.00000  Uiso   1.00
C325   C     0.03459   0.93236   0.67465   0.00000  Uiso   1.00
C326   C     0.09583   0.94865   0.67560   0.00000  Uiso   1.00
C327   C     0.19114   0.98762   0.66002   0.00000  Uiso   1.00
C328   C     0.92781   0.89401   0.77092   0.00000  Uiso   1.00
C329   C     0.87650   0.92915   0.78081   0.00000  Uiso   1.00
C330   C     0.86545   0.94396   0.83030   0.00000  Uiso   1.00
C331   C     0.82740   0.98018   0.90426   0.00000  Uiso   1.00
C332   C     0.95303   0.80324   0.72267   0.00000  Uiso   1.00
C333   C     0.92293   0.76206   0.69200   0.00000  Uiso   1.00
C334   C     0.93310   0.70045   0.70088   0.00000  Uiso   1.00
C335   C     0.93423   0.59575   0.69992   0.00000  Uiso   1.00
C336   C     0.02008   0.83641   0.78987   0.00000  Uiso   1.00
C337   C     0.05257   0.87609   0.75145   0.00000  Uiso   1.00
C338   C     0.11379   0.89233   0.75245   0.00000  Uiso   1.00
C339   C     0.13478   0.92896   0.71385   0.00000  Uiso   1.00
C340   C     0.96669   0.87435   0.80911   0.00000  Uiso   1.00
C341   C     0.95570   0.88911   0.85860   0.00000  Uiso   1.00
C342   C     0.90440   0.92427   0.86856   0.00000  Uiso   1.00
C343   C     0.99192   0.78358   0.76086   0.00000  Uiso   1.00
C344   C     0.00213   0.72202   0.76979   0.00000  Uiso   1.00
C345   C     0.97205   0.68076   0.73914   0.00000  Uiso   1.00
H346   H     0.91822   0.88790   0.68982   0.00000  Uiso   1.00
H347   H     0.00448   0.94757   0.64511   0.00000  Uiso   1.00
H348   H     0.84642   0.94435   0.75125   0.00000  Uiso   1.00
H349   H     0.89284   0.77729   0.66245   0.00000  Uiso   1.00
H350   H     0.11727   0.00508   0.61238   0.00000  Uiso   1.00
H351   H     0.78397   0.99826   0.83619   0.00000  Uiso   1.00
H352   H     0.88186   0.64599   0.64895   0.00000  Uiso   1.00
H353   H     0.05035   0.82110   0.81960   0.00000  Uiso   1.00
H354   H     0.14387   0.87711   0.78201   0.00000  Uiso   1.00
H355   H     0.98580   0.87389   0.88815   0.00000  Uiso   1.00
H356   H     0.03223   0.70683   0.79935   0.00000  Uiso   1.00
H357   H     0.23040   0.94789   0.72350   0.00000  Uiso   1.00
H358   H     0.89709   0.94108   0.94731   0.00000  Uiso   1.00
H359   H     0.99499   0.58880   0.76006   0.00000  Uiso   1.00
O360   O     0.23297   0.01455   0.64088   0.00000  Uiso   1.00
O361   O     0.79568   0.00560   0.93450   0.00000  Uiso   1.00
O362   O     0.92411   0.54342   0.68884   0.00000  Uiso   1.00
N363   N     0.13106   0.98392   0.64369   0.00000  Uiso   1.00
N364   N     0.81945   0.97756   0.85293   0.00000  Uiso   1.00
N365   N     0.91096   0.64821   0.67788   0.00000  Uiso   1.00
N366   N     0.19194   0.95315   0.70348   0.00000  Uiso   1.00
N367   N     0.88032   0.94679   0.91272   0.00000  Uiso   1.00
N368   N     0.97183   0.61744   0.73767   0.00000  Uiso   1.00
C369   C     0.12740   0.55151   0.96955   0.00000  Uiso   1.00
C370   C     0.10425   0.48631   0.96325   0.00000  Uiso   1.00
C371   C     0.06764   0.46541   0.92465   0.00000  Uiso   1.00
C372   C     0.05135   0.40417   0.92560   0.00000  Uiso   1.00
C373   C     0.01238   0.30886   0.91002   0.00000  Uiso   1.00
C374   C     0.10599   0.57219   0.02092   0.00000  Uiso   1.00
C375   C     0.07085   0.62350   0.03081   0.00000  Uiso   1.00
C376   C     0.05604   0.63455   0.08030   0.00000  Uiso   1.00
C377   C     0.01982   0.67260   0.15426   0.00000  Uiso   1.00
C378   C     0.19676   0.54697   0.97267   0.00000  Uiso   1.00
C379   C     0.23794   0.57707   0.94200   0.00000  Uiso   1.00
C380   C     0.29955   0.56690   0.95088   0.00000  Uiso   1.00
C381   C     0.40425   0.56577   0.94992   0.00000  Uiso   1.00
C382   C     0.16359   0.47992   0.03987   0.00000  Uiso   1.00
C383   C     0.12391   0.44743   0.00145   0.00000  Uiso   1.00
C384   C     0.10767   0.38621   0.00245   0.00000  Uiso   1.00
C385   C     0.07104   0.36522   0.96385   0.00000  Uiso   1.00
C386   C     0.12565   0.53331   0.05911   0.00000  Uiso   1.00
C387   C     0.11089   0.54430   0.10860   0.00000  Uiso   1.00
C388   C     0.07573   0.59560   0.11856   0.00000  Uiso   1.00
C389   C     0.21642   0.50808   0.01086   0.00000  Uiso   1.00
C390   C     0.27798   0.49787   0.01979   0.00000  Uiso   1.00
C391   C     0.31924   0.52795   0.98914   0.00000  Uiso   1.00
H392   H     0.11210   0.58178   0.93982   0.00000  Uiso   1.00
H393   H     0.05243   0.49552   0.89511   0.00000  Uiso   1.00
H394   H     0.05565   0.65358   0.00125   0.00000  Uiso   1.00
H395   H     0.22271   0.60716   0.91245   0.00000  Uiso   1.00
H396   H     0.99492   0.38273   0.86238   0.00000  Uiso   1.00
H397   H     0.00174   0.71603   0.08619   0.00000  Uiso   1.00
H398   H     0.35401   0.61814   0.89895   0.00000  Uiso   1.00
H399   H     0.17890   0.44965   0.06960   0.00000  Uiso   1.00
H400   H     0.12289   0.35613   0.03201   0.00000  Uiso   1.00
H401   H     0.12611   0.51420   0.13815   0.00000  Uiso   1.00
H402   H     0.29317   0.46777   0.04935   0.00000  Uiso   1.00
H403   H     0.05211   0.26960   0.97350   0.00000  Uiso   1.00
H404   H     0.05892   0.60291   0.19731   0.00000  Uiso   1.00
H405   H     0.41120   0.50501   0.01006   0.00000  Uiso   1.00
O406   O     0.98545   0.26703   0.89088   0.00000  Uiso   1.00
O407   O     0.99440   0.70432   0.18450   0.00000  Uiso   1.00
O408   O     0.45658   0.57589   0.93884   0.00000  Uiso   1.00
N409   N     0.01608   0.36894   0.89369   0.00000  Uiso   1.00
N410   N     0.02244   0.68055   0.10293   0.00000  Uiso   1.00
N411   N     0.35179   0.58904   0.92788   0.00000  Uiso   1.00
N412   N     0.04685   0.30806   0.95348   0.00000  Uiso   1.00
N413   N     0.05321   0.61968   0.16272   0.00000  Uiso   1.00
N414   N     0.38256   0.52817   0.98767   0.00000  Uiso   1.00
C415   C     0.62740   0.05151   0.46955   0.00000  Uiso   1.00
C416   C     0.60425   0.98631   0.46325   0.00000  Uiso   1.00
C417   C     0.56764   0.96541   0.42465   0.00000  Uiso   1.00
C418   C     0.55135   0.90417   0.42560   0.00000  Uiso   1.00
C419   C     0.51238   0.80886   0.41002   0.00000  Uiso   1.00
C420   C     0.60599   0.07219   0.52092   0.00000  Uiso   1.00
C421   C     0.57085   0.12350   0.53081   0.00000  Uiso   1.00
C422   C     0.55604   0.13455   0.58030   0.00000  Uiso   1.00
C423   C     0.51982   0.17260   0.65426   0.00000  Uiso   1.00
C424   C     0.69676   0.04697   0.47267   0.00000  Uiso   1.00
C425   C     0.73794   0.07707   0.44200   0.00000  Uiso   1.00
C426   C     0.79955   0.06690   0.45088   0.00000  Uiso   1.00
C427   C     0.90425   0.06577   0.44992   0.00000  Uiso   1.00
C428   C     0.66359   0.97992   0.53987   0.00000  Uiso   1.00
C429   C     0.62391   0.94743   0.50145   0.00000  Uiso   1.00
C430   C     0.60767   0.88621   0.50245   0.00000  Uiso   1.00
C431   C     0.57104   0.86522   0.46385   0.00000  Uiso   1.00
C432   C     0.62565   0.03331   0.55911   0.00000  Uiso   1.00
C433   C     0.61089   0.04430   0.60860   0.00000  Uiso   1.00
C434   C     0.57573   0.09560   0.61856   0.00000  Uiso   1.00
C435   C     0.71642   0.00808   0.51086   0.00000  Uiso   1.00
C436   C     0.77798   0.99787   0.51979   0.00000  Uiso   1.00
C437   C     0.81924   0.02795   0.48914   0.00000  Uiso   1.00
H438   H     0.61210   0.08178   0.43982   0.00000  Uiso   1.00
H439   H     0.55243   0.99552   0.39511   0.00000  Uiso   1.00
H440   H     0.55565   0.15358   0.50125   0.00000  Uiso   1.00
H441   H     0.72271   0.10716   0.41245   0.00000  Uiso   1.00
H442   H     0.49492   0.88273   0.36238   0.00000  Uiso   1.00
H443   H     0.50174   0.21603   0.58619   0.00000  Uiso   1.00
H444   H     0.85401   0.11814   0.39895   0.00000  Uiso   1.00
H445   H     0.67890   0.94965   0.56960   0.00000  Uiso   1.00
H446   H     0.62289   0.85613   0.53201   0.00000  Uiso   1.00
H447   H     0.62611   0.01420   0.63815   0.00000  Uiso   1.00
H448   H     0.79317   0.96777   0.54935   0.00000  Uiso   1.00
H449   H     0.55211   0.76960   0.47350   0.00000  Uiso   1.00
H450   H     0.55892   0.10291   0.69731   0.00000  Uiso   1.00
H451   H     0.91120   0.00501   0.51006   0.00000  Uiso   1.00
O452   O     0.48545   0.76703   0.39088   0.00000  Uiso   1.00
O453   O     0.49440   0.20432   0.68450   0.00000  Uiso   1.00
O454   O     0.95658   0.07589   0.43884   0.00000  Uiso   1.00
N455   N     0.51608   0.86894   0.39369   0.00000  Uiso   1.00
N456   N     0.52244   0.18055   0.60293   0.00000  Uiso   1.00
N457   N     0.85179   0.08904   0.42788   0.00000  Uiso   1.00
N458   N     0.54685   0.80806   0.45348   0.00000  Uiso   1.00
N459   N     0.55321   0.11968   0.66272   0.00000  Uiso   1.00
N460   N     0.88256   0.02817   0.48767   0.00000  Uiso   1.00
C461   C     0.87260   0.44849   0.96955   0.00000  Uiso   1.00
C462   C     0.89575   0.51369   0.96325   0.00000  Uiso   1.00
C463   C     0.93236   0.53459   0.92465   0.00000  Uiso   1.00
C464   C     0.94865   0.59583   0.92560   0.00000  Uiso   1.00
C465   C     0.98762   0.69114   0.91002   0.00000  Uiso   1.00
C466   C     0.89401   0.42781   0.02092   0.00000  Uiso   1.00
C467   C     0.92915   0.37650   0.03081   0.00000  Uiso   1.00
C468   C     0.94396   0.36545   0.08030   0.00000  Uiso   1.00
C469   C     0.98018   0.32740   0.15426   0.00000  Uiso   1.00
C470   C     0.80324   0.45303   0.97267   0.00000  Uiso   1.00
C471   C     0.76206   0.42293   0.94200   0.00000  Uiso   1.00
C472   C     0.70045   0.43310   0.95088   0.00000  Uiso   1.00
C473   C     0.59575   0.43423   0.94992   0.00000  Uiso   1.00
C474   C     0.83641   0.52008   0.03987   0.00000  Uiso   1.00
C475   C     0.87609   0.55257   0.00145   0.00000  Uiso   1.00
C476   C     0.89233   0.61379   0.00245   0.00000  Uiso   1.00
C477   C     0.92896   0.63478   0.96385   0.00000  Uiso   1.00
C478   C     0.87435   0.46669   0.05911   0.00000  Uiso   1.00
C479   C     0.88911   0.45570   0.10860   0.00000  Uiso   1.00
C480   C     0.92427   0.40440   0.11856   0.00000  Uiso   1.00
C481   C     0.78358   0.49192   0.01086   0.00000  Uiso   1.00
C482   C     0.72202   0.50213   0.01979   0.00000  Uiso   1.00
C483   C     0.68076   0.47205   0.98914   0.00000  Uiso   1.00
H484   H     0.88790   0.41822   0.93982   0.00000  Uiso   1.00
H485   H     0.94757   0.50448   0.89511   0.00000  Uiso   1.00
H486   H     0.94435   0.34642   0.00125   0.00000  Uiso   1.00
H487   H     0.77729   0.39284   0.91245   0.00000  Uiso   1.00
H488   H     0.00508   0.61727   0.86238   0.00000  Uiso   1.00
H489   H     0.99826   0.28397   0.08619   0.00000  Uiso   1.00
H490   H     0.64599   0.38186   0.89895   0.00000  Uiso   1.00
H491   H     0.82110   0.55035   0.06960   0.00000  Uiso   1.00
H492   H     0.87711   0.64387   0.03201   0.00000  Uiso   1.00
H493   H     0.87389   0.48580   0.13815   0.00000  Uiso   1.00
H494   H     0.70683   0.53223   0.04935   0.00000  Uiso   1.00
H495   H     0.94789   0.73040   0.97350   0.00000  Uiso   1.00
H496   H     0.94108   0.39709   0.19731   0.00000  Uiso   1.00
H497   H     0.58880   0.49499   0.01006   0.00000  Uiso   1.00
O498   O     0.01455   0.73297   0.89088   0.00000  Uiso   1.00
O499   O     0.00560   0.29568   0.18450   0.00000  Uiso   1.00
O500   O     0.54342   0.42411   0.93884   0.00000  Uiso   1.00
N501   N     0.98392   0.63106   0.89369   0.00000  Uiso   1.00
N502   N     0.97756   0.31945   0.10293   0.00000  Uiso   1.00
N503   N     0.64821   0.41096   0.92788   0.00000  Uiso   1.00
N504   N     0.95315   0.69194   0.95348   0.00000  Uiso   1.00
N505   N     0.94679   0.38032   0.16272   0.00000  Uiso   1.00
N506   N     0.61744   0.47183   0.98767   0.00000  Uiso   1.00
C507   C     0.37260   0.94849   0.46955   0.00000  Uiso   1.00
C508   C     0.39575   0.01369   0.46325   0.00000  Uiso   1.00
C509   C     0.43236   0.03459   0.42465   0.00000  Uiso   1.00
C510   C     0.44865   0.09583   0.42560   0.00000  Uiso   1.00
C511   C     0.48762   0.19114   0.41002   0.00000  Uiso   1.00
C512   C     0.39401   0.92781   0.52092   0.00000  Uiso   1.00
C513   C     0.42915   0.87650   0.53081   0.00000  Uiso   1.00
C514   C     0.44396   0.86545   0.58030   0.00000  Uiso   1.00
C515   C     0.48018   0.82740   0.65426   0.00000  Uiso   1.00
C516   C     0.30324   0.95303   0.47267   0.00000  Uiso   1.00
C517   C     0.26206   0.92293   0.44200   0.00000  Uiso   1.00
C518   C     0.20045   0.93310   0.45088   0.00000  Uiso   1.00
C519   C     0.09575   0.93423   0.44992   0.00000  Uiso   1.00
C520   C     0.33641   0.02008   0.53987   0.00000  Uiso   1.00
C521   C     0.37609   0.05257   0.50145   0.00000  Uiso   1.00
C522   C     0.39233   0.11379   0.50245   0.00000  Uiso   1.00
C523   C     0.42896   0.13478   0.46385   0.00000  Uiso   1.00
C524   C     0.37435   0.96669   0.55911   0.00000  Uiso   1.00
C525   C     0.38911   0.95570   0.60860   0.00000  Uiso   1.00
C526   C     0.42427   0.90440   0.61856   0.00000  Uiso   1.00
C527   C     0.28358   0.99192   0.51086   0.00000  Uiso   1.00
C528   C     0.22202   0.00213   0.51979   0.00000  Uiso   1.00
C529   C     0.18076   0.97205   0.48914   0.00000  Uiso   1.00
H530   H     0.38790   0.91822   0.43982   0.00000  Uiso   1.00
H531   H     0.44757   0.00448   0.39511   0.00000  Uiso   1.00
H532   H     0.44435   0.84642   0.50125   0.00000  Uiso   1.00
H533   H     0.27729   0.89284   0.41245   0.00000  Uiso   1.00
H534   H     0.50508   0.11727   0.36238   0.00000  Uiso   1.00
H535   H     0.49826   0.78397   0.58619   0.00000  Uiso   1.00
H536   H     0.14599   0.88186   0.39895   0.00000  Uiso   1.00
H537   H     0.32110   0.05035   0.56960   0.00000  Uiso   1.00
H538   H     0.37711   0.14387   0.53201   0.00000  Uiso   1.00
H539   H     0.37389   0.98580   0.63815   0.00000  Uiso   1.00
H540   H     0.20683   0.03223   0.54935   0.00000  Uiso   1.00
H541   H     0.44789   0.23040   0.47350   0.00000  Uiso   1.00
H542   H     0.44108   0.89709   0.69731   0.00000  Uiso   1.00
H543   H     0.08880   0.99499   0.51006   0.00000  Uiso   1.00
O544   O     0.51455   0.23297   0.39088   0.00000  Uiso   1.00
O545   O     0.50560   0.79568   0.68450   0.00000  Uiso   1.00
O546   O     0.04342   0.92411   0.43884   0.00000  Uiso   1.00
N547   N     0.48392   0.13106   0.39369   0.00000  Uiso   1.00
N548   N     0.47756   0.81945   0.60293   0.00000  Uiso   1.00
N549   N     0.14821   0.91096   0.42788   0.00000  Uiso   1.00
N550   N     0.45315   0.19194   0.45348   0.00000  Uiso   1.00
N551   N     0.44679   0.88032   0.66272   0.00000  Uiso   1.00
N552   N     0.11744   0.97183   0.48767   0.00000  Uiso   1.00
C553   C     0.94849   0.62740   0.53045   0.00000  Uiso   1.00
C554   C     0.01369   0.60425   0.53675   0.00000  Uiso   1.00
C555   C     0.03459   0.56764   0.57535   0.00000  Uiso   1.00
C556   C     0.09583   0.55135   0.57440   0.00000  Uiso   1.00
C557   C     0.19114   0.51238   0.58998   0.00000  Uiso   1.00
C558   C     0.92781   0.60599   0.47908   0.00000  Uiso   1.00
C559   C     0.87650   0.57085   0.46919   0.00000  Uiso   1.00
C560   C     0.86545   0.55604   0.41970   0.00000  Uiso   1.00
C561   C     0.82740   0.51982   0.34574   0.00000  Uiso   1.00
C562   C     0.95303   0.69676   0.52733   0.00000  Uiso   1.00
C563   C     0.92293   0.73794   0.55800   0.00000  Uiso   1.00
C564   C     0.93310   0.79955   0.54912   0.00000  Uiso   1.00
C565   C     0.93423   0.90425   0.55008   0.00000  Uiso   1.00
C566   C     0.02008   0.66359   0.46013   0.00000  Uiso   1.00
C567   C     0.05257   0.62391   0.49855   0.00000  Uiso   1.00
C568   C     0.11379   0.60767   0.49755   0.00000  Uiso   1.00
C569   C     0.13478   0.57104   0.53615   0.00000  Uiso   1.00
C570   C     0.96669   0.62565   0.44089   0.00000  Uiso   1.00
C571   C     0.95570   0.61089   0.39140   0.00000  Uiso   1.00
C572   C     0.90440   0.57573   0.38144   0.00000  Uiso   1.00
C573   C     0.99192   0.71642   0.48914   0.00000  Uiso   1.00
C574   C     0.00213   0.77798   0.48021   0.00000  Uiso   1.00
C575   C     0.97205   0.81924   0.51086   0.00000  Uiso   1.00
H576   H     0.91822   0.61210   0.56018   0.00000  Uiso   1.00
H577   H     0.00448   0.55243   0.60489   0.00000  Uiso   1.00
H578   H     0.84642   0.55565   0.49875   0.00000  Uiso   1.00
H579   H     0.89284   0.72271   0.58755   0.00000  Uiso   1.00
H580   H     0.11727   0.49492   0.63762   0.00000  Uiso   1.00
H581   H     0.78397   0.50174   0.41381   0.00000  Uiso   1.00
H582   H     0.88186   0.85401   0.60105   0.00000  Uiso   1.00
H583   H     0.05035   0.67890   0.43040   0.00000  Uiso   1.00
H584   H     0.14387   0.62289   0.46799   0.00000  Uiso   1.00
H585   H     0.98580   0.62611   0.36185   0.00000  Uiso   1.00
H586   H     0.03223   0.79317   0.45065   0.00000  Uiso   1.00
H587   H     0.23040   0.55211   0.52650   0.00000  Uiso   1.00
H588   H     0.89709   0.55892   0.30269   0.00000  Uiso   1.00
H589   H     0.99499   0.91120   0.48994   0.00000  Uiso   1.00
O590   O     0.23297   0.48545   0.60912   0.00000  Uiso   1.00
O591   O     0.79568   0.49440   0.31550   0.00000  Uiso   1.00
O592   O     0.92411   0.95658   0.56116   0.00000  Uiso   1.00
N593   N     0.13106   0.51608   0.60631   0.00000  Uiso   1.00
N594   N     0.81945   0.52244   0.39707   0.00000  Uiso   1.00
N595   N     0.91096   0.85179   0.57212   0.00000  Uiso   1.00
N596   N     0.19194   0.54685   0.54652   0.00000  Uiso   1.00
N597   N     0.88032   0.55321   0.33728   0.00000  Uiso   1.00
N598   N     0.97183   0.88256   0.51233   0.00000  Uiso   1.00
C599   C     0.44849   0.12740   0.03045   0.00000  Uiso   1.00
C600   C     0.51369   0.10425   0.03675   0.00000  Uiso   1.00
C601   C     0.53459   0.06764   0.07535   0.00000  Uiso   1.00
C602   C     0.59583   0.05135   0.07440   0.00000  Uiso   1.00
C603   C     0.69114   0.01238   0.08998   0.00000  Uiso   1.00
C604   C     0.42781   0.10599   0.97908   0.00000  Uiso   1.00
C605   C     0.37650   0.07085   0.96919   0.00000  Uiso   1.00
C606   C     0.36545   0.05604   0.91970   0.00000  Uiso   1.00
C607   C     0.32740   0.01982   0.84574   0.00000  Uiso   1.00
C608   C     0.45303   0.19676   0.02733   0.00000  Uiso   1.00
C609   C     0.42293   0.23794   0.05800   0.00000  Uiso   1.00
C610   C     0.43310   0.29955   0.04912   0.00000  Uiso   1.00
C611   C     0.43423   0.40425   0.05008   0.00000  Uiso   1.00
C612   C     0.52008   0.16359   0.96013   0.00000  Uiso   1.00
C613   C     0.55257   0.12391   0.99855   0.00000  Uiso   1.00
C614   C     0.61379   0.10767   0.99755   0.00000  Uiso   1.00
C615   C     0.63478   0.07104   0.03615   0.00000  Uiso   1.00
C616   C     0.46669   0.12565   0.94089   0.00000  Uiso   1.00
C617   C     0.45570   0.11089   0.89140   0.00000  Uiso   1.00
C618   C     0.40440   0.07573   0.88144   0.00000  Uiso   1.00
C619   C     0.49192   0.21642   0.98914   0.00000  Uiso   1.00
C620   C     0.50213   0.27798   0.98021   0.00000  Uiso   1.00
C621   C     0.47205   0.31924   0.01086   0.00000  Uiso   1.00
H622   H     0.41822   0.11210   0.06018   0.00000  Uiso   1.00
H623   H     0.50448   0.05243   0.10489   0.00000  Uiso   1.00
H624   H     0.34642   0.05565   0.99875   0.00000  Uiso   1.00
H625   H     0.39284   0.22271   0.08755   0.00000  Uiso   1.00
H626   H     0.61727   0.99492   0.13762   0.00000  Uiso   1.00
H627   H     0.28397   0.00174   0.91381   0.00000  Uiso   1.00
H628   H     0.38186   0.35401   0.10105   0.00000  Uiso   1.00
H629   H     0.55035   0.17890   0.93040   0.00000  Uiso   1.00
H630   H     0.64387   0.12289   0.96799   0.00000  Uiso   1.00
H631   H     0.48580   0.12611   0.86185   0.00000  Uiso   1.00
H632   H     0.53223   0.29317   0.95065   0.00000  Uiso   1.00
H633   H     0.73040   0.05211   0.02650   0.00000  Uiso   1.00
H634   H     0.39709   0.05892   0.80269   0.00000  Uiso   1.00
H635   H     0.49499   0.41120   0.98994   0.00000  Uiso   1.00
O636   O     0.73297   0.98545   0.10912   0.00000  Uiso   1.00
O637   O     0.29568   0.99440   0.81550   0.00000  Uiso   1.00
O638   O     0.42411   0.45658   0.06116   0.00000  Uiso   1.00
N639   N     0.63106   0.01608   0.10631   0.00000  Uiso   1.00
N640   N     0.31945   0.02244   0.89707   0.00000  Uiso   1.00
N641   N     0.41096   0.35179   0.07212   0.00000  Uiso   1.00
N642   N     0.69194   0.04685   0.04652   0.00000  Uiso   1.00
N643   N     0.38032   0.05321   0.83728   0.00000  Uiso   1.00
N644   N     0.47183   0.38256   0.01233   0.00000  Uiso   1.00
C645   C     0.05151   0.37260   0.53045   0.00000  Uiso   1.00
C646   C     0.98631   0.39575   0.53675   0.00000  Uiso   1.00
C647   C     0.96541   0.43236   0.57535   0.00000  Uiso   1.00
C648   C     0.90417   0.44865   0.57440   0.00000  Uiso   1.00
C649   C     0.80886   0.48762   0.58998   0.00000  Uiso   1.00
C650   C     0.07219   0.39401   0.47908   0.00000  Uiso   1.00
C651   C     0.12350   0.42915   0.46919   0.00000  Uiso   1.00
C652   C     0.13455   0.44396   0.41970   0.00000  Uiso   1.00
C653   C     0.17260   0.48018   0.34574   0.00000  Uiso   1.00
C654   C     0.04697   0.30324   0.52733   0.00000  Uiso   1.00
C655   C     0.07707   0.26206   0.55800   0.00000  Uiso   1.00
C656   C     0.06690   0.20045   0.54912   0.00000  Uiso   1.00
C657   C     0.06577   0.09575   0.55008   0.00000  Uiso   1.00
C658   C     0.97992   0.33641   0.46013   0.00000  Uiso   1.00
C659   C     0.94743   0.37609   0.49855   0.00000  Uiso   1.00
C660   C     0.88621   0.39233   0.49755   0.00000  Uiso   1.00
C661   C     0.86522   0.42896   0.53615   0.00000  Uiso   1.00
C662   C     0.03331   0.37435   0.44089   0.00000  Uiso   1.00
C663   C     0.04430   0.38911   0.39140   0.00000  Uiso   1.00
C664   C     0.09560   0.42427   0.38144   0.00000  Uiso   1.00
C665   C     0.00808   0.28358   0.48914   0.00000  Uiso   1.00
C666   C     0.99787   0.22202   0.48021   0.00000  Uiso   1.00
C667   C     0.02795   0.18076   0.51086   0.00000  Uiso   1.00
H668   H     0.08178   0.38790   0.56018   0.00000  Uiso   1.00
H669   H     0.99552   0.44757   0.60489   0.00000  Uiso   1.00
H670   H     0.15358   0.44435   0.49875   0.00000  Uiso   1.00
H671   H     0.10716   0.27729   0.58755   0.00000  Uiso   1.00
H672   H     0.88273   0.50508   0.63762   0.00000  Uiso   1.00
H673   H     0.21603   0.49826   0.41381   0.00000  Uiso   1.00
H674   H     0.11814   0.14599   0.60105   0.00000  Uiso   1.00
H675   H     0.94965   0.32110   0.43040   0.00000  Uiso   1.00
H676   H     0.85613   0.37711   0.46799   0.00000  Uiso   1.00
H677   H     0.01420   0.37389   0.36185   0.00000  Uiso   1.00
H678   H     0.96777   0.20683   0.45065   0.00000  Uiso   1.00
H679   H     0.76960   0.44789   0.52650   0.00000  Uiso   1.00
H680   H     0.10291   0.44108   0.30269   0.00000  Uiso   1.00
H681   H     0.00501   0.08880   0.48994   0.00000  Uiso   1.00
O682   O     0.76703   0.51455   0.60912   0.00000  Uiso   1.00
O683   O     0.20432   0.50560   0.31550   0.00000  Uiso   1.00
O684   O     0.07589   0.04342   0.56116   0.00000  Uiso   1.00
N685   N     0.86894   0.48392   0.60631   0.00000  Uiso   1.00
N686   N     0.18055   0.47756   0.39707   0.00000  Uiso   1.00
N687   N     0.08904   0.14821   0.57212   0.00000  Uiso   1.00
N688   N     0.80806   0.45315   0.54652   0.00000  Uiso   1.00
N689   N     0.11968   0.44679   0.33728   0.00000  Uiso   1.00
N690   N     0.02817   0.11744   0.51233   0.00000  Uiso   1.00
C691   C     0.55151   0.87260   0.03045   0.00000  Uiso   1.00
C692   C     0.48631   0.89575   0.03675   0.00000  Uiso   1.00
C693   C     0.46541   0.93236   0.07535   0.00000  Uiso   1.00
C694   C     0.40417   0.94865   0.07440   0.00000  Uiso   1.00
C695   C     0.30886   0.98762   0.08998   0.00000  Uiso   1.00
C696   C     0.57219   0.89401   0.97908   0.00000  Uiso   1.00
C697   C     0.62350   0.92915   0.96919   0.00000  Uiso   1.00
C698   C     0.63455   0.94396   0.91970   0.00000  Uiso   1.00
C699   C     0.67260   0.98018   0.84574   0.00000  Uiso   1.00
C700   C     0.54697   0.80324   0.02733   0.00000  Uiso   1.00
C701   C     0.57707   0.76206   0.05800   0.00000  Uiso   1.00
C702   C     0.56690   0.70045   0.04912   0.00000  Uiso   1.00
C703   C     0.56577   0.59575   0.05008   0.00000  Uiso   1.00
C704   C     0.47992   0.83641   0.96013   0.00000  Uiso   1.00
C705   C     0.44743   0.87609   0.99855   0.00000  Uiso   1.00
C706   C     0.38621   0.89233   0.99755   0.00000  Uiso   1.00
C707   C     0.36522   0.92896   0.03615   0.00000  Uiso   1.00
C708   C     0.53331   0.87435   0.94089   0.00000  Uiso   1.00
C709   C     0.54430   0.88911   0.89140   0.00000  Uiso   1.00
C710   C     0.59560   0.92427   0.88144   0.00000  Uiso   1.00
C711   C     0.50808   0.78358   0.98914   0.00000  Uiso   1.00
C712   C     0.49787   0.72202   0.98021   0.00000  Uiso   1.00
C713   C     0.52795   0.68076   0.01086   0.00000  Uiso   1.00
H714   H     0.58178   0.88790   0.06018   0.00000  Uiso   1.00
H715   H     0.49552   0.94757   0.10489   0.00000  Uiso   1.00
H716   H     0.65358   0.94435   0.99875   0.00000  Uiso   1.00
H717   H     0.60716   0.77729   0.08755   0.00000  Uiso   1.00
H718   H     0.38273   0.00508   0.13762   0.00000  Uiso   1.00
H719   H     0.71603   0.99826   0.91381   0.00000  Uiso   1.00
H720   H     0.61814   0.64599   0.10105   0.00000  Uiso   1.00
H721   H     0.44965   0.82110   0.93040   0.00000  Uiso   1.00
H722   H     0.35613   0.87711   0.96799   0.00000  Uiso   1.00
H723   H     0.51420   0.87389   0.86185   0.00000  Uiso   1.00
H724   H     0.46777   0.70683   0.95065   0.00000  Uiso   1.00
H725   H     0.26960   0.94789   0.02650   0.00000  Uiso   1.00
H726   H     0.60291   0.94108   0.80269   0.00000  Uiso   1.00
H727   H     0.50501   0.58880   0.98994   0.00000  Uiso   1.00
O728   O     0.26703   0.01455   0.10912   0.00000  Uiso   1.00
O729   O     0.70432   0.00560   0.81550   0.00000  Uiso   1.00
O730   O     0.57589   0.54342   0.06116   0.00000  Uiso   1.00
N731   N     0.36894   0.98392   0.10631   0.00000  Uiso   1.00
N732   N     0.68055   0.97756   0.89707   0.00000  Uiso   1.00
N733   N     0.58904   0.64821   0.07212   0.00000  Uiso   1.00
N734   N     0.30806   0.95315   0.04652   0.00000  Uiso   1.00
N735   N     0.61968   0.94679   0.83728   0.00000  Uiso   1.00
N736   N     0.52817   0.61744   0.01233   0.00000  Uiso   1.00
