data_job_06458
_audit_creation_date              2018-12-19
_audit_creation_method            'Materials Studio'
_symmetry_space_group_name_H-M    'P1'
_symmetry_Int_Tables_number       1
_symmetry_cell_setting            triclinic
loop_
_symmetry_equiv_pos_as_xyz
  x,y,z
_cell_length_a                    23.6934
_cell_length_b                    36.0779
_cell_length_c                    21.3039
_cell_angle_alpha                 90.0000
_cell_angle_beta                  132.0689
_cell_angle_gamma                 90.0000
loop_
_atom_site_label
_atom_site_type_symbol
_atom_site_fract_x
_atom_site_fract_y
_atom_site_fract_z
_atom_site_U_iso_or_equiv
_atom_site_adp_type
_atom_site_occupancy
C1     C     0.35296   0.38531   0.86832   0.00000  Uiso   1.00
C2     C     0.31016   0.38778   0.89853   0.00000  Uiso   1.00
C3     C     0.25145   0.36463   0.87368   0.00000  Uiso   1.00
C4     C     0.21966   0.37143   0.90852   0.00000  Uiso   1.00
C5     C     0.14921   0.37087   0.94664   0.00000  Uiso   1.00
C6     C     0.34478   0.42322   0.83128   0.00000  Uiso   1.00
C7     C     0.31520   0.42986   0.74990   0.00000  Uiso   1.00
C8     C     0.31257   0.46650   0.72814   0.00000  Uiso   1.00
C9     C     0.29593   0.52096   0.66187   0.00000  Uiso   1.00
C10    C     0.43679   0.38144   0.94781   0.00000  Uiso   1.00
C11    C     0.48458   0.35296   0.96441   0.00000  Uiso   1.00
C12    C     0.55943   0.35444   0.04075   0.00000  Uiso   1.00
C13    C     0.18565   0.84403   0.15542   0.00000  Uiso   1.00
C14    C     0.40091   0.43857   0.97437   0.00000  Uiso   1.00
C15    C     0.33620   0.41670   0.95613   0.00000  Uiso   1.00
C16    C     0.30449   0.42355   0.99102   0.00000  Uiso   1.00
C17    C     0.24575   0.40041   0.96624   0.00000  Uiso   1.00
C18    C     0.37082   0.45214   0.88888   0.00000  Uiso   1.00
C19    C     0.36824   0.48878   0.86724   0.00000  Uiso   1.00
C20    C     0.33866   0.49548   0.78585   0.00000  Uiso   1.00
C21    C     0.46284   0.41036   0.00542   0.00000  Uiso   1.00
C22    C     0.53762   0.41188   0.08175   0.00000  Uiso   1.00
C23    C     0.58552   0.38342   0.09846   0.00000  Uiso   1.00
H24    H     0.33269   0.36279   0.82347   0.00000  Uiso   1.00
H25    H     0.23131   0.34224   0.82910   0.00000  Uiso   1.00
H26    H     0.29506   0.40747   0.70534   0.00000  Uiso   1.00
H27    H     0.46441   0.33058   0.91982   0.00000  Uiso   1.00
H28    H     0.13038   0.33223   0.86072   0.00000  Uiso   1.00
H29    H     0.26482   0.46976   0.59978   0.00000  Uiso   1.00
H30    H     0.62194   0.30763   0.05204   0.00000  Uiso   1.00
H31    H     0.42118   0.46109   0.01922   0.00000  Uiso   1.00
H32    H     0.32466   0.44593   0.03560   0.00000  Uiso   1.00
H33    H     0.38841   0.51116   0.91183   0.00000  Uiso   1.00
H34    H     0.55776   0.43427   0.12631   0.00000  Uiso   1.00
H35    H     0.20614   0.41639   0.02832   0.00000  Uiso   1.00
H36    H     0.34059   0.55392   0.76738   0.00000  Uiso   1.00
H37    H     0.19770   0.89179   0.21964   0.00000  Uiso   1.00
O38    O     0.10315   0.36258   0.95174   0.00000  Uiso   1.00
O39    O     0.27955   0.54301   0.60940   0.00000  Uiso   1.00
O40    O     0.24807   0.83029   0.20276   0.00000  Uiso   1.00
N41    N     0.16147   0.35411   0.89793   0.00000  Uiso   1.00
N42    N     0.28715   0.48270   0.65396   0.00000  Uiso   1.00
N43    N     0.62103   0.33112   0.07678   0.00000  Uiso   1.00
N44    N     0.20223   0.39940   0.98812   0.00000  Uiso   1.00
N45    N     0.32792   0.52798   0.74414   0.00000  Uiso   1.00
N46    N     0.16180   0.87641   0.16697   0.00000  Uiso   1.00
C47    C     0.35293   0.11467   0.86827   0.00000  Uiso   1.00
C48    C     0.34478   0.07677   0.83125   0.00000  Uiso   1.00
C49    C     0.31523   0.07012   0.74989   0.00000  Uiso   1.00
C50    C     0.31261   0.03348   0.72813   0.00000  Uiso   1.00
C51    C     0.29597   0.97903   0.66186   0.00000  Uiso   1.00
C52    C     0.31008   0.11220   0.89844   0.00000  Uiso   1.00
C53    C     0.25136   0.13535   0.87357   0.00000  Uiso   1.00
C54    C     0.21955   0.12854   0.90838   0.00000  Uiso   1.00
C55    C     0.14908   0.12910   0.94647   0.00000  Uiso   1.00
C56    C     0.43674   0.11855   0.94781   0.00000  Uiso   1.00
C57    C     0.48452   0.14705   0.96447   0.00000  Uiso   1.00
C58    C     0.55934   0.14559   0.04085   0.00000  Uiso   1.00
C59    C     0.68553   0.15603   0.15560   0.00000  Uiso   1.00
C60    C     0.40084   0.06142   0.97432   0.00000  Uiso   1.00
C61    C     0.37081   0.04784   0.88885   0.00000  Uiso   1.00
C62    C     0.36824   0.01120   0.86722   0.00000  Uiso   1.00
C63    C     0.33869   0.00451   0.78583   0.00000  Uiso   1.00
C64    C     0.33611   0.08327   0.95604   0.00000  Uiso   1.00
C65    C     0.30438   0.07643   0.99090   0.00000  Uiso   1.00
C66    C     0.24562   0.09956   0.96609   0.00000  Uiso   1.00
C67    C     0.46277   0.08963   0.00541   0.00000  Uiso   1.00
C68    C     0.53753   0.08813   0.08179   0.00000  Uiso   1.00
C69    C     0.58541   0.11661   0.09856   0.00000  Uiso   1.00
H70    H     0.33266   0.13719   0.82343   0.00000  Uiso   1.00
H71    H     0.29509   0.09252   0.70532   0.00000  Uiso   1.00
H72    H     0.23124   0.15773   0.82900   0.00000  Uiso   1.00
H73    H     0.46436   0.16943   0.91988   0.00000  Uiso   1.00
H74    H     0.26488   0.03023   0.59977   0.00000  Uiso   1.00
H75    H     0.13027   0.16775   0.86057   0.00000  Uiso   1.00
H76    H     0.62185   0.19242   0.05220   0.00000  Uiso   1.00
H77    H     0.42110   0.03890   0.01917   0.00000  Uiso   1.00
H78    H     0.38838   0.98882   0.91180   0.00000  Uiso   1.00
H79    H     0.32453   0.05404   0.03547   0.00000  Uiso   1.00
H80    H     0.55765   0.06574   0.12635   0.00000  Uiso   1.00
H81    H     0.34060   0.94607   0.76736   0.00000  Uiso   1.00
H82    H     0.20599   0.08359   0.02815   0.00000  Uiso   1.00
H83    H     0.19757   0.60825   0.21979   0.00000  Uiso   1.00
O84    O     0.27959   0.95698   0.60940   0.00000  Uiso   1.00
O85    O     0.10301   0.13741   0.95156   0.00000  Uiso   1.00
O86    O     0.74794   0.16977   0.20297   0.00000  Uiso   1.00
N87    N     0.28720   0.01729   0.65396   0.00000  Uiso   1.00
N88    N     0.16135   0.14586   0.89777   0.00000  Uiso   1.00
N89    N     0.62092   0.16893   0.07694   0.00000  Uiso   1.00
N90    N     0.32795   0.97201   0.74413   0.00000  Uiso   1.00
N91    N     0.20209   0.10058   0.98795   0.00000  Uiso   1.00
N92    N     0.66167   0.12364   0.16712   0.00000  Uiso   1.00
C93    C     0.47731   0.25000   0.60630   0.00000  Uiso   1.00
C94    C     0.47432   0.28377   0.56110   0.00000  Uiso   1.00
C95    C     0.42122   0.31216   0.52466   0.00000  Uiso   1.00
C96    C     0.42818   0.34059   0.48629   0.00000  Uiso   1.00
C97    C     0.41469   0.39301   0.41634   0.00000  Uiso   1.00
C98    C     0.47430   0.21624   0.56105   0.00000  Uiso   1.00
C99    C     0.42118   0.18785   0.52459   0.00000  Uiso   1.00
C100   C     0.42813   0.15943   0.48620   0.00000  Uiso   1.00
C101   C     0.41463   0.10701   0.41624   0.00000  Uiso   1.00
C102   C     0.55649   0.24999   0.69446   0.00000  Uiso   1.00
C103   C     0.57249   0.24996   0.77017   0.00000  Uiso   1.00
C104   C     0.64863   0.24994   0.84410   0.00000  Uiso   1.00
C105   C     0.26276   0.74991   0.98127   0.00000  Uiso   1.00
C106   C     0.58410   0.25000   0.60296   0.00000  Uiso   1.00
C107   C     0.53232   0.28377   0.55928   0.00000  Uiso   1.00
C108   C     0.53937   0.31216   0.52096   0.00000  Uiso   1.00
C109   C     0.48629   0.34059   0.48448   0.00000  Uiso   1.00
C110   C     0.53230   0.21624   0.55924   0.00000  Uiso   1.00
C111   C     0.53933   0.18785   0.52090   0.00000  Uiso   1.00
C112   C     0.48623   0.15943   0.48439   0.00000  Uiso   1.00
C113   C     0.61449   0.24999   0.69265   0.00000  Uiso   1.00
C114   C     0.69063   0.24996   0.76647   0.00000  Uiso   1.00
C115   C     0.70674   0.24994   0.84228   0.00000  Uiso   1.00
H116   H     0.43216   0.25000   0.60771   0.00000  Uiso   1.00
H117   H     0.37634   0.31215   0.52607   0.00000  Uiso   1.00
H118   H     0.37631   0.18786   0.52601   0.00000  Uiso   1.00
H119   H     0.52759   0.24996   0.77155   0.00000  Uiso   1.00
H120   H     0.34002   0.38105   0.43473   0.00000  Uiso   1.00
H121   H     0.33997   0.11897   0.43463   0.00000  Uiso   1.00
H122   H     0.65897   0.24992   0.95240   0.00000  Uiso   1.00
H123   H     0.62926   0.25000   0.60155   0.00000  Uiso   1.00
H124   H     0.58426   0.31215   0.51957   0.00000  Uiso   1.00
H125   H     0.58422   0.18786   0.51951   0.00000  Uiso   1.00
H126   H     0.73550   0.24996   0.76505   0.00000  Uiso   1.00
H127   H     0.50877   0.38105   0.42945   0.00000  Uiso   1.00
H128   H     0.50872   0.11897   0.42936   0.00000  Uiso   1.00
H129   H     0.32772   0.74992   0.94712   0.00000  Uiso   1.00
O130   O     0.39122   0.42193   0.37824   0.00000  Uiso   1.00
O131   O     0.39116   0.07809   0.37814   0.00000  Uiso   1.00
O132   O     0.30968   0.74990   0.05743   0.00000  Uiso   1.00
N133   N     0.38592   0.37252   0.44475   0.00000  Uiso   1.00
N134   N     0.38586   0.12750   0.44465   0.00000  Uiso   1.00
N135   N     0.68410   0.24992   0.92872   0.00000  Uiso   1.00
N136   N     0.47672   0.37252   0.44191   0.00000  Uiso   1.00
N137   N     0.47666   0.12750   0.44181   0.00000  Uiso   1.00
N138   N     0.27491   0.74992   0.92588   0.00000  Uiso   1.00
C139   C     0.00704   0.11872   0.25669   0.00000  Uiso   1.00
C140   C     0.04775   0.11485   0.22416   0.00000  Uiso   1.00
C141   C     0.10737   0.13682   0.24772   0.00000  Uiso   1.00
C142   C     0.13689   0.12883   0.21080   0.00000  Uiso   1.00
C143   C     0.20455   0.12721   0.16920   0.00000  Uiso   1.00
C144   C     0.01362   0.08107   0.29366   0.00000  Uiso   1.00
C145   C     0.04455   0.07463   0.37564   0.00000  Uiso   1.00
C146   C     0.04533   0.03820   0.39722   0.00000  Uiso   1.00
C147   C     0.05996   0.98413   0.46350   0.00000  Uiso   1.00
C148   C     0.92302   0.12375   0.17863   0.00000  Uiso   1.00
C149   C     0.87776   0.15319   0.16390   0.00000  Uiso   1.00
C150   C     0.30225   0.65269   0.08864   0.00000  Uiso   1.00
C151   C     0.67620   0.16489   0.97632   0.00000  Uiso   1.00
C152   C     0.95343   0.06547   0.14925   0.00000  Uiso   1.00
C153   C     0.01863   0.08593   0.16581   0.00000  Uiso   1.00
C154   C     0.04806   0.07790   0.12884   0.00000  Uiso   1.00
C155   C     0.10772   0.09986   0.15234   0.00000  Uiso   1.00
C156   C     0.98451   0.05214   0.23531   0.00000  Uiso   1.00
C157   C     0.98524   0.01571   0.25677   0.00000  Uiso   1.00
C158   C     0.01616   0.00922   0.33876   0.00000  Uiso   1.00
C159   C     0.39390   0.59482   0.12027   0.00000  Uiso   1.00
C160   C     0.31844   0.59427   0.04502   0.00000  Uiso   1.00
C161   C     0.27307   0.62371   0.03018   0.00000  Uiso   1.00
H162   H     0.02971   0.14124   0.30213   0.00000  Uiso   1.00
H163   H     0.12990   0.15920   0.29289   0.00000  Uiso   1.00
H164   H     0.06708   0.09702   0.42078   0.00000  Uiso   1.00
H165   H     0.90031   0.17557   0.20907   0.00000  Uiso   1.00
H166   H     0.22815   0.16635   0.25693   0.00000  Uiso   1.00
H167   H     0.09566   0.03524   0.52660   0.00000  Uiso   1.00
H168   H     0.74400   0.20088   0.08017   0.00000  Uiso   1.00
H169   H     0.43076   0.54295   0.10382   0.00000  Uiso   1.00
H170   H     0.02551   0.05552   0.08369   0.00000  Uiso   1.00
H171   H     0.46269   0.49334   0.21159   0.00000  Uiso   1.00
H172   H     0.29593   0.57189   0.99988   0.00000  Uiso   1.00
H173   H     0.14343   0.08220   0.08714   0.00000  Uiso   1.00
H174   H     0.51094   0.45109   0.35681   0.00000  Uiso   1.00
H175   H     0.65928   0.11672   0.91038   0.00000  Uiso   1.00
O176   O     0.24992   0.13431   0.16239   0.00000  Uiso   1.00
O177   O     0.07609   0.96230   0.51618   0.00000  Uiso   1.00
O178   O     0.61472   0.17961   0.93048   0.00000  Uiso   1.00
N179   N     0.19519   0.14483   0.21971   0.00000  Uiso   1.00
N180   N     0.07134   0.02225   0.47185   0.00000  Uiso   1.00
N181   N     0.74256   0.17710   0.05448   0.00000  Uiso   1.00
N182   N     0.14960   0.09954   0.12835   0.00000  Uiso   1.00
N183   N     0.02575   0.97697   0.38048   0.00000  Uiso   1.00
N184   N     0.69697   0.13181   0.96312   0.00000  Uiso   1.00
C185   C     0.00700   0.38127   0.25668   0.00000  Uiso   1.00
C186   C     0.01354   0.41892   0.29364   0.00000  Uiso   1.00
C187   C     0.04445   0.42535   0.37561   0.00000  Uiso   1.00
C188   C     0.04520   0.46178   0.39719   0.00000  Uiso   1.00
C189   C     0.55982   0.01584   0.46346   0.00000  Uiso   1.00
C190   C     0.04774   0.38516   0.22419   0.00000  Uiso   1.00
C191   C     0.10738   0.36320   0.24776   0.00000  Uiso   1.00
C192   C     0.13691   0.37120   0.21086   0.00000  Uiso   1.00
C193   C     0.20458   0.37283   0.16927   0.00000  Uiso   1.00
C194   C     0.42299   0.87623   0.17859   0.00000  Uiso   1.00
C195   C     0.37776   0.84676   0.16380   0.00000  Uiso   1.00
C196   C     0.30227   0.84724   0.08850   0.00000  Uiso   1.00
C197   C     0.17626   0.83501   0.97610   0.00000  Uiso   1.00
C198   C     0.45339   0.93453   0.14924   0.00000  Uiso   1.00
C199   C     0.48442   0.94785   0.23528   0.00000  Uiso   1.00
C200   C     0.48513   0.98427   0.25674   0.00000  Uiso   1.00
C201   C     0.51603   0.99076   0.33872   0.00000  Uiso   1.00
C202   C     0.01862   0.41408   0.16583   0.00000  Uiso   1.00
C203   C     0.04806   0.42212   0.12889   0.00000  Uiso   1.00
C204   C     0.10774   0.40018   0.15240   0.00000  Uiso   1.00
C205   C     0.39387   0.90516   0.12023   0.00000  Uiso   1.00
C206   C     0.31844   0.90568   0.04493   0.00000  Uiso   1.00
C207   C     0.27310   0.87622   0.03004   0.00000  Uiso   1.00
H208   H     0.02968   0.35875   0.30211   0.00000  Uiso   1.00
H209   H     0.06698   0.40296   0.42075   0.00000  Uiso   1.00
H210   H     0.12990   0.34081   0.29291   0.00000  Uiso   1.00
H211   H     0.40031   0.82438   0.20897   0.00000  Uiso   1.00
H212   H     0.09553   0.46473   0.52656   0.00000  Uiso   1.00
H213   H     0.22818   0.33368   0.25699   0.00000  Uiso   1.00
H214   H     0.24404   0.79903   0.07998   0.00000  Uiso   1.00
H215   H     0.43072   0.95705   0.10381   0.00000  Uiso   1.00
H216   H     0.46259   0.00665   0.21157   0.00000  Uiso   1.00
H217   H     0.52551   0.94450   0.08373   0.00000  Uiso   1.00
H218   H     0.29592   0.92807   0.99979   0.00000  Uiso   1.00
H219   H     0.51080   0.04889   0.35678   0.00000  Uiso   1.00
H220   H     0.14345   0.41784   0.08721   0.00000  Uiso   1.00
H221   H     0.15932   0.88319   0.91020   0.00000  Uiso   1.00
O222   O     0.57594   0.03767   0.51614   0.00000  Uiso   1.00
O223   O     0.24996   0.36573   0.16247   0.00000  Uiso   1.00
O224   O     0.61479   0.32028   0.93023   0.00000  Uiso   1.00
N225   N     0.07120   0.47773   0.47181   0.00000  Uiso   1.00
N226   N     0.19523   0.35521   0.21978   0.00000  Uiso   1.00
N227   N     0.24261   0.82281   0.05428   0.00000  Uiso   1.00
N228   N     0.52561   0.02302   0.38045   0.00000  Uiso   1.00
N229   N     0.14964   0.40050   0.12843   0.00000  Uiso   1.00
N230   N     0.19702   0.86810   0.96293   0.00000  Uiso   1.00
C231   C     0.93844   0.24997   0.56146   0.00000  Uiso   1.00
C232   C     0.92606   0.21621   0.59408   0.00000  Uiso   1.00
C233   C     0.97795   0.18782   0.64259   0.00000  Uiso   1.00
C234   C     0.95587   0.15940   0.66611   0.00000  Uiso   1.00
C235   C     0.94754   0.10699   0.72047   0.00000  Uiso   1.00
C236   C     0.92608   0.28374   0.59409   0.00000  Uiso   1.00
C237   C     0.97798   0.31213   0.64259   0.00000  Uiso   1.00
C238   C     0.95589   0.34056   0.66611   0.00000  Uiso   1.00
C239   C     0.44757   0.89299   0.72042   0.00000  Uiso   1.00
C240   C     0.87305   0.24998   0.46574   0.00000  Uiso   1.00
C241   C     0.88036   0.25000   0.40632   0.00000  Uiso   1.00
C242   C     0.31364   0.75001   0.32177   0.00000  Uiso   1.00
C243   C     0.72298   0.25003   0.17680   0.00000  Uiso   1.00
C244   C     0.30694   0.74998   0.51697   0.00000  Uiso   1.00
C245   C     0.85464   0.21622   0.56991   0.00000  Uiso   1.00
C246   C     0.83247   0.18783   0.59336   0.00000  Uiso   1.00
C247   C     0.88431   0.15941   0.64190   0.00000  Uiso   1.00
C248   C     0.35466   0.78375   0.56992   0.00000  Uiso   1.00
C249   C     0.33249   0.81214   0.59336   0.00000  Uiso   1.00
C250   C     0.38434   0.84056   0.64190   0.00000  Uiso   1.00
C251   C     0.30163   0.74999   0.44157   0.00000  Uiso   1.00
C252   C     0.73488   0.25000   0.35709   0.00000  Uiso   1.00
C253   C     0.74209   0.25002   0.29756   0.00000  Uiso   1.00
H254   H     0.99404   0.24997   0.58028   0.00000  Uiso   1.00
H255   H     0.03322   0.18783   0.66129   0.00000  Uiso   1.00
H256   H     0.03324   0.31212   0.66128   0.00000  Uiso   1.00
H257   H     0.93564   0.24999   0.42505   0.00000  Uiso   1.00
H258   H     0.04517   0.11894   0.74047   0.00000  Uiso   1.00
H259   H     0.04520   0.38102   0.74043   0.00000  Uiso   1.00
H260   H     0.83940   0.25001   0.24228   0.00000  Uiso   1.00
H261   H     0.25133   0.74999   0.49815   0.00000  Uiso   1.00
H262   H     0.27719   0.68785   0.57465   0.00000  Uiso   1.00
H263   H     0.27722   0.81214   0.57464   0.00000  Uiso   1.00
H264   H     0.67962   0.25001   0.33841   0.00000  Uiso   1.00
H265   H     0.33737   0.61896   0.67015   0.00000  Uiso   1.00
H266   H     0.33741   0.88104   0.67011   0.00000  Uiso   1.00
H267   H     0.63160   0.25003   0.17197   0.00000  Uiso   1.00
O268   O     0.96268   0.07808   0.75714   0.00000  Uiso   1.00
O269   O     0.46271   0.92191   0.75707   0.00000  Uiso   1.00
O270   O     0.69271   0.25003   0.10352   0.00000  Uiso   1.00
N271   N     0.99271   0.12747   0.71340   0.00000  Uiso   1.00
N272   N     0.99275   0.37249   0.71338   0.00000  Uiso   1.00
N273   N     0.30034   0.75002   0.24765   0.00000  Uiso   1.00
N274   N     0.88090   0.12748   0.67557   0.00000  Uiso   1.00
N275   N     0.38093   0.87250   0.67554   0.00000  Uiso   1.00
N276   N     0.68852   0.25003   0.20982   0.00000  Uiso   1.00
C277   C     0.85296   0.88531   0.86832   0.00000  Uiso   1.00
C278   C     0.81016   0.88778   0.89853   0.00000  Uiso   1.00
C279   C     0.75145   0.86463   0.87368   0.00000  Uiso   1.00
C280   C     0.71966   0.87143   0.90852   0.00000  Uiso   1.00
C281   C     0.64921   0.87087   0.94664   0.00000  Uiso   1.00
C282   C     0.84478   0.92322   0.83128   0.00000  Uiso   1.00
C283   C     0.81520   0.92986   0.74990   0.00000  Uiso   1.00
C284   C     0.81257   0.96650   0.72814   0.00000  Uiso   1.00
C285   C     0.79593   0.02096   0.66187   0.00000  Uiso   1.00
C286   C     0.93679   0.88144   0.94781   0.00000  Uiso   1.00
C287   C     0.98458   0.85296   0.96441   0.00000  Uiso   1.00
C288   C     0.05943   0.85444   0.04075   0.00000  Uiso   1.00
C289   C     0.68565   0.34403   0.15542   0.00000  Uiso   1.00
C290   C     0.90091   0.93857   0.97437   0.00000  Uiso   1.00
C291   C     0.83620   0.91670   0.95613   0.00000  Uiso   1.00
C292   C     0.80449   0.92355   0.99102   0.00000  Uiso   1.00
C293   C     0.74575   0.90041   0.96624   0.00000  Uiso   1.00
C294   C     0.87082   0.95214   0.88888   0.00000  Uiso   1.00
C295   C     0.86824   0.98878   0.86724   0.00000  Uiso   1.00
C296   C     0.83866   0.99548   0.78585   0.00000  Uiso   1.00
C297   C     0.96284   0.91036   0.00542   0.00000  Uiso   1.00
C298   C     0.03762   0.91188   0.08175   0.00000  Uiso   1.00
C299   C     0.08552   0.88342   0.09846   0.00000  Uiso   1.00
H300   H     0.83269   0.86279   0.82347   0.00000  Uiso   1.00
H301   H     0.73131   0.84224   0.82910   0.00000  Uiso   1.00
H302   H     0.79506   0.90747   0.70534   0.00000  Uiso   1.00
H303   H     0.96441   0.83058   0.91982   0.00000  Uiso   1.00
H304   H     0.63038   0.83223   0.86072   0.00000  Uiso   1.00
H305   H     0.76482   0.96976   0.59978   0.00000  Uiso   1.00
H306   H     0.12194   0.80763   0.05204   0.00000  Uiso   1.00
H307   H     0.92118   0.96109   0.01922   0.00000  Uiso   1.00
H308   H     0.82466   0.94593   0.03560   0.00000  Uiso   1.00
H309   H     0.88841   0.01116   0.91183   0.00000  Uiso   1.00
H310   H     0.05776   0.93427   0.12631   0.00000  Uiso   1.00
H311   H     0.70614   0.91639   0.02832   0.00000  Uiso   1.00
H312   H     0.84059   0.05392   0.76738   0.00000  Uiso   1.00
H313   H     0.69770   0.39179   0.21964   0.00000  Uiso   1.00
O314   O     0.60315   0.86258   0.95174   0.00000  Uiso   1.00
O315   O     0.77955   0.04301   0.60940   0.00000  Uiso   1.00
O316   O     0.74807   0.33029   0.20276   0.00000  Uiso   1.00
N317   N     0.66147   0.85411   0.89793   0.00000  Uiso   1.00
N318   N     0.78715   0.98270   0.65396   0.00000  Uiso   1.00
N319   N     0.12103   0.83112   0.07678   0.00000  Uiso   1.00
N320   N     0.70223   0.89940   0.98812   0.00000  Uiso   1.00
N321   N     0.82792   0.02798   0.74414   0.00000  Uiso   1.00
N322   N     0.66180   0.37641   0.16697   0.00000  Uiso   1.00
C323   C     0.85293   0.61467   0.86827   0.00000  Uiso   1.00
C324   C     0.84478   0.57677   0.83125   0.00000  Uiso   1.00
C325   C     0.81523   0.57012   0.74989   0.00000  Uiso   1.00
C326   C     0.81261   0.53348   0.72813   0.00000  Uiso   1.00
C327   C     0.79597   0.47903   0.66186   0.00000  Uiso   1.00
C328   C     0.81008   0.61220   0.89844   0.00000  Uiso   1.00
C329   C     0.75136   0.63535   0.87357   0.00000  Uiso   1.00
C330   C     0.71955   0.62854   0.90838   0.00000  Uiso   1.00
C331   C     0.64908   0.62910   0.94647   0.00000  Uiso   1.00
C332   C     0.93674   0.61855   0.94781   0.00000  Uiso   1.00
C333   C     0.98452   0.64705   0.96447   0.00000  Uiso   1.00
C334   C     0.05934   0.64559   0.04085   0.00000  Uiso   1.00
C335   C     0.18553   0.65603   0.15560   0.00000  Uiso   1.00
C336   C     0.90084   0.56142   0.97432   0.00000  Uiso   1.00
C337   C     0.87081   0.54784   0.88885   0.00000  Uiso   1.00
C338   C     0.86824   0.51120   0.86722   0.00000  Uiso   1.00
C339   C     0.83869   0.50451   0.78583   0.00000  Uiso   1.00
C340   C     0.83611   0.58327   0.95604   0.00000  Uiso   1.00
C341   C     0.80438   0.57643   0.99090   0.00000  Uiso   1.00
C342   C     0.74562   0.59956   0.96609   0.00000  Uiso   1.00
C343   C     0.96277   0.58963   0.00541   0.00000  Uiso   1.00
C344   C     0.03753   0.58813   0.08179   0.00000  Uiso   1.00
C345   C     0.08541   0.61661   0.09856   0.00000  Uiso   1.00
H346   H     0.83266   0.63719   0.82343   0.00000  Uiso   1.00
H347   H     0.79509   0.59252   0.70532   0.00000  Uiso   1.00
H348   H     0.73124   0.65773   0.82900   0.00000  Uiso   1.00
H349   H     0.96436   0.66943   0.91988   0.00000  Uiso   1.00
H350   H     0.76488   0.53023   0.59977   0.00000  Uiso   1.00
H351   H     0.63027   0.66775   0.86057   0.00000  Uiso   1.00
H352   H     0.12185   0.69242   0.05220   0.00000  Uiso   1.00
H353   H     0.92110   0.53890   0.01917   0.00000  Uiso   1.00
H354   H     0.88838   0.48882   0.91180   0.00000  Uiso   1.00
H355   H     0.82453   0.55404   0.03547   0.00000  Uiso   1.00
H356   H     0.05765   0.56574   0.12635   0.00000  Uiso   1.00
H357   H     0.84060   0.44607   0.76736   0.00000  Uiso   1.00
H358   H     0.70599   0.58359   0.02815   0.00000  Uiso   1.00
H359   H     0.69757   0.10825   0.21979   0.00000  Uiso   1.00
O360   O     0.77959   0.45698   0.60940   0.00000  Uiso   1.00
O361   O     0.60301   0.63741   0.95156   0.00000  Uiso   1.00
O362   O     0.24794   0.66977   0.20297   0.00000  Uiso   1.00
N363   N     0.78720   0.51729   0.65396   0.00000  Uiso   1.00
N364   N     0.66135   0.64586   0.89777   0.00000  Uiso   1.00
N365   N     0.12092   0.66893   0.07694   0.00000  Uiso   1.00
N366   N     0.82795   0.47201   0.74413   0.00000  Uiso   1.00
N367   N     0.70209   0.60058   0.98795   0.00000  Uiso   1.00
N368   N     0.16167   0.62364   0.16712   0.00000  Uiso   1.00
C369   C     0.97731   0.75000   0.60630   0.00000  Uiso   1.00
C370   C     0.97432   0.78377   0.56110   0.00000  Uiso   1.00
C371   C     0.92122   0.81216   0.52466   0.00000  Uiso   1.00
C372   C     0.92818   0.84059   0.48629   0.00000  Uiso   1.00
C373   C     0.91469   0.89301   0.41634   0.00000  Uiso   1.00
C374   C     0.97430   0.71624   0.56105   0.00000  Uiso   1.00
C375   C     0.92118   0.68785   0.52459   0.00000  Uiso   1.00
C376   C     0.92813   0.65943   0.48620   0.00000  Uiso   1.00
C377   C     0.91463   0.60701   0.41624   0.00000  Uiso   1.00
C378   C     0.05649   0.74999   0.69446   0.00000  Uiso   1.00
C379   C     0.07249   0.74996   0.77017   0.00000  Uiso   1.00
C380   C     0.14863   0.74994   0.84410   0.00000  Uiso   1.00
C381   C     0.76276   0.24991   0.98127   0.00000  Uiso   1.00
C382   C     0.08410   0.75000   0.60296   0.00000  Uiso   1.00
C383   C     0.03232   0.78377   0.55928   0.00000  Uiso   1.00
C384   C     0.03937   0.81216   0.52096   0.00000  Uiso   1.00
C385   C     0.98629   0.84059   0.48448   0.00000  Uiso   1.00
C386   C     0.03230   0.71624   0.55924   0.00000  Uiso   1.00
C387   C     0.03933   0.68785   0.52090   0.00000  Uiso   1.00
C388   C     0.98623   0.65943   0.48439   0.00000  Uiso   1.00
C389   C     0.11449   0.74999   0.69265   0.00000  Uiso   1.00
C390   C     0.19063   0.74996   0.76647   0.00000  Uiso   1.00
C391   C     0.20674   0.74994   0.84228   0.00000  Uiso   1.00
H392   H     0.93216   0.75000   0.60771   0.00000  Uiso   1.00
H393   H     0.87634   0.81215   0.52607   0.00000  Uiso   1.00
H394   H     0.87631   0.68786   0.52601   0.00000  Uiso   1.00
H395   H     0.02759   0.74996   0.77155   0.00000  Uiso   1.00
H396   H     0.84002   0.88105   0.43473   0.00000  Uiso   1.00
H397   H     0.83997   0.61897   0.43463   0.00000  Uiso   1.00
H398   H     0.15897   0.74992   0.95240   0.00000  Uiso   1.00
H399   H     0.12926   0.75000   0.60155   0.00000  Uiso   1.00
H400   H     0.08426   0.81215   0.51957   0.00000  Uiso   1.00
H401   H     0.08422   0.68786   0.51951   0.00000  Uiso   1.00
H402   H     0.23550   0.74996   0.76505   0.00000  Uiso   1.00
H403   H     0.00877   0.88105   0.42945   0.00000  Uiso   1.00
H404   H     0.00872   0.61897   0.42936   0.00000  Uiso   1.00
H405   H     0.82772   0.24992   0.94712   0.00000  Uiso   1.00
O406   O     0.89122   0.92193   0.37824   0.00000  Uiso   1.00
O407   O     0.89116   0.57809   0.37814   0.00000  Uiso   1.00
O408   O     0.80968   0.24990   0.05743   0.00000  Uiso   1.00
N409   N     0.88592   0.87252   0.44475   0.00000  Uiso   1.00
N410   N     0.88586   0.62750   0.44465   0.00000  Uiso   1.00
N411   N     0.18410   0.74992   0.92872   0.00000  Uiso   1.00
N412   N     0.97672   0.87252   0.44191   0.00000  Uiso   1.00
N413   N     0.97666   0.62750   0.44181   0.00000  Uiso   1.00
N414   N     0.77491   0.24992   0.92588   0.00000  Uiso   1.00
C415   C     0.50704   0.61872   0.25669   0.00000  Uiso   1.00
C416   C     0.54775   0.61485   0.22416   0.00000  Uiso   1.00
C417   C     0.60737   0.63682   0.24772   0.00000  Uiso   1.00
C418   C     0.63689   0.62883   0.21080   0.00000  Uiso   1.00
C419   C     0.70455   0.62721   0.16920   0.00000  Uiso   1.00
C420   C     0.51362   0.58107   0.29366   0.00000  Uiso   1.00
C421   C     0.54455   0.57463   0.37564   0.00000  Uiso   1.00
C422   C     0.54533   0.53820   0.39722   0.00000  Uiso   1.00
C423   C     0.55996   0.48413   0.46350   0.00000  Uiso   1.00
C424   C     0.42302   0.62375   0.17863   0.00000  Uiso   1.00
C425   C     0.37776   0.65319   0.16390   0.00000  Uiso   1.00
C426   C     0.80225   0.15269   0.08864   0.00000  Uiso   1.00
C427   C     0.17620   0.66489   0.97632   0.00000  Uiso   1.00
C428   C     0.45343   0.56547   0.14925   0.00000  Uiso   1.00
C429   C     0.51863   0.58593   0.16581   0.00000  Uiso   1.00
C430   C     0.54806   0.57790   0.12884   0.00000  Uiso   1.00
C431   C     0.60772   0.59986   0.15234   0.00000  Uiso   1.00
C432   C     0.48451   0.55214   0.23531   0.00000  Uiso   1.00
C433   C     0.48524   0.51571   0.25677   0.00000  Uiso   1.00
C434   C     0.51616   0.50922   0.33876   0.00000  Uiso   1.00
C435   C     0.89390   0.09482   0.12027   0.00000  Uiso   1.00
C436   C     0.81844   0.09427   0.04502   0.00000  Uiso   1.00
C437   C     0.77307   0.12371   0.03018   0.00000  Uiso   1.00
H438   H     0.52971   0.64124   0.30213   0.00000  Uiso   1.00
H439   H     0.62990   0.65920   0.29289   0.00000  Uiso   1.00
H440   H     0.56708   0.59702   0.42078   0.00000  Uiso   1.00
H441   H     0.40031   0.67557   0.20907   0.00000  Uiso   1.00
H442   H     0.72815   0.66635   0.25693   0.00000  Uiso   1.00
H443   H     0.59566   0.53524   0.52660   0.00000  Uiso   1.00
H444   H     0.24400   0.70088   0.08017   0.00000  Uiso   1.00
H445   H     0.93076   0.04295   0.10382   0.00000  Uiso   1.00
H446   H     0.52551   0.55552   0.08369   0.00000  Uiso   1.00
H447   H     0.96269   0.99334   0.21159   0.00000  Uiso   1.00
H448   H     0.79593   0.07189   0.99988   0.00000  Uiso   1.00
H449   H     0.64343   0.58220   0.08714   0.00000  Uiso   1.00
H450   H     0.01094   0.95109   0.35681   0.00000  Uiso   1.00
H451   H     0.15928   0.61672   0.91038   0.00000  Uiso   1.00
O452   O     0.74992   0.63431   0.16239   0.00000  Uiso   1.00
O453   O     0.57609   0.46230   0.51618   0.00000  Uiso   1.00
O454   O     0.11472   0.67961   0.93048   0.00000  Uiso   1.00
N455   N     0.69519   0.64483   0.21971   0.00000  Uiso   1.00
N456   N     0.57134   0.52225   0.47185   0.00000  Uiso   1.00
N457   N     0.24256   0.67710   0.05448   0.00000  Uiso   1.00
N458   N     0.64960   0.59954   0.12835   0.00000  Uiso   1.00
N459   N     0.52575   0.47697   0.38048   0.00000  Uiso   1.00
N460   N     0.19697   0.63181   0.96312   0.00000  Uiso   1.00
C461   C     0.50700   0.88127   0.25668   0.00000  Uiso   1.00
C462   C     0.51354   0.91892   0.29364   0.00000  Uiso   1.00
C463   C     0.54445   0.92535   0.37561   0.00000  Uiso   1.00
C464   C     0.54520   0.96178   0.39719   0.00000  Uiso   1.00
C465   C     0.05982   0.51584   0.46346   0.00000  Uiso   1.00
C466   C     0.54774   0.88516   0.22419   0.00000  Uiso   1.00
C467   C     0.60738   0.86320   0.24776   0.00000  Uiso   1.00
C468   C     0.63691   0.87120   0.21086   0.00000  Uiso   1.00
C469   C     0.70458   0.87283   0.16927   0.00000  Uiso   1.00
C470   C     0.92299   0.37623   0.17859   0.00000  Uiso   1.00
C471   C     0.87776   0.34676   0.16380   0.00000  Uiso   1.00
C472   C     0.80227   0.34724   0.08850   0.00000  Uiso   1.00
C473   C     0.67626   0.33501   0.97610   0.00000  Uiso   1.00
C474   C     0.95339   0.43453   0.14924   0.00000  Uiso   1.00
C475   C     0.98442   0.44785   0.23528   0.00000  Uiso   1.00
C476   C     0.98513   0.48427   0.25674   0.00000  Uiso   1.00
C477   C     0.01603   0.49076   0.33872   0.00000  Uiso   1.00
C478   C     0.51862   0.91408   0.16583   0.00000  Uiso   1.00
C479   C     0.54806   0.92212   0.12889   0.00000  Uiso   1.00
C480   C     0.60774   0.90018   0.15240   0.00000  Uiso   1.00
C481   C     0.89387   0.40516   0.12023   0.00000  Uiso   1.00
C482   C     0.81844   0.40568   0.04493   0.00000  Uiso   1.00
C483   C     0.77310   0.37622   0.03004   0.00000  Uiso   1.00
H484   H     0.52968   0.85875   0.30211   0.00000  Uiso   1.00
H485   H     0.56698   0.90296   0.42075   0.00000  Uiso   1.00
H486   H     0.62990   0.84081   0.29291   0.00000  Uiso   1.00
H487   H     0.90031   0.32438   0.20897   0.00000  Uiso   1.00
H488   H     0.59553   0.96473   0.52656   0.00000  Uiso   1.00
H489   H     0.72818   0.83368   0.25699   0.00000  Uiso   1.00
H490   H     0.74404   0.29903   0.07998   0.00000  Uiso   1.00
H491   H     0.93072   0.45705   0.10381   0.00000  Uiso   1.00
H492   H     0.96259   0.50665   0.21157   0.00000  Uiso   1.00
H493   H     0.02551   0.44450   0.08373   0.00000  Uiso   1.00
H494   H     0.79592   0.42807   0.99979   0.00000  Uiso   1.00
H495   H     0.01080   0.54889   0.35678   0.00000  Uiso   1.00
H496   H     0.64345   0.91784   0.08721   0.00000  Uiso   1.00
H497   H     0.65932   0.38319   0.91020   0.00000  Uiso   1.00
O498   O     0.07594   0.53767   0.51614   0.00000  Uiso   1.00
O499   O     0.74996   0.86573   0.16247   0.00000  Uiso   1.00
O500   O     0.11479   0.82028   0.93023   0.00000  Uiso   1.00
N501   N     0.57120   0.97773   0.47181   0.00000  Uiso   1.00
N502   N     0.69523   0.85521   0.21978   0.00000  Uiso   1.00
N503   N     0.74261   0.32281   0.05428   0.00000  Uiso   1.00
N504   N     0.02561   0.52302   0.38045   0.00000  Uiso   1.00
N505   N     0.64964   0.90050   0.12843   0.00000  Uiso   1.00
N506   N     0.69702   0.36810   0.96293   0.00000  Uiso   1.00
C507   C     0.43844   0.74997   0.56146   0.00000  Uiso   1.00
C508   C     0.42606   0.71621   0.59408   0.00000  Uiso   1.00
C509   C     0.47795   0.68782   0.64259   0.00000  Uiso   1.00
C510   C     0.45587   0.65940   0.66611   0.00000  Uiso   1.00
C511   C     0.44754   0.60699   0.72047   0.00000  Uiso   1.00
C512   C     0.42608   0.78374   0.59409   0.00000  Uiso   1.00
C513   C     0.47798   0.81213   0.64259   0.00000  Uiso   1.00
C514   C     0.45589   0.84056   0.66611   0.00000  Uiso   1.00
C515   C     0.94757   0.39299   0.72042   0.00000  Uiso   1.00
C516   C     0.37305   0.74998   0.46574   0.00000  Uiso   1.00
C517   C     0.38036   0.75000   0.40632   0.00000  Uiso   1.00
C518   C     0.81364   0.25001   0.32177   0.00000  Uiso   1.00
C519   C     0.22298   0.75003   0.17680   0.00000  Uiso   1.00
C520   C     0.80694   0.24998   0.51697   0.00000  Uiso   1.00
C521   C     0.35464   0.71622   0.56991   0.00000  Uiso   1.00
C522   C     0.33247   0.68783   0.59336   0.00000  Uiso   1.00
C523   C     0.38431   0.65941   0.64190   0.00000  Uiso   1.00
C524   C     0.85466   0.28375   0.56992   0.00000  Uiso   1.00
C525   C     0.83249   0.31214   0.59336   0.00000  Uiso   1.00
C526   C     0.88434   0.34056   0.64190   0.00000  Uiso   1.00
C527   C     0.80163   0.24999   0.44157   0.00000  Uiso   1.00
C528   C     0.23488   0.75000   0.35709   0.00000  Uiso   1.00
C529   C     0.24209   0.75002   0.29756   0.00000  Uiso   1.00
H530   H     0.49404   0.74997   0.58028   0.00000  Uiso   1.00
H531   H     0.53322   0.68783   0.66129   0.00000  Uiso   1.00
H532   H     0.53324   0.81212   0.66128   0.00000  Uiso   1.00
H533   H     0.43564   0.74999   0.42505   0.00000  Uiso   1.00
H534   H     0.54517   0.61894   0.74047   0.00000  Uiso   1.00
H535   H     0.54520   0.88102   0.74043   0.00000  Uiso   1.00
H536   H     0.33940   0.75001   0.24228   0.00000  Uiso   1.00
H537   H     0.75133   0.24999   0.49815   0.00000  Uiso   1.00
H538   H     0.77719   0.18785   0.57465   0.00000  Uiso   1.00
H539   H     0.77722   0.31214   0.57464   0.00000  Uiso   1.00
H540   H     0.17962   0.75001   0.33841   0.00000  Uiso   1.00
H541   H     0.83737   0.11896   0.67015   0.00000  Uiso   1.00
H542   H     0.83741   0.38104   0.67011   0.00000  Uiso   1.00
H543   H     0.13160   0.75003   0.17197   0.00000  Uiso   1.00
O544   O     0.46268   0.57808   0.75714   0.00000  Uiso   1.00
O545   O     0.96271   0.42191   0.75707   0.00000  Uiso   1.00
O546   O     0.19271   0.75003   0.10352   0.00000  Uiso   1.00
N547   N     0.49271   0.62747   0.71340   0.00000  Uiso   1.00
N548   N     0.49275   0.87249   0.71338   0.00000  Uiso   1.00
N549   N     0.80034   0.25002   0.24765   0.00000  Uiso   1.00
N550   N     0.38090   0.62748   0.67557   0.00000  Uiso   1.00
N551   N     0.88093   0.37250   0.67554   0.00000  Uiso   1.00
N552   N     0.18852   0.75003   0.20982   0.00000  Uiso   1.00
C553   C     0.35296   0.61469   0.36832   0.00000  Uiso   1.00
C554   C     0.31016   0.61222   0.39853   0.00000  Uiso   1.00
C555   C     0.25145   0.63537   0.37368   0.00000  Uiso   1.00
C556   C     0.21966   0.62857   0.40852   0.00000  Uiso   1.00
C557   C     0.14921   0.62913   0.44664   0.00000  Uiso   1.00
C558   C     0.34478   0.57678   0.33128   0.00000  Uiso   1.00
C559   C     0.31520   0.57014   0.24990   0.00000  Uiso   1.00
C560   C     0.31257   0.53350   0.22814   0.00000  Uiso   1.00
C561   C     0.29593   0.47904   0.16187   0.00000  Uiso   1.00
C562   C     0.43679   0.61856   0.44781   0.00000  Uiso   1.00
C563   C     0.48458   0.64704   0.46441   0.00000  Uiso   1.00
C564   C     0.55943   0.64556   0.54075   0.00000  Uiso   1.00
C565   C     0.18565   0.15597   0.65542   0.00000  Uiso   1.00
C566   C     0.40091   0.56143   0.47437   0.00000  Uiso   1.00
C567   C     0.33620   0.58330   0.45613   0.00000  Uiso   1.00
C568   C     0.30449   0.57645   0.49102   0.00000  Uiso   1.00
C569   C     0.24575   0.59959   0.46624   0.00000  Uiso   1.00
C570   C     0.37082   0.54786   0.38888   0.00000  Uiso   1.00
C571   C     0.36824   0.51122   0.36724   0.00000  Uiso   1.00
C572   C     0.33866   0.50452   0.28585   0.00000  Uiso   1.00
C573   C     0.46284   0.58964   0.50542   0.00000  Uiso   1.00
C574   C     0.53762   0.58812   0.58175   0.00000  Uiso   1.00
C575   C     0.58552   0.61658   0.59846   0.00000  Uiso   1.00
H576   H     0.33269   0.63721   0.32347   0.00000  Uiso   1.00
H577   H     0.23131   0.65776   0.32910   0.00000  Uiso   1.00
H578   H     0.29506   0.59253   0.20534   0.00000  Uiso   1.00
H579   H     0.46441   0.66942   0.41982   0.00000  Uiso   1.00
H580   H     0.13038   0.66777   0.36072   0.00000  Uiso   1.00
H581   H     0.26482   0.53024   0.09978   0.00000  Uiso   1.00
H582   H     0.62194   0.69237   0.55204   0.00000  Uiso   1.00
H583   H     0.42118   0.53891   0.51922   0.00000  Uiso   1.00
H584   H     0.32466   0.55407   0.53560   0.00000  Uiso   1.00
H585   H     0.38841   0.48884   0.41183   0.00000  Uiso   1.00
H586   H     0.55776   0.56573   0.62631   0.00000  Uiso   1.00
H587   H     0.20614   0.58361   0.52832   0.00000  Uiso   1.00
H588   H     0.34059   0.44608   0.26738   0.00000  Uiso   1.00
H589   H     0.19770   0.10821   0.71964   0.00000  Uiso   1.00
O590   O     0.10315   0.63742   0.45174   0.00000  Uiso   1.00
O591   O     0.27955   0.45699   0.10940   0.00000  Uiso   1.00
O592   O     0.24807   0.16971   0.70276   0.00000  Uiso   1.00
N593   N     0.16147   0.64589   0.39793   0.00000  Uiso   1.00
N594   N     0.28715   0.51730   0.15396   0.00000  Uiso   1.00
N595   N     0.62103   0.66888   0.57678   0.00000  Uiso   1.00
N596   N     0.20223   0.60060   0.48812   0.00000  Uiso   1.00
N597   N     0.32792   0.47202   0.24414   0.00000  Uiso   1.00
N598   N     0.16180   0.12359   0.66697   0.00000  Uiso   1.00
C599   C     0.35293   0.88533   0.36827   0.00000  Uiso   1.00
C600   C     0.34478   0.92323   0.33125   0.00000  Uiso   1.00
C601   C     0.31523   0.92988   0.24989   0.00000  Uiso   1.00
C602   C     0.31261   0.96652   0.22813   0.00000  Uiso   1.00
C603   C     0.29597   0.02097   0.16186   0.00000  Uiso   1.00
C604   C     0.31008   0.88780   0.39844   0.00000  Uiso   1.00
C605   C     0.25136   0.86465   0.37357   0.00000  Uiso   1.00
C606   C     0.21955   0.87146   0.40838   0.00000  Uiso   1.00
C607   C     0.14908   0.87090   0.44647   0.00000  Uiso   1.00
C608   C     0.43674   0.88145   0.44781   0.00000  Uiso   1.00
C609   C     0.48452   0.85295   0.46447   0.00000  Uiso   1.00
C610   C     0.55934   0.85441   0.54085   0.00000  Uiso   1.00
C611   C     0.68553   0.84397   0.65560   0.00000  Uiso   1.00
C612   C     0.40084   0.93858   0.47432   0.00000  Uiso   1.00
C613   C     0.37081   0.95216   0.38885   0.00000  Uiso   1.00
C614   C     0.36824   0.98880   0.36722   0.00000  Uiso   1.00
C615   C     0.33869   0.99549   0.28583   0.00000  Uiso   1.00
C616   C     0.33611   0.91673   0.45604   0.00000  Uiso   1.00
C617   C     0.30438   0.92357   0.49090   0.00000  Uiso   1.00
C618   C     0.24562   0.90044   0.46609   0.00000  Uiso   1.00
C619   C     0.46277   0.91037   0.50541   0.00000  Uiso   1.00
C620   C     0.53753   0.91187   0.58179   0.00000  Uiso   1.00
C621   C     0.58541   0.88339   0.59856   0.00000  Uiso   1.00
H622   H     0.33266   0.86281   0.32343   0.00000  Uiso   1.00
H623   H     0.29509   0.90748   0.20532   0.00000  Uiso   1.00
H624   H     0.23124   0.84227   0.32900   0.00000  Uiso   1.00
H625   H     0.46436   0.83057   0.41988   0.00000  Uiso   1.00
H626   H     0.26488   0.96977   0.09977   0.00000  Uiso   1.00
H627   H     0.13027   0.83225   0.36057   0.00000  Uiso   1.00
H628   H     0.62185   0.80758   0.55220   0.00000  Uiso   1.00
H629   H     0.42110   0.96110   0.51917   0.00000  Uiso   1.00
H630   H     0.38838   0.01118   0.41180   0.00000  Uiso   1.00
H631   H     0.32453   0.94596   0.53547   0.00000  Uiso   1.00
H632   H     0.55765   0.93426   0.62635   0.00000  Uiso   1.00
H633   H     0.34060   0.05393   0.26736   0.00000  Uiso   1.00
H634   H     0.20599   0.91641   0.52815   0.00000  Uiso   1.00
H635   H     0.19757   0.39175   0.71979   0.00000  Uiso   1.00
O636   O     0.27959   0.04302   0.10940   0.00000  Uiso   1.00
O637   O     0.10301   0.86259   0.45156   0.00000  Uiso   1.00
O638   O     0.74794   0.83023   0.70297   0.00000  Uiso   1.00
N639   N     0.28720   0.98271   0.15396   0.00000  Uiso   1.00
N640   N     0.16135   0.85414   0.39777   0.00000  Uiso   1.00
N641   N     0.62092   0.83107   0.57694   0.00000  Uiso   1.00
N642   N     0.32795   0.02799   0.24413   0.00000  Uiso   1.00
N643   N     0.20209   0.89942   0.48795   0.00000  Uiso   1.00
N644   N     0.66167   0.87636   0.66712   0.00000  Uiso   1.00
C645   C     0.47731   0.75000   0.10630   0.00000  Uiso   1.00
C646   C     0.47432   0.71623   0.06110   0.00000  Uiso   1.00
C647   C     0.42122   0.68784   0.02466   0.00000  Uiso   1.00
C648   C     0.42818   0.65941   0.98629   0.00000  Uiso   1.00
C649   C     0.41469   0.60699   0.91634   0.00000  Uiso   1.00
C650   C     0.47430   0.78376   0.06105   0.00000  Uiso   1.00
C651   C     0.42118   0.81215   0.02459   0.00000  Uiso   1.00
C652   C     0.42813   0.84057   0.98620   0.00000  Uiso   1.00
C653   C     0.41463   0.89299   0.91624   0.00000  Uiso   1.00
C654   C     0.55649   0.75001   0.19446   0.00000  Uiso   1.00
C655   C     0.57249   0.75004   0.27017   0.00000  Uiso   1.00
C656   C     0.64863   0.75006   0.34410   0.00000  Uiso   1.00
C657   C     0.26276   0.25009   0.48127   0.00000  Uiso   1.00
C658   C     0.58410   0.75000   0.10296   0.00000  Uiso   1.00
C659   C     0.53232   0.71623   0.05928   0.00000  Uiso   1.00
C660   C     0.53937   0.68784   0.02096   0.00000  Uiso   1.00
C661   C     0.48629   0.65941   0.98448   0.00000  Uiso   1.00
C662   C     0.53230   0.78376   0.05924   0.00000  Uiso   1.00
C663   C     0.53933   0.81215   0.02090   0.00000  Uiso   1.00
C664   C     0.48623   0.84057   0.98439   0.00000  Uiso   1.00
C665   C     0.61449   0.75001   0.19265   0.00000  Uiso   1.00
C666   C     0.69063   0.75004   0.26647   0.00000  Uiso   1.00
C667   C     0.70674   0.75006   0.34228   0.00000  Uiso   1.00
H668   H     0.43216   0.75000   0.10771   0.00000  Uiso   1.00
H669   H     0.37634   0.68785   0.02607   0.00000  Uiso   1.00
H670   H     0.37631   0.81214   0.02601   0.00000  Uiso   1.00
H671   H     0.52759   0.75004   0.27155   0.00000  Uiso   1.00
H672   H     0.34002   0.61895   0.93473   0.00000  Uiso   1.00
H673   H     0.33997   0.88103   0.93463   0.00000  Uiso   1.00
H674   H     0.65897   0.75008   0.45240   0.00000  Uiso   1.00
H675   H     0.62926   0.75000   0.10155   0.00000  Uiso   1.00
H676   H     0.58426   0.68785   0.01957   0.00000  Uiso   1.00
H677   H     0.58422   0.81214   0.01951   0.00000  Uiso   1.00
H678   H     0.73550   0.75004   0.26505   0.00000  Uiso   1.00
H679   H     0.50877   0.61895   0.92945   0.00000  Uiso   1.00
H680   H     0.50872   0.88103   0.92936   0.00000  Uiso   1.00
H681   H     0.32772   0.25008   0.44712   0.00000  Uiso   1.00
O682   O     0.39122   0.57807   0.87824   0.00000  Uiso   1.00
O683   O     0.39116   0.92191   0.87814   0.00000  Uiso   1.00
O684   O     0.30968   0.25010   0.55743   0.00000  Uiso   1.00
N685   N     0.38592   0.62748   0.94475   0.00000  Uiso   1.00
N686   N     0.38586   0.87250   0.94465   0.00000  Uiso   1.00
N687   N     0.68410   0.75008   0.42872   0.00000  Uiso   1.00
N688   N     0.47672   0.62748   0.94191   0.00000  Uiso   1.00
N689   N     0.47666   0.87250   0.94181   0.00000  Uiso   1.00
N690   N     0.27491   0.25008   0.42588   0.00000  Uiso   1.00
C691   C     0.00704   0.88128   0.75669   0.00000  Uiso   1.00
C692   C     0.04775   0.88515   0.72416   0.00000  Uiso   1.00
C693   C     0.10737   0.86318   0.74772   0.00000  Uiso   1.00
C694   C     0.13689   0.87117   0.71080   0.00000  Uiso   1.00
C695   C     0.20455   0.87279   0.66920   0.00000  Uiso   1.00
C696   C     0.01362   0.91893   0.79366   0.00000  Uiso   1.00
C697   C     0.04455   0.92537   0.87564   0.00000  Uiso   1.00
C698   C     0.04533   0.96180   0.89722   0.00000  Uiso   1.00
C699   C     0.05996   0.01587   0.96350   0.00000  Uiso   1.00
C700   C     0.92302   0.87625   0.67863   0.00000  Uiso   1.00
C701   C     0.87776   0.84681   0.66390   0.00000  Uiso   1.00
C702   C     0.30225   0.34731   0.58864   0.00000  Uiso   1.00
C703   C     0.67620   0.83511   0.47632   0.00000  Uiso   1.00
C704   C     0.95343   0.93453   0.64925   0.00000  Uiso   1.00
C705   C     0.01863   0.91407   0.66581   0.00000  Uiso   1.00
C706   C     0.04806   0.92210   0.62884   0.00000  Uiso   1.00
C707   C     0.10772   0.90014   0.65234   0.00000  Uiso   1.00
C708   C     0.98451   0.94786   0.73531   0.00000  Uiso   1.00
C709   C     0.98524   0.98429   0.75677   0.00000  Uiso   1.00
C710   C     0.01616   0.99078   0.83876   0.00000  Uiso   1.00
C711   C     0.39390   0.40518   0.62027   0.00000  Uiso   1.00
C712   C     0.31844   0.40573   0.54502   0.00000  Uiso   1.00
C713   C     0.27307   0.37629   0.53018   0.00000  Uiso   1.00
H714   H     0.02971   0.85876   0.80213   0.00000  Uiso   1.00
H715   H     0.12990   0.84080   0.79289   0.00000  Uiso   1.00
H716   H     0.06708   0.90298   0.92078   0.00000  Uiso   1.00
H717   H     0.90031   0.82443   0.70907   0.00000  Uiso   1.00
H718   H     0.22815   0.83365   0.75693   0.00000  Uiso   1.00
H719   H     0.09566   0.96476   0.02660   0.00000  Uiso   1.00
H720   H     0.74400   0.79912   0.58017   0.00000  Uiso   1.00
H721   H     0.43076   0.45705   0.60382   0.00000  Uiso   1.00
H722   H     0.02551   0.94448   0.58369   0.00000  Uiso   1.00
H723   H     0.46269   0.50666   0.71159   0.00000  Uiso   1.00
H724   H     0.29593   0.42811   0.49988   0.00000  Uiso   1.00
H725   H     0.14343   0.91780   0.58714   0.00000  Uiso   1.00
H726   H     0.51094   0.54891   0.85681   0.00000  Uiso   1.00
H727   H     0.65928   0.88328   0.41038   0.00000  Uiso   1.00
O728   O     0.24992   0.86569   0.66239   0.00000  Uiso   1.00
O729   O     0.07609   0.03770   0.01618   0.00000  Uiso   1.00
O730   O     0.61472   0.82039   0.43048   0.00000  Uiso   1.00
N731   N     0.19519   0.85517   0.71971   0.00000  Uiso   1.00
N732   N     0.07134   0.97775   0.97185   0.00000  Uiso   1.00
N733   N     0.74256   0.82290   0.55448   0.00000  Uiso   1.00
N734   N     0.14960   0.90046   0.62835   0.00000  Uiso   1.00
N735   N     0.02575   0.02303   0.88048   0.00000  Uiso   1.00
N736   N     0.69697   0.86819   0.46312   0.00000  Uiso   1.00
C737   C     0.00700   0.61873   0.75668   0.00000  Uiso   1.00
C738   C     0.01354   0.58108   0.79364   0.00000  Uiso   1.00
C739   C     0.04445   0.57465   0.87561   0.00000  Uiso   1.00
C740   C     0.04520   0.53822   0.89719   0.00000  Uiso   1.00
C741   C     0.55982   0.98416   0.96346   0.00000  Uiso   1.00
C742   C     0.04774   0.61484   0.72419   0.00000  Uiso   1.00
C743   C     0.10738   0.63680   0.74776   0.00000  Uiso   1.00
C744   C     0.13691   0.62880   0.71086   0.00000  Uiso   1.00
C745   C     0.20458   0.62717   0.66927   0.00000  Uiso   1.00
C746   C     0.42299   0.12377   0.67859   0.00000  Uiso   1.00
C747   C     0.37776   0.15324   0.66380   0.00000  Uiso   1.00
C748   C     0.30227   0.15276   0.58850   0.00000  Uiso   1.00
C749   C     0.17626   0.16499   0.47610   0.00000  Uiso   1.00
C750   C     0.45339   0.06547   0.64924   0.00000  Uiso   1.00
C751   C     0.48442   0.05215   0.73528   0.00000  Uiso   1.00
C752   C     0.48513   0.01573   0.75674   0.00000  Uiso   1.00
C753   C     0.51603   0.00924   0.83872   0.00000  Uiso   1.00
C754   C     0.01862   0.58592   0.66583   0.00000  Uiso   1.00
C755   C     0.04806   0.57788   0.62889   0.00000  Uiso   1.00
C756   C     0.10774   0.59982   0.65240   0.00000  Uiso   1.00
C757   C     0.39387   0.09484   0.62023   0.00000  Uiso   1.00
C758   C     0.31844   0.09432   0.54493   0.00000  Uiso   1.00
C759   C     0.27310   0.12378   0.53004   0.00000  Uiso   1.00
H760   H     0.02968   0.64125   0.80211   0.00000  Uiso   1.00
H761   H     0.06698   0.59704   0.92075   0.00000  Uiso   1.00
H762   H     0.12990   0.65919   0.79291   0.00000  Uiso   1.00
H763   H     0.40031   0.17562   0.70897   0.00000  Uiso   1.00
H764   H     0.09553   0.53527   0.02656   0.00000  Uiso   1.00
H765   H     0.22818   0.66632   0.75699   0.00000  Uiso   1.00
H766   H     0.24404   0.20097   0.57998   0.00000  Uiso   1.00
H767   H     0.43072   0.04295   0.60381   0.00000  Uiso   1.00
H768   H     0.46259   0.99335   0.71157   0.00000  Uiso   1.00
H769   H     0.52551   0.05550   0.58373   0.00000  Uiso   1.00
H770   H     0.29592   0.07193   0.49979   0.00000  Uiso   1.00
H771   H     0.51080   0.95111   0.85678   0.00000  Uiso   1.00
H772   H     0.14345   0.58216   0.58721   0.00000  Uiso   1.00
H773   H     0.15932   0.11681   0.41020   0.00000  Uiso   1.00
O774   O     0.57594   0.96233   0.01614   0.00000  Uiso   1.00
O775   O     0.24996   0.63427   0.66247   0.00000  Uiso   1.00
O776   O     0.61479   0.67972   0.43023   0.00000  Uiso   1.00
N777   N     0.07120   0.52227   0.97181   0.00000  Uiso   1.00
N778   N     0.19523   0.64479   0.71978   0.00000  Uiso   1.00
N779   N     0.24261   0.17719   0.55428   0.00000  Uiso   1.00
N780   N     0.52561   0.97698   0.88045   0.00000  Uiso   1.00
N781   N     0.14964   0.59950   0.62843   0.00000  Uiso   1.00
N782   N     0.19702   0.13190   0.46293   0.00000  Uiso   1.00
C783   C     0.93844   0.75003   0.06146   0.00000  Uiso   1.00
C784   C     0.92606   0.78379   0.09408   0.00000  Uiso   1.00
C785   C     0.97795   0.81218   0.14259   0.00000  Uiso   1.00
C786   C     0.95587   0.84060   0.16611   0.00000  Uiso   1.00
C787   C     0.94754   0.89301   0.22047   0.00000  Uiso   1.00
C788   C     0.92608   0.71626   0.09409   0.00000  Uiso   1.00
C789   C     0.97798   0.68787   0.14259   0.00000  Uiso   1.00
C790   C     0.95589   0.65944   0.16611   0.00000  Uiso   1.00
C791   C     0.44757   0.10701   0.22042   0.00000  Uiso   1.00
C792   C     0.87305   0.75002   0.96574   0.00000  Uiso   1.00
C793   C     0.88036   0.75000   0.90632   0.00000  Uiso   1.00
C794   C     0.31364   0.24999   0.82177   0.00000  Uiso   1.00
C795   C     0.72298   0.74997   0.67680   0.00000  Uiso   1.00
C796   C     0.30694   0.25002   0.01697   0.00000  Uiso   1.00
C797   C     0.85464   0.78378   0.06991   0.00000  Uiso   1.00
C798   C     0.83247   0.81217   0.09336   0.00000  Uiso   1.00
C799   C     0.88431   0.84059   0.14190   0.00000  Uiso   1.00
C800   C     0.35466   0.21625   0.06992   0.00000  Uiso   1.00
C801   C     0.33249   0.18786   0.09336   0.00000  Uiso   1.00
C802   C     0.38434   0.15944   0.14190   0.00000  Uiso   1.00
C803   C     0.30163   0.25001   0.94157   0.00000  Uiso   1.00
C804   C     0.73488   0.75000   0.85709   0.00000  Uiso   1.00
C805   C     0.74209   0.74998   0.79756   0.00000  Uiso   1.00
H806   H     0.99404   0.75003   0.08028   0.00000  Uiso   1.00
H807   H     0.03322   0.81217   0.16129   0.00000  Uiso   1.00
H808   H     0.03324   0.68788   0.16128   0.00000  Uiso   1.00
H809   H     0.93564   0.75001   0.92505   0.00000  Uiso   1.00
H810   H     0.04517   0.88106   0.24047   0.00000  Uiso   1.00
H811   H     0.04520   0.61898   0.24043   0.00000  Uiso   1.00
H812   H     0.83940   0.74999   0.74228   0.00000  Uiso   1.00
H813   H     0.25133   0.25001   0.99815   0.00000  Uiso   1.00
H814   H     0.27719   0.31215   0.07465   0.00000  Uiso   1.00
H815   H     0.27722   0.18786   0.07464   0.00000  Uiso   1.00
H816   H     0.67962   0.74999   0.83841   0.00000  Uiso   1.00
H817   H     0.33737   0.38104   0.17015   0.00000  Uiso   1.00
H818   H     0.33741   0.11896   0.17011   0.00000  Uiso   1.00
H819   H     0.63160   0.74997   0.67197   0.00000  Uiso   1.00
O820   O     0.96268   0.92192   0.25714   0.00000  Uiso   1.00
O821   O     0.46271   0.07809   0.25707   0.00000  Uiso   1.00
O822   O     0.69271   0.74997   0.60352   0.00000  Uiso   1.00
N823   N     0.99271   0.87253   0.21340   0.00000  Uiso   1.00
N824   N     0.99275   0.62751   0.21338   0.00000  Uiso   1.00
N825   N     0.30034   0.24998   0.74765   0.00000  Uiso   1.00
N826   N     0.88090   0.87252   0.17557   0.00000  Uiso   1.00
N827   N     0.38093   0.12750   0.17554   0.00000  Uiso   1.00
N828   N     0.68852   0.74997   0.70982   0.00000  Uiso   1.00
C829   C     0.85296   0.11469   0.36832   0.00000  Uiso   1.00
C830   C     0.81016   0.11222   0.39853   0.00000  Uiso   1.00
C831   C     0.75145   0.13537   0.37368   0.00000  Uiso   1.00
C832   C     0.71966   0.12857   0.40852   0.00000  Uiso   1.00
C833   C     0.64921   0.12913   0.44664   0.00000  Uiso   1.00
C834   C     0.84478   0.07678   0.33128   0.00000  Uiso   1.00
C835   C     0.81520   0.07014   0.24990   0.00000  Uiso   1.00
C836   C     0.81257   0.03350   0.22814   0.00000  Uiso   1.00
C837   C     0.79593   0.97904   0.16187   0.00000  Uiso   1.00
C838   C     0.93679   0.11856   0.44781   0.00000  Uiso   1.00
C839   C     0.98458   0.14704   0.46441   0.00000  Uiso   1.00
C840   C     0.05943   0.14556   0.54075   0.00000  Uiso   1.00
C841   C     0.68565   0.65597   0.65542   0.00000  Uiso   1.00
C842   C     0.90091   0.06143   0.47437   0.00000  Uiso   1.00
C843   C     0.83620   0.08330   0.45613   0.00000  Uiso   1.00
C844   C     0.80449   0.07645   0.49102   0.00000  Uiso   1.00
C845   C     0.74575   0.09959   0.46624   0.00000  Uiso   1.00
C846   C     0.87082   0.04786   0.38888   0.00000  Uiso   1.00
C847   C     0.86824   0.01122   0.36724   0.00000  Uiso   1.00
C848   C     0.83866   0.00452   0.28585   0.00000  Uiso   1.00
C849   C     0.96284   0.08964   0.50542   0.00000  Uiso   1.00
C850   C     0.03762   0.08812   0.58175   0.00000  Uiso   1.00
C851   C     0.08552   0.11658   0.59846   0.00000  Uiso   1.00
H852   H     0.83269   0.13721   0.32347   0.00000  Uiso   1.00
H853   H     0.73131   0.15776   0.32910   0.00000  Uiso   1.00
H854   H     0.79506   0.09253   0.20534   0.00000  Uiso   1.00
H855   H     0.96441   0.16942   0.41982   0.00000  Uiso   1.00
H856   H     0.63038   0.16777   0.36072   0.00000  Uiso   1.00
H857   H     0.76482   0.03024   0.09978   0.00000  Uiso   1.00
H858   H     0.12194   0.19237   0.55204   0.00000  Uiso   1.00
H859   H     0.92118   0.03891   0.51922   0.00000  Uiso   1.00
H860   H     0.82466   0.05407   0.53560   0.00000  Uiso   1.00
H861   H     0.88841   0.98884   0.41183   0.00000  Uiso   1.00
H862   H     0.05776   0.06573   0.62631   0.00000  Uiso   1.00
H863   H     0.70614   0.08361   0.52832   0.00000  Uiso   1.00
H864   H     0.84059   0.94608   0.26738   0.00000  Uiso   1.00
H865   H     0.69770   0.60821   0.71964   0.00000  Uiso   1.00
O866   O     0.60315   0.13742   0.45174   0.00000  Uiso   1.00
O867   O     0.77955   0.95699   0.10940   0.00000  Uiso   1.00
O868   O     0.74807   0.66971   0.70276   0.00000  Uiso   1.00
N869   N     0.66147   0.14589   0.39793   0.00000  Uiso   1.00
N870   N     0.78715   0.01730   0.15396   0.00000  Uiso   1.00
N871   N     0.12103   0.16888   0.57678   0.00000  Uiso   1.00
N872   N     0.70223   0.10060   0.48812   0.00000  Uiso   1.00
N873   N     0.82792   0.97202   0.24414   0.00000  Uiso   1.00
N874   N     0.66180   0.62359   0.66697   0.00000  Uiso   1.00
C875   C     0.85293   0.38533   0.36827   0.00000  Uiso   1.00
C876   C     0.84478   0.42323   0.33125   0.00000  Uiso   1.00
C877   C     0.81523   0.42988   0.24989   0.00000  Uiso   1.00
C878   C     0.81261   0.46652   0.22813   0.00000  Uiso   1.00
C879   C     0.79597   0.52097   0.16186   0.00000  Uiso   1.00
C880   C     0.81008   0.38780   0.39844   0.00000  Uiso   1.00
C881   C     0.75136   0.36465   0.37357   0.00000  Uiso   1.00
C882   C     0.71955   0.37146   0.40838   0.00000  Uiso   1.00
C883   C     0.64908   0.37090   0.44647   0.00000  Uiso   1.00
C884   C     0.93674   0.38145   0.44781   0.00000  Uiso   1.00
C885   C     0.98452   0.35295   0.46447   0.00000  Uiso   1.00
C886   C     0.05934   0.35441   0.54085   0.00000  Uiso   1.00
C887   C     0.18553   0.34397   0.65560   0.00000  Uiso   1.00
C888   C     0.90084   0.43858   0.47432   0.00000  Uiso   1.00
C889   C     0.87081   0.45216   0.38885   0.00000  Uiso   1.00
C890   C     0.86824   0.48880   0.36722   0.00000  Uiso   1.00
C891   C     0.83869   0.49549   0.28583   0.00000  Uiso   1.00
C892   C     0.83611   0.41673   0.45604   0.00000  Uiso   1.00
C893   C     0.80438   0.42357   0.49090   0.00000  Uiso   1.00
C894   C     0.74562   0.40044   0.46609   0.00000  Uiso   1.00
C895   C     0.96277   0.41037   0.50541   0.00000  Uiso   1.00
C896   C     0.03753   0.41187   0.58179   0.00000  Uiso   1.00
C897   C     0.08541   0.38339   0.59856   0.00000  Uiso   1.00
H898   H     0.83266   0.36281   0.32343   0.00000  Uiso   1.00
H899   H     0.79509   0.40748   0.20532   0.00000  Uiso   1.00
H900   H     0.73124   0.34227   0.32900   0.00000  Uiso   1.00
H901   H     0.96436   0.33057   0.41988   0.00000  Uiso   1.00
H902   H     0.76488   0.46977   0.09977   0.00000  Uiso   1.00
H903   H     0.63027   0.33225   0.36057   0.00000  Uiso   1.00
H904   H     0.12185   0.30758   0.55220   0.00000  Uiso   1.00
H905   H     0.92110   0.46110   0.51917   0.00000  Uiso   1.00
H906   H     0.88838   0.51118   0.41180   0.00000  Uiso   1.00
H907   H     0.82453   0.44596   0.53547   0.00000  Uiso   1.00
H908   H     0.05765   0.43426   0.62635   0.00000  Uiso   1.00
H909   H     0.84060   0.55393   0.26736   0.00000  Uiso   1.00
H910   H     0.70599   0.41641   0.52815   0.00000  Uiso   1.00
H911   H     0.69757   0.89175   0.71979   0.00000  Uiso   1.00
O912   O     0.77959   0.54302   0.10940   0.00000  Uiso   1.00
O913   O     0.60301   0.36259   0.45156   0.00000  Uiso   1.00
O914   O     0.24794   0.33023   0.70297   0.00000  Uiso   1.00
N915   N     0.78720   0.48271   0.15396   0.00000  Uiso   1.00
N916   N     0.66135   0.35414   0.39777   0.00000  Uiso   1.00
N917   N     0.12092   0.33107   0.57694   0.00000  Uiso   1.00
N918   N     0.82795   0.52799   0.24413   0.00000  Uiso   1.00
N919   N     0.70209   0.39942   0.48795   0.00000  Uiso   1.00
N920   N     0.16167   0.37636   0.66712   0.00000  Uiso   1.00
C921   C     0.97731   0.25000   0.10630   0.00000  Uiso   1.00
C922   C     0.97432   0.21623   0.06110   0.00000  Uiso   1.00
C923   C     0.92122   0.18784   0.02466   0.00000  Uiso   1.00
C924   C     0.92818   0.15941   0.98629   0.00000  Uiso   1.00
C925   C     0.91469   0.10699   0.91634   0.00000  Uiso   1.00
C926   C     0.97430   0.28376   0.06105   0.00000  Uiso   1.00
C927   C     0.92118   0.31215   0.02459   0.00000  Uiso   1.00
C928   C     0.92813   0.34057   0.98620   0.00000  Uiso   1.00
C929   C     0.91463   0.39299   0.91624   0.00000  Uiso   1.00
C930   C     0.05649   0.25001   0.19446   0.00000  Uiso   1.00
C931   C     0.07249   0.25004   0.27017   0.00000  Uiso   1.00
C932   C     0.14863   0.25006   0.34410   0.00000  Uiso   1.00
C933   C     0.76276   0.75009   0.48127   0.00000  Uiso   1.00
C934   C     0.08410   0.25000   0.10296   0.00000  Uiso   1.00
C935   C     0.03232   0.21623   0.05928   0.00000  Uiso   1.00
C936   C     0.03937   0.18784   0.02096   0.00000  Uiso   1.00
C937   C     0.98629   0.15941   0.98448   0.00000  Uiso   1.00
C938   C     0.03230   0.28376   0.05924   0.00000  Uiso   1.00
C939   C     0.03933   0.31215   0.02090   0.00000  Uiso   1.00
C940   C     0.98623   0.34057   0.98439   0.00000  Uiso   1.00
C941   C     0.11449   0.25001   0.19265   0.00000  Uiso   1.00
C942   C     0.19063   0.25004   0.26647   0.00000  Uiso   1.00
C943   C     0.20674   0.25006   0.34228   0.00000  Uiso   1.00
H944   H     0.93216   0.25000   0.10771   0.00000  Uiso   1.00
H945   H     0.87634   0.18785   0.02607   0.00000  Uiso   1.00
H946   H     0.87631   0.31214   0.02601   0.00000  Uiso   1.00
H947   H     0.02759   0.25004   0.27155   0.00000  Uiso   1.00
H948   H     0.84002   0.11895   0.93473   0.00000  Uiso   1.00
H949   H     0.83997   0.38103   0.93463   0.00000  Uiso   1.00
H950   H     0.15897   0.25008   0.45240   0.00000  Uiso   1.00
H951   H     0.12926   0.25000   0.10155   0.00000  Uiso   1.00
H952   H     0.08426   0.18785   0.01957   0.00000  Uiso   1.00
H953   H     0.08422   0.31214   0.01951   0.00000  Uiso   1.00
H954   H     0.23550   0.25004   0.26505   0.00000  Uiso   1.00
H955   H     0.00877   0.11895   0.92945   0.00000  Uiso   1.00
H956   H     0.00872   0.38103   0.92936   0.00000  Uiso   1.00
H957   H     0.82772   0.75008   0.44712   0.00000  Uiso   1.00
O958   O     0.89122   0.07807   0.87824   0.00000  Uiso   1.00
O959   O     0.89116   0.42191   0.87814   0.00000  Uiso   1.00
O960   O     0.80968   0.75010   0.55743   0.00000  Uiso   1.00
N961   N     0.88592   0.12748   0.94475   0.00000  Uiso   1.00
N962   N     0.88586   0.37250   0.94465   0.00000  Uiso   1.00
N963   N     0.18410   0.25008   0.42872   0.00000  Uiso   1.00
N964   N     0.97672   0.12748   0.94191   0.00000  Uiso   1.00
N965   N     0.97666   0.37250   0.94181   0.00000  Uiso   1.00
N966   N     0.77491   0.75008   0.42588   0.00000  Uiso   1.00
C967   C     0.50704   0.38128   0.75669   0.00000  Uiso   1.00
C968   C     0.54775   0.38515   0.72416   0.00000  Uiso   1.00
C969   C     0.60737   0.36318   0.74772   0.00000  Uiso   1.00
C970   C     0.63689   0.37117   0.71080   0.00000  Uiso   1.00
C971   C     0.70455   0.37279   0.66920   0.00000  Uiso   1.00
C972   C     0.51362   0.41893   0.79366   0.00000  Uiso   1.00
C973   C     0.54455   0.42537   0.87564   0.00000  Uiso   1.00
C974   C     0.54533   0.46180   0.89722   0.00000  Uiso   1.00
C975   C     0.55996   0.51587   0.96350   0.00000  Uiso   1.00
C976   C     0.42302   0.37625   0.67863   0.00000  Uiso   1.00
C977   C     0.37776   0.34681   0.66390   0.00000  Uiso   1.00
C978   C     0.80225   0.84731   0.58864   0.00000  Uiso   1.00
C979   C     0.17620   0.33511   0.47632   0.00000  Uiso   1.00
C980   C     0.45343   0.43453   0.64925   0.00000  Uiso   1.00
C981   C     0.51863   0.41407   0.66581   0.00000  Uiso   1.00
C982   C     0.54806   0.42210   0.62884   0.00000  Uiso   1.00
C983   C     0.60772   0.40014   0.65234   0.00000  Uiso   1.00
C984   C     0.48451   0.44786   0.73531   0.00000  Uiso   1.00
C985   C     0.48524   0.48429   0.75677   0.00000  Uiso   1.00
C986   C     0.51616   0.49078   0.83876   0.00000  Uiso   1.00
C987   C     0.89390   0.90518   0.62027   0.00000  Uiso   1.00
C988   C     0.81844   0.90573   0.54502   0.00000  Uiso   1.00
C989   C     0.77307   0.87629   0.53018   0.00000  Uiso   1.00
H990   H     0.52971   0.35876   0.80213   0.00000  Uiso   1.00
H991   H     0.62990   0.34080   0.79289   0.00000  Uiso   1.00
H992   H     0.56708   0.40298   0.92078   0.00000  Uiso   1.00
H993   H     0.40031   0.32443   0.70907   0.00000  Uiso   1.00
H994   H     0.72815   0.33365   0.75693   0.00000  Uiso   1.00
H995   H     0.59566   0.46476   0.02660   0.00000  Uiso   1.00
H996   H     0.24400   0.29912   0.58017   0.00000  Uiso   1.00
H997   H     0.93076   0.95705   0.60382   0.00000  Uiso   1.00
H998   H     0.52551   0.44448   0.58369   0.00000  Uiso   1.00
H999   H     0.96269   0.00666   0.71159   0.00000  Uiso   1.00
H1000  H     0.79593   0.92811   0.49988   0.00000  Uiso   1.00
H1001  H     0.64343   0.41780   0.58714   0.00000  Uiso   1.00
H1002  H     0.01094   0.04891   0.85681   0.00000  Uiso   1.00
H1003  H     0.15928   0.38328   0.41038   0.00000  Uiso   1.00
O1004  O     0.74992   0.36569   0.66239   0.00000  Uiso   1.00
O1005  O     0.57609   0.53770   0.01618   0.00000  Uiso   1.00
O1006  O     0.11472   0.32039   0.43048   0.00000  Uiso   1.00
N1007  N     0.69519   0.35517   0.71971   0.00000  Uiso   1.00
N1008  N     0.57134   0.47775   0.97185   0.00000  Uiso   1.00
N1009  N     0.24256   0.32290   0.55448   0.00000  Uiso   1.00
N1010  N     0.64960   0.40046   0.62835   0.00000  Uiso   1.00
N1011  N     0.52575   0.52303   0.88048   0.00000  Uiso   1.00
N1012  N     0.19697   0.36819   0.46312   0.00000  Uiso   1.00
C1013  C     0.50700   0.11873   0.75668   0.00000  Uiso   1.00
C1014  C     0.51354   0.08108   0.79364   0.00000  Uiso   1.00
C1015  C     0.54445   0.07465   0.87561   0.00000  Uiso   1.00
C1016  C     0.54520   0.03822   0.89719   0.00000  Uiso   1.00
C1017  C     0.05982   0.48416   0.96346   0.00000  Uiso   1.00
C1018  C     0.54774   0.11484   0.72419   0.00000  Uiso   1.00
C1019  C     0.60738   0.13680   0.74776   0.00000  Uiso   1.00
C1020  C     0.63691   0.12880   0.71086   0.00000  Uiso   1.00
C1021  C     0.70458   0.12717   0.66927   0.00000  Uiso   1.00
C1022  C     0.92299   0.62377   0.67859   0.00000  Uiso   1.00
C1023  C     0.87776   0.65324   0.66380   0.00000  Uiso   1.00
C1024  C     0.80227   0.65276   0.58850   0.00000  Uiso   1.00
C1025  C     0.67626   0.66499   0.47610   0.00000  Uiso   1.00
C1026  C     0.95339   0.56547   0.64924   0.00000  Uiso   1.00
C1027  C     0.98442   0.55215   0.73528   0.00000  Uiso   1.00
C1028  C     0.98513   0.51573   0.75674   0.00000  Uiso   1.00
C1029  C     0.01603   0.50924   0.83872   0.00000  Uiso   1.00
C1030  C     0.51862   0.08592   0.66583   0.00000  Uiso   1.00
C1031  C     0.54806   0.07788   0.62889   0.00000  Uiso   1.00
C1032  C     0.60774   0.09982   0.65240   0.00000  Uiso   1.00
C1033  C     0.89387   0.59484   0.62023   0.00000  Uiso   1.00
C1034  C     0.81844   0.59432   0.54493   0.00000  Uiso   1.00
C1035  C     0.77310   0.62378   0.53004   0.00000  Uiso   1.00
H1036  H     0.52968   0.14125   0.80211   0.00000  Uiso   1.00
H1037  H     0.56698   0.09704   0.92075   0.00000  Uiso   1.00
H1038  H     0.62990   0.15919   0.79291   0.00000  Uiso   1.00
H1039  H     0.90031   0.67562   0.70897   0.00000  Uiso   1.00
H1040  H     0.59553   0.03527   0.02656   0.00000  Uiso   1.00
H1041  H     0.72818   0.16632   0.75699   0.00000  Uiso   1.00
H1042  H     0.74404   0.70097   0.57998   0.00000  Uiso   1.00
H1043  H     0.93072   0.54295   0.60381   0.00000  Uiso   1.00
H1044  H     0.96259   0.49335   0.71157   0.00000  Uiso   1.00
H1045  H     0.02551   0.55550   0.58373   0.00000  Uiso   1.00
H1046  H     0.79592   0.57193   0.49979   0.00000  Uiso   1.00
H1047  H     0.01080   0.45111   0.85678   0.00000  Uiso   1.00
H1048  H     0.64345   0.08216   0.58721   0.00000  Uiso   1.00
H1049  H     0.65932   0.61681   0.41020   0.00000  Uiso   1.00
O1050  O     0.07594   0.46233   0.01614   0.00000  Uiso   1.00
O1051  O     0.74996   0.13427   0.66247   0.00000  Uiso   1.00
O1052  O     0.11479   0.17972   0.43023   0.00000  Uiso   1.00
N1053  N     0.57120   0.02227   0.97181   0.00000  Uiso   1.00
N1054  N     0.69523   0.14479   0.71978   0.00000  Uiso   1.00
N1055  N     0.74261   0.67719   0.55428   0.00000  Uiso   1.00
N1056  N     0.02561   0.47698   0.88045   0.00000  Uiso   1.00
N1057  N     0.64964   0.09950   0.62843   0.00000  Uiso   1.00
N1058  N     0.69702   0.63190   0.46293   0.00000  Uiso   1.00
C1059  C     0.43844   0.25003   0.06146   0.00000  Uiso   1.00
C1060  C     0.42606   0.28379   0.09408   0.00000  Uiso   1.00
C1061  C     0.47795   0.31218   0.14259   0.00000  Uiso   1.00
C1062  C     0.45587   0.34060   0.16611   0.00000  Uiso   1.00
C1063  C     0.44754   0.39301   0.22047   0.00000  Uiso   1.00
C1064  C     0.42608   0.21626   0.09409   0.00000  Uiso   1.00
C1065  C     0.47798   0.18787   0.14259   0.00000  Uiso   1.00
C1066  C     0.45589   0.15944   0.16611   0.00000  Uiso   1.00
C1067  C     0.94757   0.60701   0.22042   0.00000  Uiso   1.00
C1068  C     0.37305   0.25002   0.96574   0.00000  Uiso   1.00
C1069  C     0.38036   0.25000   0.90632   0.00000  Uiso   1.00
C1070  C     0.81364   0.74999   0.82177   0.00000  Uiso   1.00
C1071  C     0.22298   0.24997   0.67680   0.00000  Uiso   1.00
C1072  C     0.80694   0.75002   0.01697   0.00000  Uiso   1.00
C1073  C     0.35464   0.28378   0.06991   0.00000  Uiso   1.00
C1074  C     0.33247   0.31217   0.09336   0.00000  Uiso   1.00
C1075  C     0.38431   0.34059   0.14190   0.00000  Uiso   1.00
C1076  C     0.85466   0.71625   0.06992   0.00000  Uiso   1.00
C1077  C     0.83249   0.68786   0.09336   0.00000  Uiso   1.00
C1078  C     0.88434   0.65944   0.14190   0.00000  Uiso   1.00
C1079  C     0.80163   0.75001   0.94157   0.00000  Uiso   1.00
C1080  C     0.23488   0.25000   0.85709   0.00000  Uiso   1.00
C1081  C     0.24209   0.24998   0.79756   0.00000  Uiso   1.00
H1082  H     0.49404   0.25003   0.08028   0.00000  Uiso   1.00
H1083  H     0.53322   0.31217   0.16129   0.00000  Uiso   1.00
H1084  H     0.53324   0.18788   0.16128   0.00000  Uiso   1.00
H1085  H     0.43564   0.25001   0.92505   0.00000  Uiso   1.00
H1086  H     0.54517   0.38106   0.24047   0.00000  Uiso   1.00
H1087  H     0.54520   0.11898   0.24043   0.00000  Uiso   1.00
H1088  H     0.33940   0.24999   0.74228   0.00000  Uiso   1.00
H1089  H     0.75133   0.75001   0.99815   0.00000  Uiso   1.00
H1090  H     0.77719   0.81215   0.07465   0.00000  Uiso   1.00
H1091  H     0.77722   0.68786   0.07464   0.00000  Uiso   1.00
H1092  H     0.17962   0.24999   0.83841   0.00000  Uiso   1.00
H1093  H     0.83737   0.88104   0.17015   0.00000  Uiso   1.00
H1094  H     0.83741   0.61896   0.17011   0.00000  Uiso   1.00
H1095  H     0.13160   0.24997   0.67197   0.00000  Uiso   1.00
O1096  O     0.46268   0.42192   0.25714   0.00000  Uiso   1.00
O1097  O     0.96271   0.57809   0.25707   0.00000  Uiso   1.00
O1098  O     0.19271   0.24997   0.60352   0.00000  Uiso   1.00
N1099  N     0.49271   0.37253   0.21340   0.00000  Uiso   1.00
N1100  N     0.49275   0.12751   0.21338   0.00000  Uiso   1.00
N1101  N     0.80034   0.74998   0.74765   0.00000  Uiso   1.00
N1102  N     0.38090   0.37252   0.17557   0.00000  Uiso   1.00
N1103  N     0.88093   0.62750   0.17554   0.00000  Uiso   1.00
N1104  N     0.18852   0.24997   0.70982   0.00000  Uiso   1.00
