data_job_04717
_audit_creation_date              2018-12-19
_audit_creation_method            'Materials Studio'
_symmetry_space_group_name_H-M    'P1'
_symmetry_Int_Tables_number       1
_symmetry_cell_setting            triclinic
loop_
_symmetry_equiv_pos_as_xyz
  x,y,z
_cell_length_a                    20.4795
_cell_length_b                    12.4420
_cell_length_c                    45.1607
_cell_angle_alpha                 90.0000
_cell_angle_beta                  90.0000
_cell_angle_gamma                 90.0000
loop_
_atom_site_label
_atom_site_type_symbol
_atom_site_fract_x
_atom_site_fract_y
_atom_site_fract_z
_atom_site_U_iso_or_equiv
_atom_site_adp_type
_atom_site_occupancy
C1     C     0.25549   0.24529   0.35592   0.00000  Uiso   1.00
C2     C     0.23491   0.31942   0.38114   0.00000  Uiso   1.00
C3     C     0.18377   0.30117   0.40066   0.00000  Uiso   1.00
C4     C     0.17278   0.37870   0.42220   0.00000  Uiso   1.00
C5     C     0.13491   0.47978   0.46106   0.00000  Uiso   1.00
C6     C     0.25312   0.31332   0.32785   0.00000  Uiso   1.00
C7     C     0.21730   0.28993   0.30257   0.00000  Uiso   1.00
C8     C     0.22166   0.36232   0.27926   0.00000  Uiso   1.00
C9     C     0.21210   0.45389   0.23538   0.00000  Uiso   1.00
C10    C     0.32737   0.21973   0.36119   0.00000  Uiso   1.00
C11    C     0.35399   0.11763   0.36394   0.00000  Uiso   1.00
C12    C     0.42086   0.11122   0.36868   0.00000  Uiso   1.00
C13    C     0.52659   0.05747   0.37657   0.00000  Uiso   1.00
C14    C     0.32692   0.41544   0.35946   0.00000  Uiso   1.00
C15    C     0.27371   0.41185   0.38306   0.00000  Uiso   1.00
C16    C     0.26280   0.48942   0.40458   0.00000  Uiso   1.00
C17    C     0.21165   0.47129   0.42413   0.00000  Uiso   1.00
C18    C     0.29192   0.40574   0.32977   0.00000  Uiso   1.00
C19    C     0.29633   0.47818   0.30649   0.00000  Uiso   1.00
C20    C     0.26053   0.45491   0.28119   0.00000  Uiso   1.00
C21    C     0.36617   0.31215   0.36311   0.00000  Uiso   1.00
C22    C     0.43302   0.30589   0.36786   0.00000  Uiso   1.00
C23    C     0.45973   0.20381   0.37061   0.00000  Uiso   1.00
H24    H     0.22528   0.17334   0.35442   0.00000  Uiso   1.00
H25    H     0.15375   0.22964   0.39916   0.00000  Uiso   1.00
H26    H     0.18729   0.21840   0.30109   0.00000  Uiso   1.00
H27    H     0.32395   0.04613   0.36245   0.00000  Uiso   1.00
H28    H     0.09154   0.33284   0.44961   0.00000  Uiso   1.00
H29    H     0.16227   0.30911   0.24282   0.00000  Uiso   1.00
H30    H     0.45045   0.94585   0.37219   0.00000  Uiso   1.00
H31    H     0.35713   0.48740   0.36096   0.00000  Uiso   1.00
H32    H     0.29283   0.56094   0.40606   0.00000  Uiso   1.00
H33    H     0.32637   0.54969   0.30799   0.00000  Uiso   1.00
H34    H     0.46303   0.37743   0.36934   0.00000  Uiso   1.00
H35    H     0.20442   0.60174   0.45521   0.00000  Uiso   1.00
H36    H     0.27516   0.57800   0.24841   0.00000  Uiso   1.00
H37    H     0.56333   0.21475   0.37779   0.00000  Uiso   1.00
O38    O     0.10329   0.51001   0.48195   0.00000  Uiso   1.00
O39    O     0.19610   0.47886   0.21065   0.00000  Uiso   1.00
O40    O     0.57418   0.00229   0.38039   0.00000  Uiso   1.00
N41    N     0.12694   0.38602   0.44474   0.00000  Uiso   1.00
N42    N     0.19306   0.36384   0.25140   0.00000  Uiso   1.00
N43    N     0.46249   0.02423   0.37235   0.00000  Uiso   1.00
N44    N     0.18768   0.53071   0.44775   0.00000  Uiso   1.00
N45    N     0.25380   0.50853   0.25442   0.00000  Uiso   1.00
N46    N     0.52323   0.16892   0.37537   0.00000  Uiso   1.00
C47    C     0.25390   0.40903   0.07704   0.00000  Uiso   1.00
C48    C     0.23745   0.33429   0.05134   0.00000  Uiso   1.00
C49    C     0.18747   0.34938   0.03101   0.00000  Uiso   1.00
C50    C     0.18039   0.27183   0.00914   0.00000  Uiso   1.00
C51    C     0.14851   0.16934   0.96946   0.00000  Uiso   1.00
C52    C     0.25115   0.33996   0.10491   0.00000  Uiso   1.00
C53    C     0.21270   0.35983   0.12961   0.00000  Uiso   1.00
C54    C     0.21715   0.28707   0.15283   0.00000  Uiso   1.00
C55    C     0.20658   0.19343   0.19633   0.00000  Uiso   1.00
C56    C     0.32539   0.44008   0.07303   0.00000  Uiso   1.00
C57    C     0.34937   0.54413   0.07095   0.00000  Uiso   1.00
C58    C     0.41633   0.55565   0.06734   0.00000  Uiso   1.00
C59    C     0.52103   0.61746   0.06135   0.00000  Uiso   1.00
C60    C     0.33019   0.24448   0.07435   0.00000  Uiso   1.00
C61    C     0.27889   0.24491   0.04988   0.00000  Uiso   1.00
C62    C     0.27188   0.16732   0.02804   0.00000  Uiso   1.00
C63    C     0.22190   0.18229   0.00767   0.00000  Uiso   1.00
C64    C     0.29258   0.25058   0.10345   0.00000  Uiso   1.00
C65    C     0.29710   0.17777   0.12664   0.00000  Uiso   1.00
C66    C     0.25866   0.19752   0.15137   0.00000  Uiso   1.00
C67    C     0.36683   0.35070   0.07157   0.00000  Uiso   1.00
C68    C     0.43377   0.36206   0.06797   0.00000  Uiso   1.00
C69    C     0.45784   0.46611   0.06588   0.00000  Uiso   1.00
H70    H     0.22164   0.47862   0.07818   0.00000  Uiso   1.00
H71    H     0.15541   0.41856   0.03215   0.00000  Uiso   1.00
H72    H     0.18064   0.42901   0.13074   0.00000  Uiso   1.00
H73    H     0.31729   0.61327   0.07208   0.00000  Uiso   1.00
H74    H     0.10024   0.31253   0.98048   0.00000  Uiso   1.00
H75    H     0.15345   0.33460   0.18836   0.00000  Uiso   1.00
H76    H     0.44160   0.72316   0.06468   0.00000  Uiso   1.00
H77    H     0.36245   0.17489   0.07322   0.00000  Uiso   1.00
H78    H     0.30395   0.09816   0.02691   0.00000  Uiso   1.00
H79    H     0.32917   0.10862   0.12550   0.00000  Uiso   1.00
H80    H     0.46582   0.29288   0.06685   0.00000  Uiso   1.00
H81    H     0.22080   0.05248   0.97623   0.00000  Uiso   1.00
H82    H     0.27401   0.07456   0.18411   0.00000  Uiso   1.00
H83    H     0.56216   0.46311   0.06043   0.00000  Uiso   1.00
O84    O     0.11948   0.13749   0.94799   0.00000  Uiso   1.00
O85    O     0.18929   0.16646   0.22072   0.00000  Uiso   1.00
O86    O     0.56734   0.67623   0.05845   0.00000  Uiso   1.00
N87    N     0.13665   0.26187   0.98583   0.00000  Uiso   1.00
N88    N     0.18639   0.28249   0.18019   0.00000  Uiso   1.00
N89    N     0.45579   0.64576   0.06456   0.00000  Uiso   1.00
N90    N     0.20152   0.12194   0.98354   0.00000  Uiso   1.00
N91    N     0.25126   0.14256   0.17790   0.00000  Uiso   1.00
N92    N     0.52066   0.50583   0.06227   0.00000  Uiso   1.00
C93    C     0.24451   0.25471   0.85592   0.00000  Uiso   1.00
C94    C     0.26509   0.18058   0.88114   0.00000  Uiso   1.00
C95    C     0.31623   0.19883   0.90066   0.00000  Uiso   1.00
C96    C     0.32722   0.12130   0.92220   0.00000  Uiso   1.00
C97    C     0.36509   0.02022   0.96106   0.00000  Uiso   1.00
C98    C     0.24688   0.18668   0.82785   0.00000  Uiso   1.00
C99    C     0.28270   0.21007   0.80257   0.00000  Uiso   1.00
C100   C     0.27834   0.13768   0.77926   0.00000  Uiso   1.00
C101   C     0.28790   0.04611   0.73538   0.00000  Uiso   1.00
C102   C     0.17263   0.28027   0.86119   0.00000  Uiso   1.00
C103   C     0.14601   0.38237   0.86394   0.00000  Uiso   1.00
C104   C     0.07914   0.38878   0.86868   0.00000  Uiso   1.00
C105   C     0.97341   0.44253   0.87657   0.00000  Uiso   1.00
C106   C     0.17308   0.08456   0.85946   0.00000  Uiso   1.00
C107   C     0.22629   0.08815   0.88306   0.00000  Uiso   1.00
C108   C     0.23720   0.01058   0.90458   0.00000  Uiso   1.00
C109   C     0.28835   0.02871   0.92413   0.00000  Uiso   1.00
C110   C     0.20808   0.09426   0.82977   0.00000  Uiso   1.00
C111   C     0.20367   0.02182   0.80649   0.00000  Uiso   1.00
C112   C     0.23947   0.04509   0.78119   0.00000  Uiso   1.00
C113   C     0.13383   0.18785   0.86311   0.00000  Uiso   1.00
C114   C     0.06698   0.19411   0.86786   0.00000  Uiso   1.00
C115   C     0.04027   0.29619   0.87061   0.00000  Uiso   1.00
H116   H     0.27472   0.32666   0.85442   0.00000  Uiso   1.00
H117   H     0.34625   0.27036   0.89916   0.00000  Uiso   1.00
H118   H     0.31271   0.28160   0.80109   0.00000  Uiso   1.00
H119   H     0.17605   0.45387   0.86245   0.00000  Uiso   1.00
H120   H     0.40846   0.16716   0.94961   0.00000  Uiso   1.00
H121   H     0.33773   0.19089   0.74282   0.00000  Uiso   1.00
H122   H     0.04955   0.55415   0.87219   0.00000  Uiso   1.00
H123   H     0.14287   0.01260   0.86096   0.00000  Uiso   1.00
H124   H     0.20717   0.93906   0.90606   0.00000  Uiso   1.00
H125   H     0.17363   0.95031   0.80799   0.00000  Uiso   1.00
H126   H     0.03697   0.12257   0.86934   0.00000  Uiso   1.00
H127   H     0.29558   0.89826   0.95521   0.00000  Uiso   1.00
H128   H     0.22484   0.92200   0.74841   0.00000  Uiso   1.00
H129   H     0.93667   0.28525   0.87779   0.00000  Uiso   1.00
O130   O     0.39671   0.98999   0.98195   0.00000  Uiso   1.00
O131   O     0.30390   0.02114   0.71065   0.00000  Uiso   1.00
O132   O     0.92582   0.49771   0.88039   0.00000  Uiso   1.00
N133   N     0.37306   0.11398   0.94474   0.00000  Uiso   1.00
N134   N     0.30694   0.13616   0.75140   0.00000  Uiso   1.00
N135   N     0.03751   0.47577   0.87235   0.00000  Uiso   1.00
N136   N     0.31232   0.96929   0.94775   0.00000  Uiso   1.00
N137   N     0.24620   0.99147   0.75442   0.00000  Uiso   1.00
N138   N     0.97677   0.33108   0.87537   0.00000  Uiso   1.00
C139   C     0.24610   0.09097   0.57704   0.00000  Uiso   1.00
C140   C     0.26255   0.16571   0.55134   0.00000  Uiso   1.00
C141   C     0.31253   0.15062   0.53101   0.00000  Uiso   1.00
C142   C     0.31961   0.22817   0.50914   0.00000  Uiso   1.00
C143   C     0.35149   0.33066   0.46946   0.00000  Uiso   1.00
C144   C     0.24885   0.16004   0.60491   0.00000  Uiso   1.00
C145   C     0.28730   0.14017   0.62961   0.00000  Uiso   1.00
C146   C     0.28285   0.21293   0.65283   0.00000  Uiso   1.00
C147   C     0.29342   0.30657   0.69633   0.00000  Uiso   1.00
C148   C     0.17461   0.05992   0.57303   0.00000  Uiso   1.00
C149   C     0.15063   0.95587   0.57095   0.00000  Uiso   1.00
C150   C     0.08367   0.94435   0.56734   0.00000  Uiso   1.00
C151   C     0.97897   0.88254   0.56135   0.00000  Uiso   1.00
C152   C     0.16981   0.25552   0.57435   0.00000  Uiso   1.00
C153   C     0.22111   0.25509   0.54988   0.00000  Uiso   1.00
C154   C     0.22812   0.33268   0.52804   0.00000  Uiso   1.00
C155   C     0.27810   0.31771   0.50767   0.00000  Uiso   1.00
C156   C     0.20742   0.24942   0.60345   0.00000  Uiso   1.00
C157   C     0.20290   0.32223   0.62664   0.00000  Uiso   1.00
C158   C     0.24134   0.30248   0.65137   0.00000  Uiso   1.00
C159   C     0.13317   0.14930   0.57157   0.00000  Uiso   1.00
C160   C     0.06623   0.13794   0.56797   0.00000  Uiso   1.00
C161   C     0.04216   0.03389   0.56588   0.00000  Uiso   1.00
H162   H     0.27836   0.02138   0.57818   0.00000  Uiso   1.00
H163   H     0.34459   0.08144   0.53215   0.00000  Uiso   1.00
H164   H     0.31936   0.07099   0.63074   0.00000  Uiso   1.00
H165   H     0.18271   0.88673   0.57208   0.00000  Uiso   1.00
H166   H     0.39976   0.18747   0.48048   0.00000  Uiso   1.00
H167   H     0.34655   0.16540   0.68836   0.00000  Uiso   1.00
H168   H     0.05840   0.77684   0.56468   0.00000  Uiso   1.00
H169   H     0.13755   0.32511   0.57322   0.00000  Uiso   1.00
H170   H     0.19605   0.40184   0.52691   0.00000  Uiso   1.00
H171   H     0.17083   0.39138   0.62550   0.00000  Uiso   1.00
H172   H     0.03418   0.20712   0.56685   0.00000  Uiso   1.00
H173   H     0.27920   0.44752   0.47623   0.00000  Uiso   1.00
H174   H     0.22599   0.42544   0.68411   0.00000  Uiso   1.00
H175   H     0.93784   0.03689   0.56043   0.00000  Uiso   1.00
O176   O     0.38052   0.36251   0.44799   0.00000  Uiso   1.00
O177   O     0.31071   0.33354   0.72072   0.00000  Uiso   1.00
O178   O     0.93266   0.82377   0.55845   0.00000  Uiso   1.00
N179   N     0.36335   0.23813   0.48583   0.00000  Uiso   1.00
N180   N     0.31361   0.21751   0.68019   0.00000  Uiso   1.00
N181   N     0.04421   0.85424   0.56456   0.00000  Uiso   1.00
N182   N     0.29848   0.37806   0.48354   0.00000  Uiso   1.00
N183   N     0.24874   0.35744   0.67790   0.00000  Uiso   1.00
N184   N     0.97934   0.99417   0.56227   0.00000  Uiso   1.00
C185   C     0.74451   0.24529   0.14408   0.00000  Uiso   1.00
C186   C     0.76509   0.31942   0.11886   0.00000  Uiso   1.00
C187   C     0.81623   0.30117   0.09934   0.00000  Uiso   1.00
C188   C     0.82722   0.37870   0.07780   0.00000  Uiso   1.00
C189   C     0.86509   0.47978   0.03894   0.00000  Uiso   1.00
C190   C     0.74688   0.31332   0.17215   0.00000  Uiso   1.00
C191   C     0.78270   0.28993   0.19743   0.00000  Uiso   1.00
C192   C     0.77834   0.36232   0.22074   0.00000  Uiso   1.00
C193   C     0.78790   0.45389   0.26462   0.00000  Uiso   1.00
C194   C     0.67263   0.21973   0.13881   0.00000  Uiso   1.00
C195   C     0.64601   0.11763   0.13606   0.00000  Uiso   1.00
C196   C     0.57914   0.11122   0.13132   0.00000  Uiso   1.00
C197   C     0.47341   0.05747   0.12343   0.00000  Uiso   1.00
C198   C     0.67308   0.41544   0.14054   0.00000  Uiso   1.00
C199   C     0.72629   0.41185   0.11694   0.00000  Uiso   1.00
C200   C     0.73720   0.48942   0.09542   0.00000  Uiso   1.00
C201   C     0.78835   0.47129   0.07587   0.00000  Uiso   1.00
C202   C     0.70808   0.40574   0.17023   0.00000  Uiso   1.00
C203   C     0.70367   0.47818   0.19351   0.00000  Uiso   1.00
C204   C     0.73947   0.45491   0.21881   0.00000  Uiso   1.00
C205   C     0.63383   0.31215   0.13689   0.00000  Uiso   1.00
C206   C     0.56698   0.30589   0.13214   0.00000  Uiso   1.00
C207   C     0.54027   0.20381   0.12939   0.00000  Uiso   1.00
H208   H     0.77472   0.17334   0.14558   0.00000  Uiso   1.00
H209   H     0.84625   0.22964   0.10084   0.00000  Uiso   1.00
H210   H     0.81271   0.21840   0.19891   0.00000  Uiso   1.00
H211   H     0.67605   0.04613   0.13755   0.00000  Uiso   1.00
H212   H     0.90846   0.33284   0.05039   0.00000  Uiso   1.00
H213   H     0.83773   0.30911   0.25718   0.00000  Uiso   1.00
H214   H     0.54955   0.94585   0.12781   0.00000  Uiso   1.00
H215   H     0.64287   0.48740   0.13904   0.00000  Uiso   1.00
H216   H     0.70717   0.56094   0.09394   0.00000  Uiso   1.00
H217   H     0.67363   0.54969   0.19201   0.00000  Uiso   1.00
H218   H     0.53697   0.37743   0.13066   0.00000  Uiso   1.00
H219   H     0.79558   0.60174   0.04479   0.00000  Uiso   1.00
H220   H     0.72484   0.57800   0.25159   0.00000  Uiso   1.00
H221   H     0.43667   0.21475   0.12221   0.00000  Uiso   1.00
O222   O     0.89671   0.51001   0.01805   0.00000  Uiso   1.00
O223   O     0.80390   0.47886   0.28935   0.00000  Uiso   1.00
O224   O     0.42582   0.00229   0.11961   0.00000  Uiso   1.00
N225   N     0.87306   0.38602   0.05526   0.00000  Uiso   1.00
N226   N     0.80694   0.36384   0.24860   0.00000  Uiso   1.00
N227   N     0.53751   0.02423   0.12765   0.00000  Uiso   1.00
N228   N     0.81232   0.53071   0.05225   0.00000  Uiso   1.00
N229   N     0.74620   0.50853   0.24558   0.00000  Uiso   1.00
N230   N     0.47677   0.16892   0.12463   0.00000  Uiso   1.00
C231   C     0.74610   0.40903   0.42296   0.00000  Uiso   1.00
C232   C     0.76255   0.33429   0.44866   0.00000  Uiso   1.00
C233   C     0.81253   0.34938   0.46899   0.00000  Uiso   1.00
C234   C     0.81961   0.27183   0.49086   0.00000  Uiso   1.00
C235   C     0.85149   0.16934   0.53054   0.00000  Uiso   1.00
C236   C     0.74885   0.33996   0.39509   0.00000  Uiso   1.00
C237   C     0.78730   0.35983   0.37039   0.00000  Uiso   1.00
C238   C     0.78285   0.28707   0.34717   0.00000  Uiso   1.00
C239   C     0.79342   0.19343   0.30367   0.00000  Uiso   1.00
C240   C     0.67461   0.44008   0.42697   0.00000  Uiso   1.00
C241   C     0.65063   0.54413   0.42905   0.00000  Uiso   1.00
C242   C     0.58367   0.55565   0.43266   0.00000  Uiso   1.00
C243   C     0.47897   0.61746   0.43865   0.00000  Uiso   1.00
C244   C     0.66981   0.24448   0.42565   0.00000  Uiso   1.00
C245   C     0.72111   0.24491   0.45012   0.00000  Uiso   1.00
C246   C     0.72812   0.16732   0.47196   0.00000  Uiso   1.00
C247   C     0.77810   0.18229   0.49233   0.00000  Uiso   1.00
C248   C     0.70742   0.25058   0.39655   0.00000  Uiso   1.00
C249   C     0.70290   0.17777   0.37336   0.00000  Uiso   1.00
C250   C     0.74134   0.19752   0.34863   0.00000  Uiso   1.00
C251   C     0.63317   0.35070   0.42843   0.00000  Uiso   1.00
C252   C     0.56623   0.36206   0.43203   0.00000  Uiso   1.00
C253   C     0.54216   0.46611   0.43412   0.00000  Uiso   1.00
H254   H     0.77836   0.47862   0.42182   0.00000  Uiso   1.00
H255   H     0.84459   0.41856   0.46785   0.00000  Uiso   1.00
H256   H     0.81936   0.42901   0.36926   0.00000  Uiso   1.00
H257   H     0.68271   0.61327   0.42792   0.00000  Uiso   1.00
H258   H     0.89976   0.31253   0.51952   0.00000  Uiso   1.00
H259   H     0.84655   0.33460   0.31164   0.00000  Uiso   1.00
H260   H     0.55840   0.72316   0.43532   0.00000  Uiso   1.00
H261   H     0.63755   0.17489   0.42678   0.00000  Uiso   1.00
H262   H     0.69605   0.09816   0.47309   0.00000  Uiso   1.00
H263   H     0.67083   0.10862   0.37450   0.00000  Uiso   1.00
H264   H     0.53418   0.29288   0.43315   0.00000  Uiso   1.00
H265   H     0.77920   0.05248   0.52377   0.00000  Uiso   1.00
H266   H     0.72599   0.07456   0.31589   0.00000  Uiso   1.00
H267   H     0.43784   0.46311   0.43957   0.00000  Uiso   1.00
O268   O     0.88052   0.13749   0.55201   0.00000  Uiso   1.00
O269   O     0.81071   0.16646   0.27928   0.00000  Uiso   1.00
O270   O     0.43266   0.67623   0.44155   0.00000  Uiso   1.00
N271   N     0.86335   0.26187   0.51417   0.00000  Uiso   1.00
N272   N     0.81361   0.28249   0.31981   0.00000  Uiso   1.00
N273   N     0.54421   0.64576   0.43544   0.00000  Uiso   1.00
N274   N     0.79848   0.12194   0.51646   0.00000  Uiso   1.00
N275   N     0.74874   0.14256   0.32210   0.00000  Uiso   1.00
N276   N     0.47934   0.50583   0.43773   0.00000  Uiso   1.00
C277   C     0.75549   0.25471   0.64408   0.00000  Uiso   1.00
C278   C     0.73491   0.18058   0.61886   0.00000  Uiso   1.00
C279   C     0.68377   0.19883   0.59934   0.00000  Uiso   1.00
C280   C     0.67278   0.12130   0.57780   0.00000  Uiso   1.00
C281   C     0.63491   0.02022   0.53894   0.00000  Uiso   1.00
C282   C     0.75312   0.18668   0.67215   0.00000  Uiso   1.00
C283   C     0.71730   0.21007   0.69743   0.00000  Uiso   1.00
C284   C     0.72166   0.13768   0.72074   0.00000  Uiso   1.00
C285   C     0.71210   0.04611   0.76462   0.00000  Uiso   1.00
C286   C     0.82737   0.28027   0.63881   0.00000  Uiso   1.00
C287   C     0.85399   0.38237   0.63606   0.00000  Uiso   1.00
C288   C     0.92086   0.38878   0.63132   0.00000  Uiso   1.00
C289   C     0.02659   0.44253   0.62343   0.00000  Uiso   1.00
C290   C     0.82692   0.08456   0.64054   0.00000  Uiso   1.00
C291   C     0.77371   0.08815   0.61694   0.00000  Uiso   1.00
C292   C     0.76280   0.01058   0.59542   0.00000  Uiso   1.00
C293   C     0.71165   0.02871   0.57587   0.00000  Uiso   1.00
C294   C     0.79192   0.09426   0.67023   0.00000  Uiso   1.00
C295   C     0.79633   0.02182   0.69351   0.00000  Uiso   1.00
C296   C     0.76053   0.04509   0.71881   0.00000  Uiso   1.00
C297   C     0.86617   0.18785   0.63689   0.00000  Uiso   1.00
C298   C     0.93302   0.19411   0.63214   0.00000  Uiso   1.00
C299   C     0.95973   0.29619   0.62939   0.00000  Uiso   1.00
H300   H     0.72528   0.32666   0.64558   0.00000  Uiso   1.00
H301   H     0.65375   0.27036   0.60084   0.00000  Uiso   1.00
H302   H     0.68729   0.28160   0.69891   0.00000  Uiso   1.00
H303   H     0.82395   0.45387   0.63755   0.00000  Uiso   1.00
H304   H     0.59154   0.16716   0.55039   0.00000  Uiso   1.00
H305   H     0.66227   0.19089   0.75718   0.00000  Uiso   1.00
H306   H     0.95045   0.55415   0.62781   0.00000  Uiso   1.00
H307   H     0.85713   0.01260   0.63904   0.00000  Uiso   1.00
H308   H     0.79283   0.93906   0.59394   0.00000  Uiso   1.00
H309   H     0.82637   0.95031   0.69201   0.00000  Uiso   1.00
H310   H     0.96303   0.12257   0.63066   0.00000  Uiso   1.00
H311   H     0.70442   0.89826   0.54479   0.00000  Uiso   1.00
H312   H     0.77516   0.92200   0.75159   0.00000  Uiso   1.00
H313   H     0.06333   0.28525   0.62221   0.00000  Uiso   1.00
O314   O     0.60329   0.98999   0.51805   0.00000  Uiso   1.00
O315   O     0.69610   0.02114   0.78935   0.00000  Uiso   1.00
O316   O     0.07418   0.49771   0.61961   0.00000  Uiso   1.00
N317   N     0.62694   0.11398   0.55526   0.00000  Uiso   1.00
N318   N     0.69306   0.13616   0.74860   0.00000  Uiso   1.00
N319   N     0.96249   0.47577   0.62765   0.00000  Uiso   1.00
N320   N     0.68768   0.96929   0.55225   0.00000  Uiso   1.00
N321   N     0.75380   0.99147   0.74558   0.00000  Uiso   1.00
N322   N     0.02323   0.33108   0.62463   0.00000  Uiso   1.00
C323   C     0.75390   0.09097   0.92296   0.00000  Uiso   1.00
C324   C     0.73745   0.16571   0.94866   0.00000  Uiso   1.00
C325   C     0.68747   0.15062   0.96899   0.00000  Uiso   1.00
C326   C     0.68039   0.22817   0.99086   0.00000  Uiso   1.00
C327   C     0.64851   0.33066   0.03054   0.00000  Uiso   1.00
C328   C     0.75115   0.16004   0.89509   0.00000  Uiso   1.00
C329   C     0.71270   0.14017   0.87039   0.00000  Uiso   1.00
C330   C     0.71715   0.21293   0.84717   0.00000  Uiso   1.00
C331   C     0.70658   0.30657   0.80367   0.00000  Uiso   1.00
C332   C     0.82539   0.05992   0.92697   0.00000  Uiso   1.00
C333   C     0.84937   0.95587   0.92905   0.00000  Uiso   1.00
C334   C     0.91633   0.94435   0.93266   0.00000  Uiso   1.00
C335   C     0.02103   0.88254   0.93865   0.00000  Uiso   1.00
C336   C     0.83019   0.25552   0.92565   0.00000  Uiso   1.00
C337   C     0.77889   0.25509   0.95012   0.00000  Uiso   1.00
C338   C     0.77188   0.33268   0.97196   0.00000  Uiso   1.00
C339   C     0.72190   0.31771   0.99233   0.00000  Uiso   1.00
C340   C     0.79258   0.24942   0.89655   0.00000  Uiso   1.00
C341   C     0.79710   0.32223   0.87336   0.00000  Uiso   1.00
C342   C     0.75866   0.30248   0.84863   0.00000  Uiso   1.00
C343   C     0.86683   0.14930   0.92843   0.00000  Uiso   1.00
C344   C     0.93377   0.13794   0.93203   0.00000  Uiso   1.00
C345   C     0.95784   0.03389   0.93412   0.00000  Uiso   1.00
H346   H     0.72164   0.02138   0.92182   0.00000  Uiso   1.00
H347   H     0.65541   0.08144   0.96785   0.00000  Uiso   1.00
H348   H     0.68064   0.07099   0.86926   0.00000  Uiso   1.00
H349   H     0.81729   0.88673   0.92792   0.00000  Uiso   1.00
H350   H     0.60024   0.18747   0.01952   0.00000  Uiso   1.00
H351   H     0.65345   0.16540   0.81164   0.00000  Uiso   1.00
H352   H     0.94160   0.77684   0.93532   0.00000  Uiso   1.00
H353   H     0.86245   0.32511   0.92678   0.00000  Uiso   1.00
H354   H     0.80395   0.40184   0.97309   0.00000  Uiso   1.00
H355   H     0.82917   0.39138   0.87450   0.00000  Uiso   1.00
H356   H     0.96582   0.20712   0.93315   0.00000  Uiso   1.00
H357   H     0.72080   0.44752   0.02377   0.00000  Uiso   1.00
H358   H     0.77401   0.42544   0.81589   0.00000  Uiso   1.00
H359   H     0.06216   0.03689   0.93957   0.00000  Uiso   1.00
O360   O     0.61948   0.36251   0.05201   0.00000  Uiso   1.00
O361   O     0.68929   0.33354   0.77928   0.00000  Uiso   1.00
O362   O     0.06734   0.82377   0.94155   0.00000  Uiso   1.00
N363   N     0.63665   0.23813   0.01417   0.00000  Uiso   1.00
N364   N     0.68639   0.21751   0.81981   0.00000  Uiso   1.00
N365   N     0.95579   0.85424   0.93544   0.00000  Uiso   1.00
N366   N     0.70152   0.37806   0.01646   0.00000  Uiso   1.00
N367   N     0.75126   0.35744   0.82210   0.00000  Uiso   1.00
N368   N     0.02066   0.99417   0.93773   0.00000  Uiso   1.00
C369   C     0.74451   0.75471   0.64408   0.00000  Uiso   1.00
C370   C     0.76509   0.68058   0.61886   0.00000  Uiso   1.00
C371   C     0.81623   0.69883   0.59934   0.00000  Uiso   1.00
C372   C     0.82722   0.62130   0.57780   0.00000  Uiso   1.00
C373   C     0.86509   0.52022   0.53894   0.00000  Uiso   1.00
C374   C     0.74688   0.68668   0.67215   0.00000  Uiso   1.00
C375   C     0.78270   0.71007   0.69743   0.00000  Uiso   1.00
C376   C     0.77834   0.63768   0.72074   0.00000  Uiso   1.00
C377   C     0.78790   0.54611   0.76462   0.00000  Uiso   1.00
C378   C     0.67263   0.78027   0.63881   0.00000  Uiso   1.00
C379   C     0.64601   0.88237   0.63606   0.00000  Uiso   1.00
C380   C     0.57914   0.88878   0.63132   0.00000  Uiso   1.00
C381   C     0.47341   0.94253   0.62343   0.00000  Uiso   1.00
C382   C     0.67308   0.58456   0.64054   0.00000  Uiso   1.00
C383   C     0.72629   0.58815   0.61694   0.00000  Uiso   1.00
C384   C     0.73720   0.51058   0.59542   0.00000  Uiso   1.00
C385   C     0.78835   0.52871   0.57587   0.00000  Uiso   1.00
C386   C     0.70808   0.59426   0.67023   0.00000  Uiso   1.00
C387   C     0.70367   0.52182   0.69351   0.00000  Uiso   1.00
C388   C     0.73947   0.54509   0.71881   0.00000  Uiso   1.00
C389   C     0.63383   0.68785   0.63689   0.00000  Uiso   1.00
C390   C     0.56698   0.69411   0.63214   0.00000  Uiso   1.00
C391   C     0.54027   0.79619   0.62939   0.00000  Uiso   1.00
H392   H     0.77472   0.82666   0.64558   0.00000  Uiso   1.00
H393   H     0.84625   0.77036   0.60084   0.00000  Uiso   1.00
H394   H     0.81271   0.78160   0.69891   0.00000  Uiso   1.00
H395   H     0.67605   0.95387   0.63755   0.00000  Uiso   1.00
H396   H     0.90846   0.66716   0.55039   0.00000  Uiso   1.00
H397   H     0.83773   0.69089   0.75718   0.00000  Uiso   1.00
H398   H     0.54955   0.05415   0.62781   0.00000  Uiso   1.00
H399   H     0.64287   0.51260   0.63904   0.00000  Uiso   1.00
H400   H     0.70717   0.43906   0.59394   0.00000  Uiso   1.00
H401   H     0.67363   0.45031   0.69201   0.00000  Uiso   1.00
H402   H     0.53697   0.62257   0.63066   0.00000  Uiso   1.00
H403   H     0.79558   0.39826   0.54479   0.00000  Uiso   1.00
H404   H     0.72484   0.42200   0.75159   0.00000  Uiso   1.00
H405   H     0.43667   0.78525   0.62221   0.00000  Uiso   1.00
O406   O     0.89671   0.48999   0.51805   0.00000  Uiso   1.00
O407   O     0.80390   0.52114   0.78935   0.00000  Uiso   1.00
O408   O     0.42582   0.99771   0.61961   0.00000  Uiso   1.00
N409   N     0.87306   0.61398   0.55526   0.00000  Uiso   1.00
N410   N     0.80694   0.63616   0.74860   0.00000  Uiso   1.00
N411   N     0.53751   0.97577   0.62765   0.00000  Uiso   1.00
N412   N     0.81232   0.46929   0.55225   0.00000  Uiso   1.00
N413   N     0.74620   0.49147   0.74558   0.00000  Uiso   1.00
N414   N     0.47677   0.83108   0.62463   0.00000  Uiso   1.00
C415   C     0.74610   0.59097   0.92296   0.00000  Uiso   1.00
C416   C     0.76255   0.66571   0.94866   0.00000  Uiso   1.00
C417   C     0.81253   0.65062   0.96899   0.00000  Uiso   1.00
C418   C     0.81961   0.72817   0.99086   0.00000  Uiso   1.00
C419   C     0.85149   0.83066   0.03054   0.00000  Uiso   1.00
C420   C     0.74885   0.66004   0.89509   0.00000  Uiso   1.00
C421   C     0.78730   0.64017   0.87039   0.00000  Uiso   1.00
C422   C     0.78285   0.71293   0.84717   0.00000  Uiso   1.00
C423   C     0.79342   0.80657   0.80367   0.00000  Uiso   1.00
C424   C     0.67461   0.55992   0.92697   0.00000  Uiso   1.00
C425   C     0.65063   0.45587   0.92905   0.00000  Uiso   1.00
C426   C     0.58367   0.44435   0.93266   0.00000  Uiso   1.00
C427   C     0.47897   0.38254   0.93865   0.00000  Uiso   1.00
C428   C     0.66981   0.75552   0.92565   0.00000  Uiso   1.00
C429   C     0.72111   0.75509   0.95012   0.00000  Uiso   1.00
C430   C     0.72812   0.83268   0.97196   0.00000  Uiso   1.00
C431   C     0.77810   0.81771   0.99233   0.00000  Uiso   1.00
C432   C     0.70742   0.74942   0.89655   0.00000  Uiso   1.00
C433   C     0.70290   0.82223   0.87336   0.00000  Uiso   1.00
C434   C     0.74134   0.80248   0.84863   0.00000  Uiso   1.00
C435   C     0.63317   0.64930   0.92843   0.00000  Uiso   1.00
C436   C     0.56623   0.63794   0.93203   0.00000  Uiso   1.00
C437   C     0.54216   0.53389   0.93412   0.00000  Uiso   1.00
H438   H     0.77836   0.52138   0.92182   0.00000  Uiso   1.00
H439   H     0.84459   0.58144   0.96785   0.00000  Uiso   1.00
H440   H     0.81936   0.57099   0.86926   0.00000  Uiso   1.00
H441   H     0.68271   0.38673   0.92792   0.00000  Uiso   1.00
H442   H     0.89976   0.68747   0.01952   0.00000  Uiso   1.00
H443   H     0.84655   0.66540   0.81164   0.00000  Uiso   1.00
H444   H     0.55840   0.27684   0.93532   0.00000  Uiso   1.00
H445   H     0.63755   0.82511   0.92678   0.00000  Uiso   1.00
H446   H     0.69605   0.90184   0.97309   0.00000  Uiso   1.00
H447   H     0.67083   0.89138   0.87450   0.00000  Uiso   1.00
H448   H     0.53418   0.70712   0.93315   0.00000  Uiso   1.00
H449   H     0.77920   0.94752   0.02377   0.00000  Uiso   1.00
H450   H     0.72599   0.92544   0.81589   0.00000  Uiso   1.00
H451   H     0.43784   0.53689   0.93957   0.00000  Uiso   1.00
O452   O     0.88052   0.86251   0.05201   0.00000  Uiso   1.00
O453   O     0.81071   0.83354   0.77928   0.00000  Uiso   1.00
O454   O     0.43266   0.32377   0.94155   0.00000  Uiso   1.00
N455   N     0.86335   0.73813   0.01417   0.00000  Uiso   1.00
N456   N     0.81361   0.71751   0.81981   0.00000  Uiso   1.00
N457   N     0.54421   0.35424   0.93544   0.00000  Uiso   1.00
N458   N     0.79848   0.87806   0.01646   0.00000  Uiso   1.00
N459   N     0.74874   0.85744   0.82210   0.00000  Uiso   1.00
N460   N     0.47934   0.49417   0.93773   0.00000  Uiso   1.00
C461   C     0.75549   0.74529   0.14408   0.00000  Uiso   1.00
C462   C     0.73491   0.81942   0.11886   0.00000  Uiso   1.00
C463   C     0.68377   0.80117   0.09934   0.00000  Uiso   1.00
C464   C     0.67278   0.87870   0.07780   0.00000  Uiso   1.00
C465   C     0.63491   0.97978   0.03894   0.00000  Uiso   1.00
C466   C     0.75312   0.81332   0.17215   0.00000  Uiso   1.00
C467   C     0.71730   0.78993   0.19743   0.00000  Uiso   1.00
C468   C     0.72166   0.86232   0.22074   0.00000  Uiso   1.00
C469   C     0.71210   0.95389   0.26462   0.00000  Uiso   1.00
C470   C     0.82737   0.71973   0.13881   0.00000  Uiso   1.00
C471   C     0.85399   0.61763   0.13606   0.00000  Uiso   1.00
C472   C     0.92086   0.61122   0.13132   0.00000  Uiso   1.00
C473   C     0.02659   0.55747   0.12343   0.00000  Uiso   1.00
C474   C     0.82692   0.91544   0.14054   0.00000  Uiso   1.00
C475   C     0.77371   0.91185   0.11694   0.00000  Uiso   1.00
C476   C     0.76280   0.98942   0.09542   0.00000  Uiso   1.00
C477   C     0.71165   0.97129   0.07587   0.00000  Uiso   1.00
C478   C     0.79192   0.90574   0.17023   0.00000  Uiso   1.00
C479   C     0.79633   0.97818   0.19351   0.00000  Uiso   1.00
C480   C     0.76053   0.95491   0.21881   0.00000  Uiso   1.00
C481   C     0.86617   0.81215   0.13689   0.00000  Uiso   1.00
C482   C     0.93302   0.80589   0.13214   0.00000  Uiso   1.00
C483   C     0.95973   0.70381   0.12939   0.00000  Uiso   1.00
H484   H     0.72528   0.67334   0.14558   0.00000  Uiso   1.00
H485   H     0.65375   0.72964   0.10084   0.00000  Uiso   1.00
H486   H     0.68729   0.71840   0.19891   0.00000  Uiso   1.00
H487   H     0.82395   0.54613   0.13755   0.00000  Uiso   1.00
H488   H     0.59154   0.83284   0.05039   0.00000  Uiso   1.00
H489   H     0.66227   0.80911   0.25718   0.00000  Uiso   1.00
H490   H     0.95045   0.44585   0.12781   0.00000  Uiso   1.00
H491   H     0.85713   0.98740   0.13904   0.00000  Uiso   1.00
H492   H     0.79283   0.06094   0.09394   0.00000  Uiso   1.00
H493   H     0.82637   0.04969   0.19201   0.00000  Uiso   1.00
H494   H     0.96303   0.87743   0.13066   0.00000  Uiso   1.00
H495   H     0.70442   0.10174   0.04479   0.00000  Uiso   1.00
H496   H     0.77516   0.07800   0.25159   0.00000  Uiso   1.00
H497   H     0.06333   0.71475   0.12221   0.00000  Uiso   1.00
O498   O     0.60329   0.01001   0.01805   0.00000  Uiso   1.00
O499   O     0.69610   0.97886   0.28935   0.00000  Uiso   1.00
O500   O     0.07418   0.50229   0.11961   0.00000  Uiso   1.00
N501   N     0.62694   0.88602   0.05526   0.00000  Uiso   1.00
N502   N     0.69306   0.86384   0.24860   0.00000  Uiso   1.00
N503   N     0.96249   0.52423   0.12765   0.00000  Uiso   1.00
N504   N     0.68768   0.03071   0.05225   0.00000  Uiso   1.00
N505   N     0.75380   0.00853   0.24558   0.00000  Uiso   1.00
N506   N     0.02323   0.66892   0.12463   0.00000  Uiso   1.00
C507   C     0.75390   0.90903   0.42296   0.00000  Uiso   1.00
C508   C     0.73745   0.83429   0.44866   0.00000  Uiso   1.00
C509   C     0.68747   0.84938   0.46899   0.00000  Uiso   1.00
C510   C     0.68039   0.77183   0.49086   0.00000  Uiso   1.00
C511   C     0.64851   0.66934   0.53054   0.00000  Uiso   1.00
C512   C     0.75115   0.83996   0.39509   0.00000  Uiso   1.00
C513   C     0.71270   0.85983   0.37039   0.00000  Uiso   1.00
C514   C     0.71715   0.78707   0.34717   0.00000  Uiso   1.00
C515   C     0.70658   0.69343   0.30367   0.00000  Uiso   1.00
C516   C     0.82539   0.94008   0.42697   0.00000  Uiso   1.00
C517   C     0.84937   0.04413   0.42905   0.00000  Uiso   1.00
C518   C     0.91633   0.05565   0.43266   0.00000  Uiso   1.00
C519   C     0.02103   0.11746   0.43865   0.00000  Uiso   1.00
C520   C     0.83019   0.74448   0.42565   0.00000  Uiso   1.00
C521   C     0.77889   0.74491   0.45012   0.00000  Uiso   1.00
C522   C     0.77188   0.66732   0.47196   0.00000  Uiso   1.00
C523   C     0.72190   0.68229   0.49233   0.00000  Uiso   1.00
C524   C     0.79258   0.75058   0.39655   0.00000  Uiso   1.00
C525   C     0.79710   0.67777   0.37336   0.00000  Uiso   1.00
C526   C     0.75866   0.69752   0.34863   0.00000  Uiso   1.00
C527   C     0.86683   0.85070   0.42843   0.00000  Uiso   1.00
C528   C     0.93377   0.86206   0.43203   0.00000  Uiso   1.00
C529   C     0.95784   0.96611   0.43412   0.00000  Uiso   1.00
H530   H     0.72164   0.97862   0.42182   0.00000  Uiso   1.00
H531   H     0.65541   0.91856   0.46785   0.00000  Uiso   1.00
H532   H     0.68064   0.92901   0.36926   0.00000  Uiso   1.00
H533   H     0.81729   0.11327   0.42792   0.00000  Uiso   1.00
H534   H     0.60024   0.81253   0.51952   0.00000  Uiso   1.00
H535   H     0.65345   0.83460   0.31164   0.00000  Uiso   1.00
H536   H     0.94160   0.22316   0.43532   0.00000  Uiso   1.00
H537   H     0.86245   0.67489   0.42678   0.00000  Uiso   1.00
H538   H     0.80395   0.59816   0.47309   0.00000  Uiso   1.00
H539   H     0.82917   0.60862   0.37450   0.00000  Uiso   1.00
H540   H     0.96582   0.79288   0.43315   0.00000  Uiso   1.00
H541   H     0.72080   0.55248   0.52377   0.00000  Uiso   1.00
H542   H     0.77401   0.57456   0.31589   0.00000  Uiso   1.00
H543   H     0.06216   0.96311   0.43957   0.00000  Uiso   1.00
O544   O     0.61948   0.63749   0.55201   0.00000  Uiso   1.00
O545   O     0.68929   0.66646   0.27928   0.00000  Uiso   1.00
O546   O     0.06734   0.17623   0.44155   0.00000  Uiso   1.00
N547   N     0.63665   0.76187   0.51417   0.00000  Uiso   1.00
N548   N     0.68639   0.78249   0.31981   0.00000  Uiso   1.00
N549   N     0.95579   0.14576   0.43544   0.00000  Uiso   1.00
N550   N     0.70152   0.62194   0.51646   0.00000  Uiso   1.00
N551   N     0.75126   0.64256   0.32210   0.00000  Uiso   1.00
N552   N     0.02066   0.00583   0.43773   0.00000  Uiso   1.00
C553   C     0.25549   0.75471   0.85592   0.00000  Uiso   1.00
C554   C     0.23491   0.68058   0.88114   0.00000  Uiso   1.00
C555   C     0.18377   0.69883   0.90066   0.00000  Uiso   1.00
C556   C     0.17278   0.62130   0.92220   0.00000  Uiso   1.00
C557   C     0.13491   0.52022   0.96106   0.00000  Uiso   1.00
C558   C     0.25312   0.68668   0.82785   0.00000  Uiso   1.00
C559   C     0.21730   0.71007   0.80257   0.00000  Uiso   1.00
C560   C     0.22166   0.63768   0.77926   0.00000  Uiso   1.00
C561   C     0.21210   0.54611   0.73538   0.00000  Uiso   1.00
C562   C     0.32737   0.78027   0.86119   0.00000  Uiso   1.00
C563   C     0.35399   0.88237   0.86394   0.00000  Uiso   1.00
C564   C     0.42086   0.88878   0.86868   0.00000  Uiso   1.00
C565   C     0.52659   0.94253   0.87657   0.00000  Uiso   1.00
C566   C     0.32692   0.58456   0.85946   0.00000  Uiso   1.00
C567   C     0.27371   0.58815   0.88306   0.00000  Uiso   1.00
C568   C     0.26280   0.51058   0.90458   0.00000  Uiso   1.00
C569   C     0.21165   0.52871   0.92413   0.00000  Uiso   1.00
C570   C     0.29192   0.59426   0.82977   0.00000  Uiso   1.00
C571   C     0.29633   0.52182   0.80649   0.00000  Uiso   1.00
C572   C     0.26053   0.54509   0.78119   0.00000  Uiso   1.00
C573   C     0.36617   0.68785   0.86311   0.00000  Uiso   1.00
C574   C     0.43302   0.69411   0.86786   0.00000  Uiso   1.00
C575   C     0.45973   0.79619   0.87061   0.00000  Uiso   1.00
H576   H     0.22528   0.82666   0.85442   0.00000  Uiso   1.00
H577   H     0.15375   0.77036   0.89916   0.00000  Uiso   1.00
H578   H     0.18729   0.78160   0.80109   0.00000  Uiso   1.00
H579   H     0.32395   0.95387   0.86245   0.00000  Uiso   1.00
H580   H     0.09154   0.66716   0.94961   0.00000  Uiso   1.00
H581   H     0.16227   0.69089   0.74282   0.00000  Uiso   1.00
H582   H     0.45045   0.05415   0.87219   0.00000  Uiso   1.00
H583   H     0.35713   0.51260   0.86096   0.00000  Uiso   1.00
H584   H     0.29283   0.43906   0.90606   0.00000  Uiso   1.00
H585   H     0.32637   0.45031   0.80799   0.00000  Uiso   1.00
H586   H     0.46303   0.62257   0.86934   0.00000  Uiso   1.00
H587   H     0.20442   0.39826   0.95521   0.00000  Uiso   1.00
H588   H     0.27516   0.42200   0.74841   0.00000  Uiso   1.00
H589   H     0.56333   0.78525   0.87779   0.00000  Uiso   1.00
O590   O     0.10329   0.48999   0.98195   0.00000  Uiso   1.00
O591   O     0.19610   0.52114   0.71065   0.00000  Uiso   1.00
O592   O     0.57418   0.99771   0.88039   0.00000  Uiso   1.00
N593   N     0.12694   0.61398   0.94474   0.00000  Uiso   1.00
N594   N     0.19306   0.63616   0.75140   0.00000  Uiso   1.00
N595   N     0.46249   0.97577   0.87235   0.00000  Uiso   1.00
N596   N     0.18768   0.46929   0.94775   0.00000  Uiso   1.00
N597   N     0.25380   0.49147   0.75442   0.00000  Uiso   1.00
N598   N     0.52323   0.83108   0.87537   0.00000  Uiso   1.00
C599   C     0.25390   0.59097   0.57704   0.00000  Uiso   1.00
C600   C     0.23745   0.66571   0.55134   0.00000  Uiso   1.00
C601   C     0.18747   0.65062   0.53101   0.00000  Uiso   1.00
C602   C     0.18039   0.72817   0.50914   0.00000  Uiso   1.00
C603   C     0.14851   0.83066   0.46946   0.00000  Uiso   1.00
C604   C     0.25115   0.66004   0.60491   0.00000  Uiso   1.00
C605   C     0.21270   0.64017   0.62961   0.00000  Uiso   1.00
C606   C     0.21715   0.71293   0.65283   0.00000  Uiso   1.00
C607   C     0.20658   0.80657   0.69633   0.00000  Uiso   1.00
C608   C     0.32539   0.55992   0.57303   0.00000  Uiso   1.00
C609   C     0.34937   0.45587   0.57095   0.00000  Uiso   1.00
C610   C     0.41633   0.44435   0.56734   0.00000  Uiso   1.00
C611   C     0.52103   0.38254   0.56135   0.00000  Uiso   1.00
C612   C     0.33019   0.75552   0.57435   0.00000  Uiso   1.00
C613   C     0.27889   0.75509   0.54988   0.00000  Uiso   1.00
C614   C     0.27188   0.83268   0.52804   0.00000  Uiso   1.00
C615   C     0.22190   0.81771   0.50767   0.00000  Uiso   1.00
C616   C     0.29258   0.74942   0.60345   0.00000  Uiso   1.00
C617   C     0.29710   0.82223   0.62664   0.00000  Uiso   1.00
C618   C     0.25866   0.80248   0.65137   0.00000  Uiso   1.00
C619   C     0.36683   0.64930   0.57157   0.00000  Uiso   1.00
C620   C     0.43377   0.63794   0.56797   0.00000  Uiso   1.00
C621   C     0.45784   0.53389   0.56588   0.00000  Uiso   1.00
H622   H     0.22164   0.52138   0.57818   0.00000  Uiso   1.00
H623   H     0.15541   0.58144   0.53215   0.00000  Uiso   1.00
H624   H     0.18064   0.57099   0.63074   0.00000  Uiso   1.00
H625   H     0.31729   0.38673   0.57208   0.00000  Uiso   1.00
H626   H     0.10024   0.68747   0.48048   0.00000  Uiso   1.00
H627   H     0.15345   0.66540   0.68836   0.00000  Uiso   1.00
H628   H     0.44160   0.27684   0.56468   0.00000  Uiso   1.00
H629   H     0.36245   0.82511   0.57322   0.00000  Uiso   1.00
H630   H     0.30395   0.90184   0.52691   0.00000  Uiso   1.00
H631   H     0.32917   0.89138   0.62550   0.00000  Uiso   1.00
H632   H     0.46582   0.70712   0.56685   0.00000  Uiso   1.00
H633   H     0.22080   0.94752   0.47623   0.00000  Uiso   1.00
H634   H     0.27401   0.92544   0.68411   0.00000  Uiso   1.00
H635   H     0.56216   0.53689   0.56043   0.00000  Uiso   1.00
O636   O     0.11948   0.86251   0.44799   0.00000  Uiso   1.00
O637   O     0.18929   0.83354   0.72072   0.00000  Uiso   1.00
O638   O     0.56734   0.32377   0.55845   0.00000  Uiso   1.00
N639   N     0.13665   0.73813   0.48583   0.00000  Uiso   1.00
N640   N     0.18639   0.71751   0.68019   0.00000  Uiso   1.00
N641   N     0.45579   0.35424   0.56456   0.00000  Uiso   1.00
N642   N     0.20152   0.87806   0.48354   0.00000  Uiso   1.00
N643   N     0.25126   0.85744   0.67790   0.00000  Uiso   1.00
N644   N     0.52066   0.49417   0.56227   0.00000  Uiso   1.00
C645   C     0.24451   0.74529   0.35592   0.00000  Uiso   1.00
C646   C     0.26509   0.81942   0.38114   0.00000  Uiso   1.00
C647   C     0.31623   0.80117   0.40066   0.00000  Uiso   1.00
C648   C     0.32722   0.87870   0.42220   0.00000  Uiso   1.00
C649   C     0.36509   0.97978   0.46106   0.00000  Uiso   1.00
C650   C     0.24688   0.81332   0.32785   0.00000  Uiso   1.00
C651   C     0.28270   0.78993   0.30257   0.00000  Uiso   1.00
C652   C     0.27834   0.86232   0.27926   0.00000  Uiso   1.00
C653   C     0.28790   0.95389   0.23538   0.00000  Uiso   1.00
C654   C     0.17263   0.71973   0.36119   0.00000  Uiso   1.00
C655   C     0.14601   0.61763   0.36394   0.00000  Uiso   1.00
C656   C     0.07914   0.61122   0.36868   0.00000  Uiso   1.00
C657   C     0.97341   0.55747   0.37657   0.00000  Uiso   1.00
C658   C     0.17308   0.91544   0.35946   0.00000  Uiso   1.00
C659   C     0.22629   0.91185   0.38306   0.00000  Uiso   1.00
C660   C     0.23720   0.98942   0.40458   0.00000  Uiso   1.00
C661   C     0.28835   0.97129   0.42413   0.00000  Uiso   1.00
C662   C     0.20808   0.90574   0.32977   0.00000  Uiso   1.00
C663   C     0.20367   0.97818   0.30649   0.00000  Uiso   1.00
C664   C     0.23947   0.95491   0.28119   0.00000  Uiso   1.00
C665   C     0.13383   0.81215   0.36311   0.00000  Uiso   1.00
C666   C     0.06698   0.80589   0.36786   0.00000  Uiso   1.00
C667   C     0.04027   0.70381   0.37061   0.00000  Uiso   1.00
H668   H     0.27472   0.67334   0.35442   0.00000  Uiso   1.00
H669   H     0.34625   0.72964   0.39916   0.00000  Uiso   1.00
H670   H     0.31271   0.71840   0.30109   0.00000  Uiso   1.00
H671   H     0.17605   0.54613   0.36245   0.00000  Uiso   1.00
H672   H     0.40846   0.83284   0.44961   0.00000  Uiso   1.00
H673   H     0.33773   0.80911   0.24282   0.00000  Uiso   1.00
H674   H     0.04955   0.44585   0.37219   0.00000  Uiso   1.00
H675   H     0.14287   0.98740   0.36096   0.00000  Uiso   1.00
H676   H     0.20717   0.06094   0.40606   0.00000  Uiso   1.00
H677   H     0.17363   0.04969   0.30799   0.00000  Uiso   1.00
H678   H     0.03697   0.87743   0.36934   0.00000  Uiso   1.00
H679   H     0.29558   0.10174   0.45521   0.00000  Uiso   1.00
H680   H     0.22484   0.07800   0.24841   0.00000  Uiso   1.00
H681   H     0.93667   0.71475   0.37779   0.00000  Uiso   1.00
O682   O     0.39671   0.01001   0.48195   0.00000  Uiso   1.00
O683   O     0.30390   0.97886   0.21065   0.00000  Uiso   1.00
O684   O     0.92582   0.50229   0.38039   0.00000  Uiso   1.00
N685   N     0.37306   0.88602   0.44474   0.00000  Uiso   1.00
N686   N     0.30694   0.86384   0.25140   0.00000  Uiso   1.00
N687   N     0.03751   0.52423   0.37235   0.00000  Uiso   1.00
N688   N     0.31232   0.03071   0.44775   0.00000  Uiso   1.00
N689   N     0.24620   0.00853   0.25442   0.00000  Uiso   1.00
N690   N     0.97677   0.66892   0.37537   0.00000  Uiso   1.00
C691   C     0.24610   0.90903   0.07704   0.00000  Uiso   1.00
C692   C     0.26255   0.83429   0.05134   0.00000  Uiso   1.00
C693   C     0.31253   0.84938   0.03101   0.00000  Uiso   1.00
C694   C     0.31961   0.77183   0.00914   0.00000  Uiso   1.00
C695   C     0.35149   0.66934   0.96946   0.00000  Uiso   1.00
C696   C     0.24885   0.83996   0.10491   0.00000  Uiso   1.00
C697   C     0.28730   0.85983   0.12961   0.00000  Uiso   1.00
C698   C     0.28285   0.78707   0.15283   0.00000  Uiso   1.00
C699   C     0.29342   0.69343   0.19633   0.00000  Uiso   1.00
C700   C     0.17461   0.94008   0.07303   0.00000  Uiso   1.00
C701   C     0.15063   0.04413   0.07095   0.00000  Uiso   1.00
C702   C     0.08367   0.05565   0.06734   0.00000  Uiso   1.00
C703   C     0.97897   0.11746   0.06135   0.00000  Uiso   1.00
C704   C     0.16981   0.74448   0.07435   0.00000  Uiso   1.00
C705   C     0.22111   0.74491   0.04988   0.00000  Uiso   1.00
C706   C     0.22812   0.66732   0.02804   0.00000  Uiso   1.00
C707   C     0.27810   0.68229   0.00767   0.00000  Uiso   1.00
C708   C     0.20742   0.75058   0.10345   0.00000  Uiso   1.00
C709   C     0.20290   0.67777   0.12664   0.00000  Uiso   1.00
C710   C     0.24134   0.69752   0.15137   0.00000  Uiso   1.00
C711   C     0.13317   0.85070   0.07157   0.00000  Uiso   1.00
C712   C     0.06623   0.86206   0.06797   0.00000  Uiso   1.00
C713   C     0.04216   0.96611   0.06588   0.00000  Uiso   1.00
H714   H     0.27836   0.97862   0.07818   0.00000  Uiso   1.00
H715   H     0.34459   0.91856   0.03215   0.00000  Uiso   1.00
H716   H     0.31936   0.92901   0.13074   0.00000  Uiso   1.00
H717   H     0.18271   0.11327   0.07208   0.00000  Uiso   1.00
H718   H     0.39976   0.81253   0.98048   0.00000  Uiso   1.00
H719   H     0.34655   0.83460   0.18836   0.00000  Uiso   1.00
H720   H     0.05840   0.22316   0.06468   0.00000  Uiso   1.00
H721   H     0.13755   0.67489   0.07322   0.00000  Uiso   1.00
H722   H     0.19605   0.59816   0.02691   0.00000  Uiso   1.00
H723   H     0.17083   0.60862   0.12550   0.00000  Uiso   1.00
H724   H     0.03418   0.79288   0.06685   0.00000  Uiso   1.00
H725   H     0.27920   0.55248   0.97623   0.00000  Uiso   1.00
H726   H     0.22599   0.57456   0.18411   0.00000  Uiso   1.00
H727   H     0.93784   0.96311   0.06043   0.00000  Uiso   1.00
O728   O     0.38052   0.63749   0.94799   0.00000  Uiso   1.00
O729   O     0.31071   0.66646   0.22072   0.00000  Uiso   1.00
O730   O     0.93266   0.17623   0.05845   0.00000  Uiso   1.00
N731   N     0.36335   0.76187   0.98583   0.00000  Uiso   1.00
N732   N     0.31361   0.78249   0.18019   0.00000  Uiso   1.00
N733   N     0.04421   0.14576   0.06456   0.00000  Uiso   1.00
N734   N     0.29848   0.62194   0.98354   0.00000  Uiso   1.00
N735   N     0.24874   0.64256   0.17790   0.00000  Uiso   1.00
N736   N     0.97934   0.00583   0.06227   0.00000  Uiso   1.00
