data_job_06706
_audit_creation_date              2018-12-19
_audit_creation_method            'Materials Studio'
_symmetry_space_group_name_H-M    'P1'
_symmetry_Int_Tables_number       1
_symmetry_cell_setting            triclinic
loop_
_symmetry_equiv_pos_as_xyz
  x,y,z
_cell_length_a                    26.3475
_cell_length_b                    39.2922
_cell_length_c                    23.5684
_cell_angle_alpha                 90.0000
_cell_angle_beta                  109.8425
_cell_angle_gamma                 90.0000
loop_
_atom_site_label
_atom_site_type_symbol
_atom_site_fract_x
_atom_site_fract_y
_atom_site_fract_z
_atom_site_U_iso_or_equiv
_atom_site_adp_type
_atom_site_occupancy
C1     C     0.69974   0.08445   0.71558   0.00000  Uiso   1.00
C2     C     0.75740   0.08052   0.71584   0.00000  Uiso   1.00
C3     C     0.78440   0.10334   0.69125   0.00000  Uiso   1.00
C4     C     0.83696   0.09513   0.69610   0.00000  Uiso   1.00
C5     C     0.92273   0.09358   0.69215   0.00000  Uiso   1.00
C6     C     0.66974   0.05250   0.68538   0.00000  Uiso   1.00
C7     C     0.62304   0.05177   0.63519   0.00000  Uiso   1.00
C8     C     0.60181   0.01998   0.61440   0.00000  Uiso   1.00
C9     C     0.55147   0.97493   0.56318   0.00000  Uiso   1.00
C10    C     0.70315   0.08252   0.78140   0.00000  Uiso   1.00
C11    C     0.68452   0.10703   0.81194   0.00000  Uiso   1.00
C12    C     0.69141   0.10050   0.87200   0.00000  Uiso   1.00
C13    C     0.69294   0.10206   0.96986   0.00000  Uiso   1.00
C14    C     0.74508   0.02928   0.76792   0.00000  Uiso   1.00
C15    C     0.78202   0.05055   0.74426   0.00000  Uiso   1.00
C16    C     0.83456   0.04230   0.74916   0.00000  Uiso   1.00
C17    C     0.86163   0.06511   0.72458   0.00000  Uiso   1.00
C18    C     0.69437   0.02254   0.71380   0.00000  Uiso   1.00
C19    C     0.67320   0.99073   0.69309   0.00000  Uiso   1.00
C20    C     0.62648   0.98996   0.64288   0.00000  Uiso   1.00
C21    C     0.72778   0.05256   0.80983   0.00000  Uiso   1.00
C22    C     0.73469   0.04599   0.86984   0.00000  Uiso   1.00
C23    C     0.71608   0.07048   0.90047   0.00000  Uiso   1.00
H24    H     0.68057   0.10778   0.69345   0.00000  Uiso   1.00
H25    H     0.76533   0.12653   0.66925   0.00000  Uiso   1.00
H26    H     0.60399   0.07497   0.61320   0.00000  Uiso   1.00
H27    H     0.66547   0.13022   0.78992   0.00000  Uiso   1.00
H28    H     0.87015   0.13410   0.65494   0.00000  Uiso   1.00
H29    H     0.52995   0.02538   0.53677   0.00000  Uiso   1.00
H30    H     0.65959   0.14187   0.90942   0.00000  Uiso   1.00
H31    H     0.76425   0.00595   0.79005   0.00000  Uiso   1.00
H32    H     0.85361   0.01911   0.77116   0.00000  Uiso   1.00
H33    H     0.69227   0.96755   0.71510   0.00000  Uiso   1.00
H34    H     0.75375   0.02280   0.89183   0.00000  Uiso   1.00
H35    H     0.94180   0.04691   0.73765   0.00000  Uiso   1.00
H36    H     0.60160   0.93819   0.61948   0.00000  Uiso   1.00
H37    H     0.73124   0.05469   0.99213   0.00000  Uiso   1.00
O38    O     0.96324   0.10099   0.68210   0.00000  Uiso   1.00
O39    O     0.51691   0.95836   0.52707   0.00000  Uiso   1.00
O40    O     0.68699   0.11120   0.01599   0.00000  Uiso   1.00
N41    N     0.87475   0.11178   0.67701   0.00000  Uiso   1.00
N42    N     0.55669   0.01013   0.56652   0.00000  Uiso   1.00
N43    N     0.67788   0.11904   0.91492   0.00000  Uiso   1.00
N44    N     0.91331   0.06486   0.72151   0.00000  Uiso   1.00
N45    N     0.59525   0.96321   0.61102   0.00000  Uiso   1.00
N46    N     0.71644   0.07213   0.95942   0.00000  Uiso   1.00
C47    C     0.23316   0.08522   0.06781   0.00000  Uiso   1.00
C48    C     0.22425   0.05848   0.01848   0.00000  Uiso   1.00
C49    C     0.26406   0.03857   0.00883   0.00000  Uiso   1.00
C50    C     0.24770   0.01559   0.96132   0.00000  Uiso   1.00
C51    C     0.24212   0.97453   0.89025   0.00000  Uiso   1.00
C52    C     0.21010   0.11834   0.03561   0.00000  Uiso   1.00
C53    C     0.23802   0.14876   0.04038   0.00000  Uiso   1.00
C54    C     0.20975   0.17616   0.00730   0.00000  Uiso   1.00
C55    C     0.68220   0.72804   0.96287   0.00000  Uiso   1.00
C56    C     0.19668   0.07512   0.10328   0.00000  Uiso   1.00
C57    C     0.21331   0.06921   0.16495   0.00000  Uiso   1.00
C58    C     0.17373   0.06023   0.18885   0.00000  Uiso   1.00
C59    C     0.12535   0.04501   0.24949   0.00000  Uiso   1.00
C60    C     0.13330   0.07980   0.00060   0.00000  Uiso   1.00
C61    C     0.17001   0.05554   0.98197   0.00000  Uiso   1.00
C62    C     0.15358   0.03258   0.93446   0.00000  Uiso   1.00
C63    C     0.19336   0.01264   0.92475   0.00000  Uiso   1.00
C64    C     0.15587   0.11539   0.99911   0.00000  Uiso   1.00
C65    C     0.12754   0.14276   0.96602   0.00000  Uiso   1.00
C66    C     0.15541   0.17321   0.97073   0.00000  Uiso   1.00
C67    C     0.14244   0.07217   0.06678   0.00000  Uiso   1.00
C68    C     0.10283   0.06321   0.09059   0.00000  Uiso   1.00
C69    C     0.11939   0.05729   0.15228   0.00000  Uiso   1.00
H70    H     0.27538   0.08751   0.09623   0.00000  Uiso   1.00
H71    H     0.30603   0.04086   0.03709   0.00000  Uiso   1.00
H72    H     0.27999   0.15103   0.06864   0.00000  Uiso   1.00
H73    H     0.25529   0.07149   0.19319   0.00000  Uiso   1.00
H74    H     0.31610   0.98785   0.95539   0.00000  Uiso   1.00
H75    H     0.76119   0.72014   0.02194   0.00000  Uiso   1.00
H76    H     0.20909   0.05243   0.28458   0.00000  Uiso   1.00
H77    H     0.09107   0.07750   0.97218   0.00000  Uiso   1.00
H78    H     0.11160   0.03030   0.90622   0.00000  Uiso   1.00
H79    H     0.08557   0.14047   0.93778   0.00000  Uiso   1.00
H80    H     0.06086   0.06093   0.06233   0.00000  Uiso   1.00
H81    H     0.15829   0.97928   0.84918   0.00000  Uiso   1.00
H82    H     0.10338   0.21158   0.91573   0.00000  Uiso   1.00
H83    H     0.05128   0.04386   0.17837   0.00000  Uiso   1.00
O84    O     0.25403   0.95271   0.86112   0.00000  Uiso   1.00
O85    O     0.68199   0.75747   0.94844   0.00000  Uiso   1.00
O86    O     0.11364   0.03743   0.29302   0.00000  Uiso   1.00
N87    N     0.27614   0.99231   0.93946   0.00000  Uiso   1.00
N88    N     0.22481   0.20949   0.00167   0.00000  Uiso   1.00
N89    N     0.17609   0.05270   0.24722   0.00000  Uiso   1.00
N90    N     0.19122   0.98770   0.88230   0.00000  Uiso   1.00
N91    N     0.13989   0.20488   0.94451   0.00000  Uiso   1.00
N92    N     0.09118   0.04809   0.19006   0.00000  Uiso   1.00
C93    C     0.02969   0.84684   0.97158   0.00000  Uiso   1.00
C94    C     0.99142   0.85310   0.90748   0.00000  Uiso   1.00
C95    C     0.94432   0.83517   0.87864   0.00000  Uiso   1.00
C96    C     0.91489   0.84478   0.81998   0.00000  Uiso   1.00
C97    C     0.85287   0.85045   0.72481   0.00000  Uiso   1.00
C98    C     0.08499   0.84030   0.96637   0.00000  Uiso   1.00
C99    C     0.11657   0.81160   0.98706   0.00000  Uiso   1.00
C100   C     0.16593   0.81044   0.97798   0.00000  Uiso   1.00
C101   C     0.74920   0.29623   0.97429   0.00000  Uiso   1.00
C102   C     0.03426   0.88068   0.00462   0.00000  Uiso   1.00
C103   C     0.02320   0.88594   0.05748   0.00000  Uiso   1.00
C104   C     0.02986   0.91878   0.08061   0.00000  Uiso   1.00
C105   C     0.03436   0.96727   0.13630   0.00000  Uiso   1.00
C106   C     0.06120   0.89581   0.91867   0.00000  Uiso   1.00
C107   C     0.00853   0.87970   0.87875   0.00000  Uiso   1.00
C108   C     0.97917   0.88934   0.82011   0.00000  Uiso   1.00
C109   C     0.93203   0.87143   0.79119   0.00000  Uiso   1.00
C110   C     0.10211   0.86689   0.93764   0.00000  Uiso   1.00
C111   C     0.15143   0.86577   0.92853   0.00000  Uiso   1.00
C112   C     0.18307   0.83708   0.94920   0.00000  Uiso   1.00
C113   C     0.05137   0.90728   0.97589   0.00000  Uiso   1.00
C114   C     0.05805   0.94011   0.99894   0.00000  Uiso   1.00
C115   C     0.04700   0.94542   0.05182   0.00000  Uiso   1.00
H116   H     0.01638   0.82614   0.99395   0.00000  Uiso   1.00
H117   H     0.93109   0.81459   0.90089   0.00000  Uiso   1.00
H118   H     0.10332   0.79102   0.00930   0.00000  Uiso   1.00
H119   H     0.00996   0.86535   0.07970   0.00000  Uiso   1.00
H120   H     0.84409   0.81350   0.78505   0.00000  Uiso   1.00
H121   H     0.20726   0.76382   0.01365   0.00000  Uiso   1.00
H122   H     0.01039   0.92056   0.16210   0.00000  Uiso   1.00
H123   H     0.07452   0.91652   0.89630   0.00000  Uiso   1.00
H124   H     0.99242   0.90993   0.79789   0.00000  Uiso   1.00
H125   H     0.16466   0.88636   0.90630   0.00000  Uiso   1.00
H126   H     0.07129   0.96069   0.97669   0.00000  Uiso   1.00
H127   H     0.89387   0.89088   0.70144   0.00000  Uiso   1.00
H128   H     0.75705   0.34120   0.93005   0.00000  Uiso   1.00
H129   H     0.06017   0.99794   0.07850   0.00000  Uiso   1.00
O130   O     0.81393   0.84622   0.68026   0.00000  Uiso   1.00
O131   O     0.79041   0.28105   0.98019   0.00000  Uiso   1.00
O132   O     0.03211   0.98668   0.17495   0.00000  Uiso   1.00
N133   N     0.86707   0.83262   0.77888   0.00000  Uiso   1.00
N134   N     0.20661   0.78617   0.99260   0.00000  Uiso   1.00
N135   N     0.02256   0.93271   0.13140   0.00000  Uiso   1.00
N136   N     0.89385   0.87426   0.73389   0.00000  Uiso   1.00
N137   N     0.23340   0.82781   0.94761   0.00000  Uiso   1.00
N138   N     0.04935   0.97434   0.08642   0.00000  Uiso   1.00
C139   C     0.19974   0.58445   0.71558   0.00000  Uiso   1.00
C140   C     0.25740   0.58052   0.71584   0.00000  Uiso   1.00
C141   C     0.28440   0.60334   0.69125   0.00000  Uiso   1.00
C142   C     0.33696   0.59513   0.69610   0.00000  Uiso   1.00
C143   C     0.42273   0.59358   0.69215   0.00000  Uiso   1.00
C144   C     0.16974   0.55250   0.68538   0.00000  Uiso   1.00
C145   C     0.12304   0.55177   0.63519   0.00000  Uiso   1.00
C146   C     0.10181   0.51998   0.61440   0.00000  Uiso   1.00
C147   C     0.05147   0.47493   0.56318   0.00000  Uiso   1.00
C148   C     0.20315   0.58252   0.78140   0.00000  Uiso   1.00
C149   C     0.18452   0.60703   0.81194   0.00000  Uiso   1.00
C150   C     0.19141   0.60050   0.87200   0.00000  Uiso   1.00
C151   C     0.19294   0.60206   0.96986   0.00000  Uiso   1.00
C152   C     0.24508   0.52928   0.76792   0.00000  Uiso   1.00
C153   C     0.28202   0.55055   0.74426   0.00000  Uiso   1.00
C154   C     0.33456   0.54230   0.74916   0.00000  Uiso   1.00
C155   C     0.36163   0.56511   0.72458   0.00000  Uiso   1.00
C156   C     0.19437   0.52254   0.71380   0.00000  Uiso   1.00
C157   C     0.17320   0.49073   0.69309   0.00000  Uiso   1.00
C158   C     0.12648   0.48996   0.64288   0.00000  Uiso   1.00
C159   C     0.22778   0.55256   0.80983   0.00000  Uiso   1.00
C160   C     0.23469   0.54599   0.86984   0.00000  Uiso   1.00
C161   C     0.21608   0.57048   0.90047   0.00000  Uiso   1.00
H162   H     0.18057   0.60778   0.69345   0.00000  Uiso   1.00
H163   H     0.26533   0.62653   0.66925   0.00000  Uiso   1.00
H164   H     0.10399   0.57497   0.61320   0.00000  Uiso   1.00
H165   H     0.16547   0.63022   0.78992   0.00000  Uiso   1.00
H166   H     0.37015   0.63410   0.65494   0.00000  Uiso   1.00
H167   H     0.02995   0.52538   0.53677   0.00000  Uiso   1.00
H168   H     0.15959   0.64187   0.90942   0.00000  Uiso   1.00
H169   H     0.26425   0.50595   0.79005   0.00000  Uiso   1.00
H170   H     0.35361   0.51911   0.77116   0.00000  Uiso   1.00
H171   H     0.19227   0.46755   0.71510   0.00000  Uiso   1.00
H172   H     0.25375   0.52280   0.89183   0.00000  Uiso   1.00
H173   H     0.44180   0.54691   0.73765   0.00000  Uiso   1.00
H174   H     0.10160   0.43819   0.61948   0.00000  Uiso   1.00
H175   H     0.23124   0.55469   0.99213   0.00000  Uiso   1.00
O176   O     0.46324   0.60099   0.68210   0.00000  Uiso   1.00
O177   O     0.01691   0.45836   0.52707   0.00000  Uiso   1.00
O178   O     0.18699   0.61120   0.01599   0.00000  Uiso   1.00
N179   N     0.37475   0.61178   0.67701   0.00000  Uiso   1.00
N180   N     0.05669   0.51013   0.56652   0.00000  Uiso   1.00
N181   N     0.17788   0.61904   0.91492   0.00000  Uiso   1.00
N182   N     0.41331   0.56486   0.72151   0.00000  Uiso   1.00
N183   N     0.09525   0.46321   0.61102   0.00000  Uiso   1.00
N184   N     0.21644   0.57213   0.95942   0.00000  Uiso   1.00
C185   C     0.73316   0.58522   0.06781   0.00000  Uiso   1.00
C186   C     0.72425   0.55848   0.01848   0.00000  Uiso   1.00
C187   C     0.76406   0.53857   0.00883   0.00000  Uiso   1.00
C188   C     0.74770   0.51559   0.96132   0.00000  Uiso   1.00
C189   C     0.74212   0.47453   0.89025   0.00000  Uiso   1.00
C190   C     0.71010   0.61834   0.03561   0.00000  Uiso   1.00
C191   C     0.73802   0.64876   0.04038   0.00000  Uiso   1.00
C192   C     0.70975   0.67616   0.00730   0.00000  Uiso   1.00
C193   C     0.18220   0.22804   0.96287   0.00000  Uiso   1.00
C194   C     0.69668   0.57512   0.10328   0.00000  Uiso   1.00
C195   C     0.71331   0.56921   0.16495   0.00000  Uiso   1.00
C196   C     0.67373   0.56023   0.18885   0.00000  Uiso   1.00
C197   C     0.62535   0.54501   0.24949   0.00000  Uiso   1.00
C198   C     0.63330   0.57980   0.00060   0.00000  Uiso   1.00
C199   C     0.67001   0.55554   0.98197   0.00000  Uiso   1.00
C200   C     0.65358   0.53258   0.93446   0.00000  Uiso   1.00
C201   C     0.69336   0.51264   0.92475   0.00000  Uiso   1.00
C202   C     0.65587   0.61539   0.99911   0.00000  Uiso   1.00
C203   C     0.62754   0.64276   0.96602   0.00000  Uiso   1.00
C204   C     0.65541   0.67321   0.97073   0.00000  Uiso   1.00
C205   C     0.64244   0.57217   0.06678   0.00000  Uiso   1.00
C206   C     0.60283   0.56321   0.09059   0.00000  Uiso   1.00
C207   C     0.61939   0.55729   0.15228   0.00000  Uiso   1.00
H208   H     0.77538   0.58751   0.09623   0.00000  Uiso   1.00
H209   H     0.80603   0.54086   0.03709   0.00000  Uiso   1.00
H210   H     0.77999   0.65103   0.06864   0.00000  Uiso   1.00
H211   H     0.75529   0.57149   0.19319   0.00000  Uiso   1.00
H212   H     0.81610   0.48785   0.95539   0.00000  Uiso   1.00
H213   H     0.26119   0.22014   0.02194   0.00000  Uiso   1.00
H214   H     0.70909   0.55243   0.28458   0.00000  Uiso   1.00
H215   H     0.59107   0.57750   0.97218   0.00000  Uiso   1.00
H216   H     0.61160   0.53030   0.90622   0.00000  Uiso   1.00
H217   H     0.58557   0.64047   0.93778   0.00000  Uiso   1.00
H218   H     0.56086   0.56093   0.06233   0.00000  Uiso   1.00
H219   H     0.65829   0.47928   0.84918   0.00000  Uiso   1.00
H220   H     0.60338   0.71158   0.91573   0.00000  Uiso   1.00
H221   H     0.55128   0.54386   0.17837   0.00000  Uiso   1.00
O222   O     0.75403   0.45271   0.86112   0.00000  Uiso   1.00
O223   O     0.18199   0.25747   0.94844   0.00000  Uiso   1.00
O224   O     0.61364   0.53743   0.29302   0.00000  Uiso   1.00
N225   N     0.77614   0.49231   0.93946   0.00000  Uiso   1.00
N226   N     0.72481   0.70949   0.00167   0.00000  Uiso   1.00
N227   N     0.67609   0.55270   0.24722   0.00000  Uiso   1.00
N228   N     0.69122   0.48770   0.88230   0.00000  Uiso   1.00
N229   N     0.63989   0.70488   0.94451   0.00000  Uiso   1.00
N230   N     0.59118   0.54809   0.19006   0.00000  Uiso   1.00
C231   C     0.52969   0.34684   0.97158   0.00000  Uiso   1.00
C232   C     0.49142   0.35310   0.90748   0.00000  Uiso   1.00
C233   C     0.44432   0.33517   0.87864   0.00000  Uiso   1.00
C234   C     0.41489   0.34478   0.81998   0.00000  Uiso   1.00
C235   C     0.35287   0.35045   0.72481   0.00000  Uiso   1.00
C236   C     0.58499   0.34030   0.96637   0.00000  Uiso   1.00
C237   C     0.61657   0.31160   0.98706   0.00000  Uiso   1.00
C238   C     0.66593   0.31044   0.97798   0.00000  Uiso   1.00
C239   C     0.24920   0.79623   0.97429   0.00000  Uiso   1.00
C240   C     0.53426   0.38068   0.00462   0.00000  Uiso   1.00
C241   C     0.52320   0.38594   0.05748   0.00000  Uiso   1.00
C242   C     0.52986   0.41878   0.08061   0.00000  Uiso   1.00
C243   C     0.53436   0.46727   0.13630   0.00000  Uiso   1.00
C244   C     0.56120   0.39581   0.91867   0.00000  Uiso   1.00
C245   C     0.50853   0.37970   0.87875   0.00000  Uiso   1.00
C246   C     0.47917   0.38934   0.82011   0.00000  Uiso   1.00
C247   C     0.43203   0.37143   0.79119   0.00000  Uiso   1.00
C248   C     0.60211   0.36689   0.93764   0.00000  Uiso   1.00
C249   C     0.65143   0.36577   0.92853   0.00000  Uiso   1.00
C250   C     0.68307   0.33708   0.94920   0.00000  Uiso   1.00
C251   C     0.55137   0.40728   0.97589   0.00000  Uiso   1.00
C252   C     0.55805   0.44011   0.99894   0.00000  Uiso   1.00
C253   C     0.54700   0.44542   0.05182   0.00000  Uiso   1.00
H254   H     0.51638   0.32614   0.99395   0.00000  Uiso   1.00
H255   H     0.43109   0.31459   0.90089   0.00000  Uiso   1.00
H256   H     0.60332   0.29102   0.00930   0.00000  Uiso   1.00
H257   H     0.50996   0.36535   0.07970   0.00000  Uiso   1.00
H258   H     0.34409   0.31350   0.78505   0.00000  Uiso   1.00
H259   H     0.70726   0.26382   0.01365   0.00000  Uiso   1.00
H260   H     0.51039   0.42056   0.16210   0.00000  Uiso   1.00
H261   H     0.57452   0.41652   0.89630   0.00000  Uiso   1.00
H262   H     0.49242   0.40993   0.79789   0.00000  Uiso   1.00
H263   H     0.66466   0.38636   0.90630   0.00000  Uiso   1.00
H264   H     0.57129   0.46069   0.97669   0.00000  Uiso   1.00
H265   H     0.39387   0.39088   0.70144   0.00000  Uiso   1.00
H266   H     0.25705   0.84120   0.93005   0.00000  Uiso   1.00
H267   H     0.56017   0.49794   0.07850   0.00000  Uiso   1.00
O268   O     0.31393   0.34622   0.68026   0.00000  Uiso   1.00
O269   O     0.29041   0.78105   0.98019   0.00000  Uiso   1.00
O270   O     0.53211   0.48668   0.17495   0.00000  Uiso   1.00
N271   N     0.36707   0.33262   0.77888   0.00000  Uiso   1.00
N272   N     0.70661   0.28617   0.99260   0.00000  Uiso   1.00
N273   N     0.52256   0.43271   0.13140   0.00000  Uiso   1.00
N274   N     0.39385   0.37426   0.73389   0.00000  Uiso   1.00
N275   N     0.73340   0.32781   0.94761   0.00000  Uiso   1.00
N276   N     0.54935   0.47434   0.08642   0.00000  Uiso   1.00
C277   C     0.30026   0.08445   0.78442   0.00000  Uiso   1.00
C278   C     0.24260   0.08052   0.78416   0.00000  Uiso   1.00
C279   C     0.21560   0.10334   0.80875   0.00000  Uiso   1.00
C280   C     0.16304   0.09513   0.80390   0.00000  Uiso   1.00
C281   C     0.07727   0.09358   0.80785   0.00000  Uiso   1.00
C282   C     0.33026   0.05250   0.81462   0.00000  Uiso   1.00
C283   C     0.37696   0.05177   0.86481   0.00000  Uiso   1.00
C284   C     0.39819   0.01998   0.88560   0.00000  Uiso   1.00
C285   C     0.44853   0.97493   0.93682   0.00000  Uiso   1.00
C286   C     0.29685   0.08252   0.71860   0.00000  Uiso   1.00
C287   C     0.31548   0.10703   0.68806   0.00000  Uiso   1.00
C288   C     0.30859   0.10050   0.62800   0.00000  Uiso   1.00
C289   C     0.30706   0.10206   0.53014   0.00000  Uiso   1.00
C290   C     0.25492   0.02928   0.73208   0.00000  Uiso   1.00
C291   C     0.21798   0.05055   0.75574   0.00000  Uiso   1.00
C292   C     0.16544   0.04230   0.75084   0.00000  Uiso   1.00
C293   C     0.13837   0.06511   0.77542   0.00000  Uiso   1.00
C294   C     0.30563   0.02254   0.78620   0.00000  Uiso   1.00
C295   C     0.32680   0.99073   0.80691   0.00000  Uiso   1.00
C296   C     0.37352   0.98996   0.85712   0.00000  Uiso   1.00
C297   C     0.27222   0.05256   0.69017   0.00000  Uiso   1.00
C298   C     0.26531   0.04599   0.63016   0.00000  Uiso   1.00
C299   C     0.28392   0.07048   0.59953   0.00000  Uiso   1.00
H300   H     0.31943   0.10778   0.80655   0.00000  Uiso   1.00
H301   H     0.23467   0.12653   0.83075   0.00000  Uiso   1.00
H302   H     0.39601   0.07497   0.88680   0.00000  Uiso   1.00
H303   H     0.33453   0.13022   0.71008   0.00000  Uiso   1.00
H304   H     0.12985   0.13410   0.84506   0.00000  Uiso   1.00
H305   H     0.47005   0.02538   0.96323   0.00000  Uiso   1.00
H306   H     0.34041   0.14187   0.59058   0.00000  Uiso   1.00
H307   H     0.23575   0.00595   0.70995   0.00000  Uiso   1.00
H308   H     0.14639   0.01911   0.72884   0.00000  Uiso   1.00
H309   H     0.30773   0.96755   0.78490   0.00000  Uiso   1.00
H310   H     0.24625   0.02280   0.60817   0.00000  Uiso   1.00
H311   H     0.05820   0.04691   0.76235   0.00000  Uiso   1.00
H312   H     0.39840   0.93819   0.88052   0.00000  Uiso   1.00
H313   H     0.26876   0.05469   0.50787   0.00000  Uiso   1.00
O314   O     0.03676   0.10099   0.81790   0.00000  Uiso   1.00
O315   O     0.48309   0.95836   0.97293   0.00000  Uiso   1.00
O316   O     0.31301   0.11120   0.48401   0.00000  Uiso   1.00
N317   N     0.12525   0.11178   0.82299   0.00000  Uiso   1.00
N318   N     0.44331   0.01013   0.93348   0.00000  Uiso   1.00
N319   N     0.32212   0.11904   0.58508   0.00000  Uiso   1.00
N320   N     0.08669   0.06486   0.77849   0.00000  Uiso   1.00
N321   N     0.40475   0.96321   0.88898   0.00000  Uiso   1.00
N322   N     0.28356   0.07213   0.54058   0.00000  Uiso   1.00
C323   C     0.76684   0.08522   0.43219   0.00000  Uiso   1.00
C324   C     0.77575   0.05848   0.48152   0.00000  Uiso   1.00
C325   C     0.73594   0.03857   0.49117   0.00000  Uiso   1.00
C326   C     0.75230   0.01559   0.53868   0.00000  Uiso   1.00
C327   C     0.75788   0.97453   0.60975   0.00000  Uiso   1.00
C328   C     0.78990   0.11834   0.46439   0.00000  Uiso   1.00
C329   C     0.76198   0.14876   0.45962   0.00000  Uiso   1.00
C330   C     0.79025   0.17616   0.49270   0.00000  Uiso   1.00
C331   C     0.31780   0.72804   0.53713   0.00000  Uiso   1.00
C332   C     0.80332   0.07512   0.39672   0.00000  Uiso   1.00
C333   C     0.78669   0.06921   0.33505   0.00000  Uiso   1.00
C334   C     0.82627   0.06023   0.31115   0.00000  Uiso   1.00
C335   C     0.87465   0.04501   0.25051   0.00000  Uiso   1.00
C336   C     0.86670   0.07980   0.49940   0.00000  Uiso   1.00
C337   C     0.82999   0.05554   0.51803   0.00000  Uiso   1.00
C338   C     0.84642   0.03258   0.56554   0.00000  Uiso   1.00
C339   C     0.80664   0.01264   0.57525   0.00000  Uiso   1.00
C340   C     0.84413   0.11539   0.50089   0.00000  Uiso   1.00
C341   C     0.87246   0.14276   0.53398   0.00000  Uiso   1.00
C342   C     0.84459   0.17321   0.52927   0.00000  Uiso   1.00
C343   C     0.85756   0.07217   0.43322   0.00000  Uiso   1.00
C344   C     0.89717   0.06321   0.40941   0.00000  Uiso   1.00
C345   C     0.88061   0.05729   0.34772   0.00000  Uiso   1.00
H346   H     0.72462   0.08751   0.40377   0.00000  Uiso   1.00
H347   H     0.69397   0.04086   0.46291   0.00000  Uiso   1.00
H348   H     0.72001   0.15103   0.43136   0.00000  Uiso   1.00
H349   H     0.74471   0.07149   0.30681   0.00000  Uiso   1.00
H350   H     0.68390   0.98785   0.54461   0.00000  Uiso   1.00
H351   H     0.23881   0.72014   0.47806   0.00000  Uiso   1.00
H352   H     0.79091   0.05243   0.21542   0.00000  Uiso   1.00
H353   H     0.90893   0.07750   0.52782   0.00000  Uiso   1.00
H354   H     0.88840   0.03030   0.59378   0.00000  Uiso   1.00
H355   H     0.91443   0.14047   0.56222   0.00000  Uiso   1.00
H356   H     0.93914   0.06093   0.43767   0.00000  Uiso   1.00
H357   H     0.84171   0.97928   0.65082   0.00000  Uiso   1.00
H358   H     0.89662   0.21158   0.58427   0.00000  Uiso   1.00
H359   H     0.94872   0.04386   0.32163   0.00000  Uiso   1.00
O360   O     0.74597   0.95271   0.63888   0.00000  Uiso   1.00
O361   O     0.31801   0.75747   0.55156   0.00000  Uiso   1.00
O362   O     0.88636   0.03743   0.20698   0.00000  Uiso   1.00
N363   N     0.72386   0.99231   0.56054   0.00000  Uiso   1.00
N364   N     0.77519   0.20949   0.49833   0.00000  Uiso   1.00
N365   N     0.82391   0.05270   0.25278   0.00000  Uiso   1.00
N366   N     0.80878   0.98770   0.61770   0.00000  Uiso   1.00
N367   N     0.86011   0.20488   0.55549   0.00000  Uiso   1.00
N368   N     0.90882   0.04809   0.30994   0.00000  Uiso   1.00
C369   C     0.97031   0.84684   0.52842   0.00000  Uiso   1.00
C370   C     0.00858   0.85310   0.59252   0.00000  Uiso   1.00
C371   C     0.05568   0.83517   0.62136   0.00000  Uiso   1.00
C372   C     0.08511   0.84478   0.68002   0.00000  Uiso   1.00
C373   C     0.14713   0.85045   0.77519   0.00000  Uiso   1.00
C374   C     0.91501   0.84030   0.53363   0.00000  Uiso   1.00
C375   C     0.88343   0.81160   0.51294   0.00000  Uiso   1.00
C376   C     0.83407   0.81044   0.52202   0.00000  Uiso   1.00
C377   C     0.25080   0.29623   0.52571   0.00000  Uiso   1.00
C378   C     0.96574   0.88068   0.49538   0.00000  Uiso   1.00
C379   C     0.97680   0.88594   0.44252   0.00000  Uiso   1.00
C380   C     0.97014   0.91878   0.41939   0.00000  Uiso   1.00
C381   C     0.96564   0.96727   0.36370   0.00000  Uiso   1.00
C382   C     0.93880   0.89581   0.58133   0.00000  Uiso   1.00
C383   C     0.99147   0.87970   0.62125   0.00000  Uiso   1.00
C384   C     0.02083   0.88934   0.67989   0.00000  Uiso   1.00
C385   C     0.06797   0.87143   0.70881   0.00000  Uiso   1.00
C386   C     0.89789   0.86689   0.56236   0.00000  Uiso   1.00
C387   C     0.84857   0.86577   0.57147   0.00000  Uiso   1.00
C388   C     0.81693   0.83708   0.55080   0.00000  Uiso   1.00
C389   C     0.94863   0.90728   0.52411   0.00000  Uiso   1.00
C390   C     0.94195   0.94011   0.50106   0.00000  Uiso   1.00
C391   C     0.95300   0.94542   0.44818   0.00000  Uiso   1.00
H392   H     0.98362   0.82614   0.50605   0.00000  Uiso   1.00
H393   H     0.06891   0.81459   0.59911   0.00000  Uiso   1.00
H394   H     0.89668   0.79102   0.49070   0.00000  Uiso   1.00
H395   H     0.99004   0.86535   0.42030   0.00000  Uiso   1.00
H396   H     0.15591   0.81350   0.71495   0.00000  Uiso   1.00
H397   H     0.79274   0.76382   0.48635   0.00000  Uiso   1.00
H398   H     0.98961   0.92056   0.33790   0.00000  Uiso   1.00
H399   H     0.92548   0.91652   0.60370   0.00000  Uiso   1.00
H400   H     0.00758   0.90993   0.70211   0.00000  Uiso   1.00
H401   H     0.83534   0.88636   0.59370   0.00000  Uiso   1.00
H402   H     0.92871   0.96069   0.52331   0.00000  Uiso   1.00
H403   H     0.10613   0.89088   0.79856   0.00000  Uiso   1.00
H404   H     0.24295   0.34120   0.56995   0.00000  Uiso   1.00
H405   H     0.93983   0.99794   0.42150   0.00000  Uiso   1.00
O406   O     0.18607   0.84622   0.81974   0.00000  Uiso   1.00
O407   O     0.20959   0.28105   0.51981   0.00000  Uiso   1.00
O408   O     0.96789   0.98668   0.32505   0.00000  Uiso   1.00
N409   N     0.13293   0.83262   0.72112   0.00000  Uiso   1.00
N410   N     0.79339   0.78617   0.50740   0.00000  Uiso   1.00
N411   N     0.97744   0.93271   0.36860   0.00000  Uiso   1.00
N412   N     0.10615   0.87426   0.76611   0.00000  Uiso   1.00
N413   N     0.76660   0.82781   0.55239   0.00000  Uiso   1.00
N414   N     0.95065   0.97434   0.41358   0.00000  Uiso   1.00
C415   C     0.80026   0.58445   0.78442   0.00000  Uiso   1.00
C416   C     0.74260   0.58052   0.78416   0.00000  Uiso   1.00
C417   C     0.71560   0.60334   0.80875   0.00000  Uiso   1.00
C418   C     0.66304   0.59513   0.80390   0.00000  Uiso   1.00
C419   C     0.57727   0.59358   0.80785   0.00000  Uiso   1.00
C420   C     0.83026   0.55250   0.81462   0.00000  Uiso   1.00
C421   C     0.87696   0.55177   0.86481   0.00000  Uiso   1.00
C422   C     0.89819   0.51998   0.88560   0.00000  Uiso   1.00
C423   C     0.94853   0.47493   0.93682   0.00000  Uiso   1.00
C424   C     0.79685   0.58252   0.71860   0.00000  Uiso   1.00
C425   C     0.81548   0.60703   0.68806   0.00000  Uiso   1.00
C426   C     0.80859   0.60050   0.62800   0.00000  Uiso   1.00
C427   C     0.80706   0.60206   0.53014   0.00000  Uiso   1.00
C428   C     0.75492   0.52928   0.73208   0.00000  Uiso   1.00
C429   C     0.71798   0.55055   0.75574   0.00000  Uiso   1.00
C430   C     0.66544   0.54230   0.75084   0.00000  Uiso   1.00
C431   C     0.63837   0.56511   0.77542   0.00000  Uiso   1.00
C432   C     0.80563   0.52254   0.78620   0.00000  Uiso   1.00
C433   C     0.82680   0.49073   0.80691   0.00000  Uiso   1.00
C434   C     0.87352   0.48996   0.85712   0.00000  Uiso   1.00
C435   C     0.77222   0.55256   0.69017   0.00000  Uiso   1.00
C436   C     0.76531   0.54599   0.63016   0.00000  Uiso   1.00
C437   C     0.78392   0.57048   0.59953   0.00000  Uiso   1.00
H438   H     0.81943   0.60778   0.80655   0.00000  Uiso   1.00
H439   H     0.73467   0.62653   0.83075   0.00000  Uiso   1.00
H440   H     0.89601   0.57497   0.88680   0.00000  Uiso   1.00
H441   H     0.83453   0.63022   0.71008   0.00000  Uiso   1.00
H442   H     0.62985   0.63410   0.84506   0.00000  Uiso   1.00
H443   H     0.97005   0.52538   0.96323   0.00000  Uiso   1.00
H444   H     0.84041   0.64187   0.59058   0.00000  Uiso   1.00
H445   H     0.73575   0.50595   0.70995   0.00000  Uiso   1.00
H446   H     0.64639   0.51911   0.72884   0.00000  Uiso   1.00
H447   H     0.80773   0.46755   0.78490   0.00000  Uiso   1.00
H448   H     0.74625   0.52280   0.60817   0.00000  Uiso   1.00
H449   H     0.55820   0.54691   0.76235   0.00000  Uiso   1.00
H450   H     0.89840   0.43819   0.88052   0.00000  Uiso   1.00
H451   H     0.76876   0.55469   0.50787   0.00000  Uiso   1.00
O452   O     0.53676   0.60099   0.81790   0.00000  Uiso   1.00
O453   O     0.98309   0.45836   0.97293   0.00000  Uiso   1.00
O454   O     0.81301   0.61120   0.48401   0.00000  Uiso   1.00
N455   N     0.62525   0.61178   0.82299   0.00000  Uiso   1.00
N456   N     0.94331   0.51013   0.93348   0.00000  Uiso   1.00
N457   N     0.82212   0.61904   0.58508   0.00000  Uiso   1.00
N458   N     0.58669   0.56486   0.77849   0.00000  Uiso   1.00
N459   N     0.90475   0.46321   0.88898   0.00000  Uiso   1.00
N460   N     0.78356   0.57213   0.54058   0.00000  Uiso   1.00
C461   C     0.26684   0.58522   0.43219   0.00000  Uiso   1.00
C462   C     0.27575   0.55848   0.48152   0.00000  Uiso   1.00
C463   C     0.23594   0.53857   0.49117   0.00000  Uiso   1.00
C464   C     0.25230   0.51559   0.53868   0.00000  Uiso   1.00
C465   C     0.25788   0.47453   0.60975   0.00000  Uiso   1.00
C466   C     0.28990   0.61834   0.46439   0.00000  Uiso   1.00
C467   C     0.26198   0.64876   0.45962   0.00000  Uiso   1.00
C468   C     0.29025   0.67616   0.49270   0.00000  Uiso   1.00
C469   C     0.81780   0.22804   0.53713   0.00000  Uiso   1.00
C470   C     0.30332   0.57512   0.39672   0.00000  Uiso   1.00
C471   C     0.28669   0.56921   0.33505   0.00000  Uiso   1.00
C472   C     0.32627   0.56023   0.31115   0.00000  Uiso   1.00
C473   C     0.37465   0.54501   0.25051   0.00000  Uiso   1.00
C474   C     0.36670   0.57980   0.49940   0.00000  Uiso   1.00
C475   C     0.32999   0.55554   0.51803   0.00000  Uiso   1.00
C476   C     0.34642   0.53258   0.56554   0.00000  Uiso   1.00
C477   C     0.30664   0.51264   0.57525   0.00000  Uiso   1.00
C478   C     0.34413   0.61539   0.50089   0.00000  Uiso   1.00
C479   C     0.37246   0.64276   0.53398   0.00000  Uiso   1.00
C480   C     0.34459   0.67321   0.52927   0.00000  Uiso   1.00
C481   C     0.35756   0.57217   0.43322   0.00000  Uiso   1.00
C482   C     0.39717   0.56321   0.40941   0.00000  Uiso   1.00
C483   C     0.38061   0.55729   0.34772   0.00000  Uiso   1.00
H484   H     0.22462   0.58751   0.40377   0.00000  Uiso   1.00
H485   H     0.19397   0.54086   0.46291   0.00000  Uiso   1.00
H486   H     0.22001   0.65103   0.43136   0.00000  Uiso   1.00
H487   H     0.24471   0.57149   0.30681   0.00000  Uiso   1.00
H488   H     0.18390   0.48785   0.54461   0.00000  Uiso   1.00
H489   H     0.73881   0.22014   0.47806   0.00000  Uiso   1.00
H490   H     0.29091   0.55243   0.21542   0.00000  Uiso   1.00
H491   H     0.40893   0.57750   0.52782   0.00000  Uiso   1.00
H492   H     0.38840   0.53030   0.59378   0.00000  Uiso   1.00
H493   H     0.41443   0.64047   0.56222   0.00000  Uiso   1.00
H494   H     0.43914   0.56093   0.43767   0.00000  Uiso   1.00
H495   H     0.34171   0.47928   0.65082   0.00000  Uiso   1.00
H496   H     0.39662   0.71158   0.58427   0.00000  Uiso   1.00
H497   H     0.44872   0.54386   0.32163   0.00000  Uiso   1.00
O498   O     0.24597   0.45271   0.63888   0.00000  Uiso   1.00
O499   O     0.81801   0.25747   0.55156   0.00000  Uiso   1.00
O500   O     0.38636   0.53743   0.20698   0.00000  Uiso   1.00
N501   N     0.22386   0.49231   0.56054   0.00000  Uiso   1.00
N502   N     0.27519   0.70949   0.49833   0.00000  Uiso   1.00
N503   N     0.32391   0.55270   0.25278   0.00000  Uiso   1.00
N504   N     0.30878   0.48770   0.61770   0.00000  Uiso   1.00
N505   N     0.36011   0.70488   0.55549   0.00000  Uiso   1.00
N506   N     0.40882   0.54809   0.30994   0.00000  Uiso   1.00
C507   C     0.47031   0.34684   0.52842   0.00000  Uiso   1.00
C508   C     0.50858   0.35310   0.59252   0.00000  Uiso   1.00
C509   C     0.55568   0.33517   0.62136   0.00000  Uiso   1.00
C510   C     0.58511   0.34478   0.68002   0.00000  Uiso   1.00
C511   C     0.64713   0.35045   0.77519   0.00000  Uiso   1.00
C512   C     0.41501   0.34030   0.53363   0.00000  Uiso   1.00
C513   C     0.38343   0.31160   0.51294   0.00000  Uiso   1.00
C514   C     0.33407   0.31044   0.52202   0.00000  Uiso   1.00
C515   C     0.75080   0.79623   0.52571   0.00000  Uiso   1.00
C516   C     0.46574   0.38068   0.49538   0.00000  Uiso   1.00
C517   C     0.47680   0.38594   0.44252   0.00000  Uiso   1.00
C518   C     0.47014   0.41878   0.41939   0.00000  Uiso   1.00
C519   C     0.46564   0.46727   0.36370   0.00000  Uiso   1.00
C520   C     0.43880   0.39581   0.58133   0.00000  Uiso   1.00
C521   C     0.49147   0.37970   0.62125   0.00000  Uiso   1.00
C522   C     0.52083   0.38934   0.67989   0.00000  Uiso   1.00
C523   C     0.56797   0.37143   0.70881   0.00000  Uiso   1.00
C524   C     0.39789   0.36689   0.56236   0.00000  Uiso   1.00
C525   C     0.34857   0.36577   0.57147   0.00000  Uiso   1.00
C526   C     0.31693   0.33708   0.55080   0.00000  Uiso   1.00
C527   C     0.44863   0.40728   0.52411   0.00000  Uiso   1.00
C528   C     0.44195   0.44011   0.50106   0.00000  Uiso   1.00
C529   C     0.45300   0.44542   0.44818   0.00000  Uiso   1.00
H530   H     0.48362   0.32614   0.50605   0.00000  Uiso   1.00
H531   H     0.56891   0.31459   0.59911   0.00000  Uiso   1.00
H532   H     0.39668   0.29102   0.49070   0.00000  Uiso   1.00
H533   H     0.49004   0.36535   0.42030   0.00000  Uiso   1.00
H534   H     0.65591   0.31350   0.71495   0.00000  Uiso   1.00
H535   H     0.29274   0.26382   0.48635   0.00000  Uiso   1.00
H536   H     0.48961   0.42056   0.33790   0.00000  Uiso   1.00
H537   H     0.42548   0.41652   0.60370   0.00000  Uiso   1.00
H538   H     0.50758   0.40993   0.70211   0.00000  Uiso   1.00
H539   H     0.33534   0.38636   0.59370   0.00000  Uiso   1.00
H540   H     0.42871   0.46069   0.52331   0.00000  Uiso   1.00
H541   H     0.60613   0.39088   0.79856   0.00000  Uiso   1.00
H542   H     0.74295   0.84120   0.56995   0.00000  Uiso   1.00
H543   H     0.43983   0.49794   0.42150   0.00000  Uiso   1.00
O544   O     0.68607   0.34622   0.81974   0.00000  Uiso   1.00
O545   O     0.70959   0.78105   0.51981   0.00000  Uiso   1.00
O546   O     0.46789   0.48668   0.32505   0.00000  Uiso   1.00
N547   N     0.63293   0.33262   0.72112   0.00000  Uiso   1.00
N548   N     0.29339   0.28617   0.50740   0.00000  Uiso   1.00
N549   N     0.47744   0.43271   0.36860   0.00000  Uiso   1.00
N550   N     0.60615   0.37426   0.76611   0.00000  Uiso   1.00
N551   N     0.26660   0.32781   0.55239   0.00000  Uiso   1.00
N552   N     0.45065   0.47434   0.41358   0.00000  Uiso   1.00
C553   C     0.30026   0.91555   0.28442   0.00000  Uiso   1.00
C554   C     0.24260   0.91948   0.28416   0.00000  Uiso   1.00
C555   C     0.21560   0.89666   0.30875   0.00000  Uiso   1.00
C556   C     0.16304   0.90487   0.30390   0.00000  Uiso   1.00
C557   C     0.07727   0.90642   0.30785   0.00000  Uiso   1.00
C558   C     0.33026   0.94750   0.31462   0.00000  Uiso   1.00
C559   C     0.37696   0.94823   0.36481   0.00000  Uiso   1.00
C560   C     0.39819   0.98002   0.38560   0.00000  Uiso   1.00
C561   C     0.44853   0.02507   0.43682   0.00000  Uiso   1.00
C562   C     0.29685   0.91748   0.21860   0.00000  Uiso   1.00
C563   C     0.31548   0.89297   0.18806   0.00000  Uiso   1.00
C564   C     0.30859   0.89950   0.12800   0.00000  Uiso   1.00
C565   C     0.30706   0.89794   0.03014   0.00000  Uiso   1.00
C566   C     0.25492   0.97072   0.23208   0.00000  Uiso   1.00
C567   C     0.21798   0.94945   0.25574   0.00000  Uiso   1.00
C568   C     0.16544   0.95770   0.25084   0.00000  Uiso   1.00
C569   C     0.13837   0.93489   0.27542   0.00000  Uiso   1.00
C570   C     0.30563   0.97746   0.28620   0.00000  Uiso   1.00
C571   C     0.32680   0.00927   0.30691   0.00000  Uiso   1.00
C572   C     0.37352   0.01004   0.35712   0.00000  Uiso   1.00
C573   C     0.27222   0.94744   0.19017   0.00000  Uiso   1.00
C574   C     0.26531   0.95401   0.13016   0.00000  Uiso   1.00
C575   C     0.28392   0.92952   0.09953   0.00000  Uiso   1.00
H576   H     0.31943   0.89222   0.30655   0.00000  Uiso   1.00
H577   H     0.23467   0.87347   0.33075   0.00000  Uiso   1.00
H578   H     0.39601   0.92503   0.38680   0.00000  Uiso   1.00
H579   H     0.33453   0.86978   0.21008   0.00000  Uiso   1.00
H580   H     0.12985   0.86590   0.34506   0.00000  Uiso   1.00
H581   H     0.47005   0.97462   0.46323   0.00000  Uiso   1.00
H582   H     0.34041   0.85813   0.09058   0.00000  Uiso   1.00
H583   H     0.23575   0.99405   0.20995   0.00000  Uiso   1.00
H584   H     0.14639   0.98089   0.22884   0.00000  Uiso   1.00
H585   H     0.30773   0.03245   0.28490   0.00000  Uiso   1.00
H586   H     0.24625   0.97720   0.10817   0.00000  Uiso   1.00
H587   H     0.05820   0.95309   0.26235   0.00000  Uiso   1.00
H588   H     0.39840   0.06181   0.38052   0.00000  Uiso   1.00
H589   H     0.26876   0.94531   0.00787   0.00000  Uiso   1.00
O590   O     0.03676   0.89901   0.31790   0.00000  Uiso   1.00
O591   O     0.48309   0.04164   0.47293   0.00000  Uiso   1.00
O592   O     0.31301   0.88880   0.98401   0.00000  Uiso   1.00
N593   N     0.12525   0.88822   0.32299   0.00000  Uiso   1.00
N594   N     0.44331   0.98987   0.43348   0.00000  Uiso   1.00
N595   N     0.32212   0.88096   0.08508   0.00000  Uiso   1.00
N596   N     0.08669   0.93514   0.27849   0.00000  Uiso   1.00
N597   N     0.40475   0.03679   0.38898   0.00000  Uiso   1.00
N598   N     0.28356   0.92787   0.04058   0.00000  Uiso   1.00
C599   C     0.76684   0.91478   0.93219   0.00000  Uiso   1.00
C600   C     0.77575   0.94152   0.98152   0.00000  Uiso   1.00
C601   C     0.73594   0.96143   0.99117   0.00000  Uiso   1.00
C602   C     0.75230   0.98441   0.03868   0.00000  Uiso   1.00
C603   C     0.75788   0.02547   0.10975   0.00000  Uiso   1.00
C604   C     0.78990   0.88166   0.96439   0.00000  Uiso   1.00
C605   C     0.76198   0.85124   0.95962   0.00000  Uiso   1.00
C606   C     0.79025   0.82384   0.99270   0.00000  Uiso   1.00
C607   C     0.31780   0.27196   0.03713   0.00000  Uiso   1.00
C608   C     0.80332   0.92488   0.89672   0.00000  Uiso   1.00
C609   C     0.78669   0.93079   0.83505   0.00000  Uiso   1.00
C610   C     0.82627   0.93977   0.81115   0.00000  Uiso   1.00
C611   C     0.87465   0.95499   0.75051   0.00000  Uiso   1.00
C612   C     0.86670   0.92020   0.99940   0.00000  Uiso   1.00
C613   C     0.82999   0.94446   0.01803   0.00000  Uiso   1.00
C614   C     0.84642   0.96742   0.06554   0.00000  Uiso   1.00
C615   C     0.80664   0.98736   0.07525   0.00000  Uiso   1.00
C616   C     0.84413   0.88461   0.00089   0.00000  Uiso   1.00
C617   C     0.87246   0.85724   0.03398   0.00000  Uiso   1.00
C618   C     0.84459   0.82679   0.02927   0.00000  Uiso   1.00
C619   C     0.85756   0.92783   0.93322   0.00000  Uiso   1.00
C620   C     0.89717   0.93679   0.90941   0.00000  Uiso   1.00
C621   C     0.88061   0.94271   0.84772   0.00000  Uiso   1.00
H622   H     0.72462   0.91249   0.90377   0.00000  Uiso   1.00
H623   H     0.69397   0.95914   0.96291   0.00000  Uiso   1.00
H624   H     0.72001   0.84897   0.93136   0.00000  Uiso   1.00
H625   H     0.74471   0.92851   0.80681   0.00000  Uiso   1.00
H626   H     0.68390   0.01215   0.04461   0.00000  Uiso   1.00
H627   H     0.23881   0.27986   0.97806   0.00000  Uiso   1.00
H628   H     0.79091   0.94757   0.71542   0.00000  Uiso   1.00
H629   H     0.90893   0.92250   0.02782   0.00000  Uiso   1.00
H630   H     0.88840   0.96970   0.09378   0.00000  Uiso   1.00
H631   H     0.91443   0.85953   0.06222   0.00000  Uiso   1.00
H632   H     0.93914   0.93907   0.93767   0.00000  Uiso   1.00
H633   H     0.84171   0.02072   0.15082   0.00000  Uiso   1.00
H634   H     0.89662   0.78842   0.08427   0.00000  Uiso   1.00
H635   H     0.94872   0.95614   0.82163   0.00000  Uiso   1.00
O636   O     0.74597   0.04729   0.13888   0.00000  Uiso   1.00
O637   O     0.31801   0.24253   0.05156   0.00000  Uiso   1.00
O638   O     0.88636   0.96257   0.70698   0.00000  Uiso   1.00
N639   N     0.72386   0.00769   0.06054   0.00000  Uiso   1.00
N640   N     0.77519   0.79051   0.99833   0.00000  Uiso   1.00
N641   N     0.82391   0.94730   0.75278   0.00000  Uiso   1.00
N642   N     0.80878   0.01230   0.11770   0.00000  Uiso   1.00
N643   N     0.86011   0.79512   0.05549   0.00000  Uiso   1.00
N644   N     0.90882   0.95191   0.80994   0.00000  Uiso   1.00
C645   C     0.97031   0.15316   0.02842   0.00000  Uiso   1.00
C646   C     0.00858   0.14690   0.09252   0.00000  Uiso   1.00
C647   C     0.05568   0.16483   0.12136   0.00000  Uiso   1.00
C648   C     0.08511   0.15522   0.18002   0.00000  Uiso   1.00
C649   C     0.14713   0.14955   0.27519   0.00000  Uiso   1.00
C650   C     0.91501   0.15970   0.03363   0.00000  Uiso   1.00
C651   C     0.88343   0.18840   0.01294   0.00000  Uiso   1.00
C652   C     0.83407   0.18956   0.02202   0.00000  Uiso   1.00
C653   C     0.25080   0.70377   0.02571   0.00000  Uiso   1.00
C654   C     0.96574   0.11932   0.99538   0.00000  Uiso   1.00
C655   C     0.97680   0.11406   0.94252   0.00000  Uiso   1.00
C656   C     0.97014   0.08122   0.91939   0.00000  Uiso   1.00
C657   C     0.96564   0.03273   0.86370   0.00000  Uiso   1.00
C658   C     0.93880   0.10419   0.08133   0.00000  Uiso   1.00
C659   C     0.99147   0.12030   0.12125   0.00000  Uiso   1.00
C660   C     0.02083   0.11066   0.17989   0.00000  Uiso   1.00
C661   C     0.06797   0.12857   0.20881   0.00000  Uiso   1.00
C662   C     0.89789   0.13311   0.06236   0.00000  Uiso   1.00
C663   C     0.84857   0.13423   0.07147   0.00000  Uiso   1.00
C664   C     0.81693   0.16292   0.05080   0.00000  Uiso   1.00
C665   C     0.94863   0.09272   0.02411   0.00000  Uiso   1.00
C666   C     0.94195   0.05989   0.00106   0.00000  Uiso   1.00
C667   C     0.95300   0.05458   0.94818   0.00000  Uiso   1.00
H668   H     0.98362   0.17386   0.00605   0.00000  Uiso   1.00
H669   H     0.06891   0.18541   0.09911   0.00000  Uiso   1.00
H670   H     0.89668   0.20898   0.99070   0.00000  Uiso   1.00
H671   H     0.99004   0.13465   0.92030   0.00000  Uiso   1.00
H672   H     0.15591   0.18650   0.21495   0.00000  Uiso   1.00
H673   H     0.79274   0.23618   0.98635   0.00000  Uiso   1.00
H674   H     0.98961   0.07944   0.83790   0.00000  Uiso   1.00
H675   H     0.92548   0.08348   0.10370   0.00000  Uiso   1.00
H676   H     0.00758   0.09007   0.20211   0.00000  Uiso   1.00
H677   H     0.83534   0.11364   0.09370   0.00000  Uiso   1.00
H678   H     0.92871   0.03931   0.02331   0.00000  Uiso   1.00
H679   H     0.10613   0.10912   0.29856   0.00000  Uiso   1.00
H680   H     0.24295   0.65880   0.06995   0.00000  Uiso   1.00
H681   H     0.93983   0.00206   0.92150   0.00000  Uiso   1.00
O682   O     0.18607   0.15378   0.31974   0.00000  Uiso   1.00
O683   O     0.20959   0.71895   0.01981   0.00000  Uiso   1.00
O684   O     0.96789   0.01332   0.82505   0.00000  Uiso   1.00
N685   N     0.13293   0.16738   0.22112   0.00000  Uiso   1.00
N686   N     0.79339   0.21383   0.00740   0.00000  Uiso   1.00
N687   N     0.97744   0.06729   0.86860   0.00000  Uiso   1.00
N688   N     0.10615   0.12574   0.26611   0.00000  Uiso   1.00
N689   N     0.76660   0.17219   0.05239   0.00000  Uiso   1.00
N690   N     0.95065   0.02566   0.91358   0.00000  Uiso   1.00
C691   C     0.80026   0.41555   0.28442   0.00000  Uiso   1.00
C692   C     0.74260   0.41948   0.28416   0.00000  Uiso   1.00
C693   C     0.71560   0.39666   0.30875   0.00000  Uiso   1.00
C694   C     0.66304   0.40487   0.30390   0.00000  Uiso   1.00
C695   C     0.57727   0.40642   0.30785   0.00000  Uiso   1.00
C696   C     0.83026   0.44750   0.31462   0.00000  Uiso   1.00
C697   C     0.87696   0.44823   0.36481   0.00000  Uiso   1.00
C698   C     0.89819   0.48002   0.38560   0.00000  Uiso   1.00
C699   C     0.94853   0.52507   0.43682   0.00000  Uiso   1.00
C700   C     0.79685   0.41748   0.21860   0.00000  Uiso   1.00
C701   C     0.81548   0.39297   0.18806   0.00000  Uiso   1.00
C702   C     0.80859   0.39950   0.12800   0.00000  Uiso   1.00
C703   C     0.80706   0.39794   0.03014   0.00000  Uiso   1.00
C704   C     0.75492   0.47072   0.23208   0.00000  Uiso   1.00
C705   C     0.71798   0.44945   0.25574   0.00000  Uiso   1.00
C706   C     0.66544   0.45770   0.25084   0.00000  Uiso   1.00
C707   C     0.63837   0.43489   0.27542   0.00000  Uiso   1.00
C708   C     0.80563   0.47746   0.28620   0.00000  Uiso   1.00
C709   C     0.82680   0.50927   0.30691   0.00000  Uiso   1.00
C710   C     0.87352   0.51004   0.35712   0.00000  Uiso   1.00
C711   C     0.77222   0.44744   0.19017   0.00000  Uiso   1.00
C712   C     0.76531   0.45401   0.13016   0.00000  Uiso   1.00
C713   C     0.78392   0.42952   0.09953   0.00000  Uiso   1.00
H714   H     0.81943   0.39222   0.30655   0.00000  Uiso   1.00
H715   H     0.73467   0.37347   0.33075   0.00000  Uiso   1.00
H716   H     0.89601   0.42503   0.38680   0.00000  Uiso   1.00
H717   H     0.83453   0.36978   0.21008   0.00000  Uiso   1.00
H718   H     0.62985   0.36590   0.34506   0.00000  Uiso   1.00
H719   H     0.97005   0.47462   0.46323   0.00000  Uiso   1.00
H720   H     0.84041   0.35813   0.09058   0.00000  Uiso   1.00
H721   H     0.73575   0.49405   0.20995   0.00000  Uiso   1.00
H722   H     0.64639   0.48089   0.22884   0.00000  Uiso   1.00
H723   H     0.80773   0.53245   0.28490   0.00000  Uiso   1.00
H724   H     0.74625   0.47720   0.10817   0.00000  Uiso   1.00
H725   H     0.55820   0.45309   0.26235   0.00000  Uiso   1.00
H726   H     0.89840   0.56181   0.38052   0.00000  Uiso   1.00
H727   H     0.76876   0.44531   0.00787   0.00000  Uiso   1.00
O728   O     0.53676   0.39901   0.31790   0.00000  Uiso   1.00
O729   O     0.98309   0.54164   0.47293   0.00000  Uiso   1.00
O730   O     0.81301   0.38880   0.98401   0.00000  Uiso   1.00
N731   N     0.62525   0.38822   0.32299   0.00000  Uiso   1.00
N732   N     0.94331   0.48987   0.43348   0.00000  Uiso   1.00
N733   N     0.82212   0.38096   0.08508   0.00000  Uiso   1.00
N734   N     0.58669   0.43514   0.27849   0.00000  Uiso   1.00
N735   N     0.90475   0.53679   0.38898   0.00000  Uiso   1.00
N736   N     0.78356   0.42787   0.04058   0.00000  Uiso   1.00
C737   C     0.26684   0.41478   0.93219   0.00000  Uiso   1.00
C738   C     0.27575   0.44152   0.98152   0.00000  Uiso   1.00
C739   C     0.23594   0.46143   0.99117   0.00000  Uiso   1.00
C740   C     0.25230   0.48441   0.03868   0.00000  Uiso   1.00
C741   C     0.25788   0.52547   0.10975   0.00000  Uiso   1.00
C742   C     0.28990   0.38166   0.96439   0.00000  Uiso   1.00
C743   C     0.26198   0.35124   0.95962   0.00000  Uiso   1.00
C744   C     0.29025   0.32384   0.99270   0.00000  Uiso   1.00
C745   C     0.81780   0.77196   0.03713   0.00000  Uiso   1.00
C746   C     0.30332   0.42488   0.89672   0.00000  Uiso   1.00
C747   C     0.28669   0.43079   0.83505   0.00000  Uiso   1.00
C748   C     0.32627   0.43977   0.81115   0.00000  Uiso   1.00
C749   C     0.37465   0.45499   0.75051   0.00000  Uiso   1.00
C750   C     0.36670   0.42020   0.99940   0.00000  Uiso   1.00
C751   C     0.32999   0.44446   0.01803   0.00000  Uiso   1.00
C752   C     0.34642   0.46742   0.06554   0.00000  Uiso   1.00
C753   C     0.30664   0.48736   0.07525   0.00000  Uiso   1.00
C754   C     0.34413   0.38461   0.00089   0.00000  Uiso   1.00
C755   C     0.37246   0.35724   0.03398   0.00000  Uiso   1.00
C756   C     0.34459   0.32679   0.02927   0.00000  Uiso   1.00
C757   C     0.35756   0.42783   0.93322   0.00000  Uiso   1.00
C758   C     0.39717   0.43679   0.90941   0.00000  Uiso   1.00
C759   C     0.38061   0.44271   0.84772   0.00000  Uiso   1.00
H760   H     0.22462   0.41249   0.90377   0.00000  Uiso   1.00
H761   H     0.19397   0.45914   0.96291   0.00000  Uiso   1.00
H762   H     0.22001   0.34897   0.93136   0.00000  Uiso   1.00
H763   H     0.24471   0.42851   0.80681   0.00000  Uiso   1.00
H764   H     0.18390   0.51215   0.04461   0.00000  Uiso   1.00
H765   H     0.73881   0.77986   0.97806   0.00000  Uiso   1.00
H766   H     0.29091   0.44757   0.71542   0.00000  Uiso   1.00
H767   H     0.40893   0.42250   0.02782   0.00000  Uiso   1.00
H768   H     0.38840   0.46970   0.09378   0.00000  Uiso   1.00
H769   H     0.41443   0.35953   0.06222   0.00000  Uiso   1.00
H770   H     0.43914   0.43907   0.93767   0.00000  Uiso   1.00
H771   H     0.34171   0.52072   0.15082   0.00000  Uiso   1.00
H772   H     0.39662   0.28842   0.08427   0.00000  Uiso   1.00
H773   H     0.44872   0.45614   0.82163   0.00000  Uiso   1.00
O774   O     0.24597   0.54729   0.13888   0.00000  Uiso   1.00
O775   O     0.81801   0.74253   0.05156   0.00000  Uiso   1.00
O776   O     0.38636   0.46257   0.70698   0.00000  Uiso   1.00
N777   N     0.22386   0.50769   0.06054   0.00000  Uiso   1.00
N778   N     0.27519   0.29051   0.99833   0.00000  Uiso   1.00
N779   N     0.32391   0.44730   0.75278   0.00000  Uiso   1.00
N780   N     0.30878   0.51230   0.11770   0.00000  Uiso   1.00
N781   N     0.36011   0.29512   0.05549   0.00000  Uiso   1.00
N782   N     0.40882   0.45191   0.80994   0.00000  Uiso   1.00
C783   C     0.47031   0.65316   0.02842   0.00000  Uiso   1.00
C784   C     0.50858   0.64690   0.09252   0.00000  Uiso   1.00
C785   C     0.55568   0.66483   0.12136   0.00000  Uiso   1.00
C786   C     0.58511   0.65522   0.18002   0.00000  Uiso   1.00
C787   C     0.64713   0.64955   0.27519   0.00000  Uiso   1.00
C788   C     0.41501   0.65970   0.03363   0.00000  Uiso   1.00
C789   C     0.38343   0.68840   0.01294   0.00000  Uiso   1.00
C790   C     0.33407   0.68956   0.02202   0.00000  Uiso   1.00
C791   C     0.75080   0.20377   0.02571   0.00000  Uiso   1.00
C792   C     0.46574   0.61932   0.99538   0.00000  Uiso   1.00
C793   C     0.47680   0.61406   0.94252   0.00000  Uiso   1.00
C794   C     0.47014   0.58122   0.91939   0.00000  Uiso   1.00
C795   C     0.46564   0.53273   0.86370   0.00000  Uiso   1.00
C796   C     0.43880   0.60419   0.08133   0.00000  Uiso   1.00
C797   C     0.49147   0.62030   0.12125   0.00000  Uiso   1.00
C798   C     0.52083   0.61066   0.17989   0.00000  Uiso   1.00
C799   C     0.56797   0.62857   0.20881   0.00000  Uiso   1.00
C800   C     0.39789   0.63311   0.06236   0.00000  Uiso   1.00
C801   C     0.34857   0.63423   0.07147   0.00000  Uiso   1.00
C802   C     0.31693   0.66292   0.05080   0.00000  Uiso   1.00
C803   C     0.44863   0.59272   0.02411   0.00000  Uiso   1.00
C804   C     0.44195   0.55989   0.00106   0.00000  Uiso   1.00
C805   C     0.45300   0.55458   0.94818   0.00000  Uiso   1.00
H806   H     0.48362   0.67386   0.00605   0.00000  Uiso   1.00
H807   H     0.56891   0.68541   0.09911   0.00000  Uiso   1.00
H808   H     0.39668   0.70898   0.99070   0.00000  Uiso   1.00
H809   H     0.49004   0.63465   0.92030   0.00000  Uiso   1.00
H810   H     0.65591   0.68650   0.21495   0.00000  Uiso   1.00
H811   H     0.29274   0.73618   0.98635   0.00000  Uiso   1.00
H812   H     0.48961   0.57944   0.83790   0.00000  Uiso   1.00
H813   H     0.42548   0.58348   0.10370   0.00000  Uiso   1.00
H814   H     0.50758   0.59007   0.20211   0.00000  Uiso   1.00
H815   H     0.33534   0.61364   0.09370   0.00000  Uiso   1.00
H816   H     0.42871   0.53931   0.02331   0.00000  Uiso   1.00
H817   H     0.60613   0.60912   0.29856   0.00000  Uiso   1.00
H818   H     0.74295   0.15880   0.06995   0.00000  Uiso   1.00
H819   H     0.43983   0.50206   0.92150   0.00000  Uiso   1.00
O820   O     0.68607   0.65378   0.31974   0.00000  Uiso   1.00
O821   O     0.70959   0.21895   0.01981   0.00000  Uiso   1.00
O822   O     0.46789   0.51332   0.82505   0.00000  Uiso   1.00
N823   N     0.63293   0.66738   0.22112   0.00000  Uiso   1.00
N824   N     0.29339   0.71383   0.00740   0.00000  Uiso   1.00
N825   N     0.47744   0.56729   0.86860   0.00000  Uiso   1.00
N826   N     0.60615   0.62574   0.26611   0.00000  Uiso   1.00
N827   N     0.26660   0.67219   0.05239   0.00000  Uiso   1.00
N828   N     0.45065   0.52566   0.91358   0.00000  Uiso   1.00
C829   C     0.69974   0.91555   0.21558   0.00000  Uiso   1.00
C830   C     0.75740   0.91948   0.21584   0.00000  Uiso   1.00
C831   C     0.78440   0.89666   0.19125   0.00000  Uiso   1.00
C832   C     0.83696   0.90487   0.19610   0.00000  Uiso   1.00
C833   C     0.92273   0.90642   0.19215   0.00000  Uiso   1.00
C834   C     0.66974   0.94750   0.18538   0.00000  Uiso   1.00
C835   C     0.62304   0.94823   0.13519   0.00000  Uiso   1.00
C836   C     0.60181   0.98002   0.11440   0.00000  Uiso   1.00
C837   C     0.55147   0.02507   0.06318   0.00000  Uiso   1.00
C838   C     0.70315   0.91748   0.28140   0.00000  Uiso   1.00
C839   C     0.68452   0.89297   0.31194   0.00000  Uiso   1.00
C840   C     0.69141   0.89950   0.37200   0.00000  Uiso   1.00
C841   C     0.69294   0.89794   0.46986   0.00000  Uiso   1.00
C842   C     0.74508   0.97072   0.26792   0.00000  Uiso   1.00
C843   C     0.78202   0.94945   0.24426   0.00000  Uiso   1.00
C844   C     0.83456   0.95770   0.24916   0.00000  Uiso   1.00
C845   C     0.86163   0.93489   0.22458   0.00000  Uiso   1.00
C846   C     0.69437   0.97746   0.21380   0.00000  Uiso   1.00
C847   C     0.67320   0.00927   0.19309   0.00000  Uiso   1.00
C848   C     0.62648   0.01004   0.14288   0.00000  Uiso   1.00
C849   C     0.72778   0.94744   0.30983   0.00000  Uiso   1.00
C850   C     0.73469   0.95401   0.36984   0.00000  Uiso   1.00
C851   C     0.71608   0.92952   0.40047   0.00000  Uiso   1.00
H852   H     0.68057   0.89222   0.19345   0.00000  Uiso   1.00
H853   H     0.76533   0.87347   0.16925   0.00000  Uiso   1.00
H854   H     0.60399   0.92503   0.11320   0.00000  Uiso   1.00
H855   H     0.66547   0.86978   0.28992   0.00000  Uiso   1.00
H856   H     0.87015   0.86590   0.15494   0.00000  Uiso   1.00
H857   H     0.52995   0.97462   0.03677   0.00000  Uiso   1.00
H858   H     0.65959   0.85813   0.40942   0.00000  Uiso   1.00
H859   H     0.76425   0.99405   0.29005   0.00000  Uiso   1.00
H860   H     0.85361   0.98089   0.27116   0.00000  Uiso   1.00
H861   H     0.69227   0.03245   0.21510   0.00000  Uiso   1.00
H862   H     0.75375   0.97720   0.39183   0.00000  Uiso   1.00
H863   H     0.94180   0.95309   0.23765   0.00000  Uiso   1.00
H864   H     0.60160   0.06181   0.11948   0.00000  Uiso   1.00
H865   H     0.73124   0.94531   0.49213   0.00000  Uiso   1.00
O866   O     0.96324   0.89901   0.18210   0.00000  Uiso   1.00
O867   O     0.51691   0.04164   0.02707   0.00000  Uiso   1.00
O868   O     0.68699   0.88880   0.51599   0.00000  Uiso   1.00
N869   N     0.87475   0.88822   0.17701   0.00000  Uiso   1.00
N870   N     0.55669   0.98987   0.06652   0.00000  Uiso   1.00
N871   N     0.67788   0.88096   0.41492   0.00000  Uiso   1.00
N872   N     0.91331   0.93514   0.22151   0.00000  Uiso   1.00
N873   N     0.59525   0.03679   0.11102   0.00000  Uiso   1.00
N874   N     0.71644   0.92787   0.45942   0.00000  Uiso   1.00
C875   C     0.23316   0.91478   0.56781   0.00000  Uiso   1.00
C876   C     0.22425   0.94152   0.51848   0.00000  Uiso   1.00
C877   C     0.26406   0.96143   0.50883   0.00000  Uiso   1.00
C878   C     0.24770   0.98441   0.46132   0.00000  Uiso   1.00
C879   C     0.24212   0.02547   0.39025   0.00000  Uiso   1.00
C880   C     0.21010   0.88166   0.53561   0.00000  Uiso   1.00
C881   C     0.23802   0.85124   0.54038   0.00000  Uiso   1.00
C882   C     0.20975   0.82384   0.50730   0.00000  Uiso   1.00
C883   C     0.68220   0.27196   0.46287   0.00000  Uiso   1.00
C884   C     0.19668   0.92488   0.60328   0.00000  Uiso   1.00
C885   C     0.21331   0.93079   0.66495   0.00000  Uiso   1.00
C886   C     0.17373   0.93977   0.68885   0.00000  Uiso   1.00
C887   C     0.12535   0.95499   0.74949   0.00000  Uiso   1.00
C888   C     0.13330   0.92020   0.50060   0.00000  Uiso   1.00
C889   C     0.17001   0.94446   0.48197   0.00000  Uiso   1.00
C890   C     0.15358   0.96742   0.43446   0.00000  Uiso   1.00
C891   C     0.19336   0.98736   0.42475   0.00000  Uiso   1.00
C892   C     0.15587   0.88461   0.49911   0.00000  Uiso   1.00
C893   C     0.12754   0.85724   0.46602   0.00000  Uiso   1.00
C894   C     0.15541   0.82679   0.47073   0.00000  Uiso   1.00
C895   C     0.14244   0.92783   0.56678   0.00000  Uiso   1.00
C896   C     0.10283   0.93679   0.59059   0.00000  Uiso   1.00
C897   C     0.11939   0.94271   0.65228   0.00000  Uiso   1.00
H898   H     0.27538   0.91249   0.59623   0.00000  Uiso   1.00
H899   H     0.30603   0.95914   0.53709   0.00000  Uiso   1.00
H900   H     0.27999   0.84897   0.56864   0.00000  Uiso   1.00
H901   H     0.25529   0.92851   0.69319   0.00000  Uiso   1.00
H902   H     0.31610   0.01215   0.45539   0.00000  Uiso   1.00
H903   H     0.76119   0.27986   0.52194   0.00000  Uiso   1.00
H904   H     0.20909   0.94757   0.78458   0.00000  Uiso   1.00
H905   H     0.09107   0.92250   0.47218   0.00000  Uiso   1.00
H906   H     0.11160   0.96970   0.40622   0.00000  Uiso   1.00
H907   H     0.08557   0.85953   0.43778   0.00000  Uiso   1.00
H908   H     0.06086   0.93907   0.56233   0.00000  Uiso   1.00
H909   H     0.15829   0.02072   0.34918   0.00000  Uiso   1.00
H910   H     0.10338   0.78842   0.41573   0.00000  Uiso   1.00
H911   H     0.05128   0.95614   0.67837   0.00000  Uiso   1.00
O912   O     0.25403   0.04729   0.36112   0.00000  Uiso   1.00
O913   O     0.68199   0.24253   0.44844   0.00000  Uiso   1.00
O914   O     0.11364   0.96257   0.79302   0.00000  Uiso   1.00
N915   N     0.27614   0.00769   0.43946   0.00000  Uiso   1.00
N916   N     0.22481   0.79051   0.50167   0.00000  Uiso   1.00
N917   N     0.17609   0.94730   0.74722   0.00000  Uiso   1.00
N918   N     0.19122   0.01230   0.38230   0.00000  Uiso   1.00
N919   N     0.13989   0.79512   0.44451   0.00000  Uiso   1.00
N920   N     0.09118   0.95191   0.69006   0.00000  Uiso   1.00
C921   C     0.02969   0.15316   0.47158   0.00000  Uiso   1.00
C922   C     0.99142   0.14690   0.40748   0.00000  Uiso   1.00
C923   C     0.94432   0.16483   0.37864   0.00000  Uiso   1.00
C924   C     0.91489   0.15522   0.31998   0.00000  Uiso   1.00
C925   C     0.85287   0.14955   0.22481   0.00000  Uiso   1.00
C926   C     0.08499   0.15970   0.46637   0.00000  Uiso   1.00
C927   C     0.11657   0.18840   0.48706   0.00000  Uiso   1.00
C928   C     0.16593   0.18956   0.47798   0.00000  Uiso   1.00
C929   C     0.74920   0.70377   0.47429   0.00000  Uiso   1.00
C930   C     0.03426   0.11932   0.50462   0.00000  Uiso   1.00
C931   C     0.02320   0.11406   0.55748   0.00000  Uiso   1.00
C932   C     0.02986   0.08122   0.58061   0.00000  Uiso   1.00
C933   C     0.03436   0.03273   0.63630   0.00000  Uiso   1.00
C934   C     0.06120   0.10419   0.41867   0.00000  Uiso   1.00
C935   C     0.00853   0.12030   0.37875   0.00000  Uiso   1.00
C936   C     0.97917   0.11066   0.32011   0.00000  Uiso   1.00
C937   C     0.93203   0.12857   0.29119   0.00000  Uiso   1.00
C938   C     0.10211   0.13311   0.43764   0.00000  Uiso   1.00
C939   C     0.15143   0.13423   0.42853   0.00000  Uiso   1.00
C940   C     0.18307   0.16292   0.44920   0.00000  Uiso   1.00
C941   C     0.05137   0.09272   0.47589   0.00000  Uiso   1.00
C942   C     0.05805   0.05989   0.49894   0.00000  Uiso   1.00
C943   C     0.04700   0.05458   0.55182   0.00000  Uiso   1.00
H944   H     0.01638   0.17386   0.49395   0.00000  Uiso   1.00
H945   H     0.93109   0.18541   0.40089   0.00000  Uiso   1.00
H946   H     0.10332   0.20898   0.50930   0.00000  Uiso   1.00
H947   H     0.00996   0.13465   0.57970   0.00000  Uiso   1.00
H948   H     0.84409   0.18650   0.28505   0.00000  Uiso   1.00
H949   H     0.20726   0.23618   0.51365   0.00000  Uiso   1.00
H950   H     0.01039   0.07944   0.66210   0.00000  Uiso   1.00
H951   H     0.07452   0.08348   0.39630   0.00000  Uiso   1.00
H952   H     0.99242   0.09007   0.29789   0.00000  Uiso   1.00
H953   H     0.16466   0.11364   0.40630   0.00000  Uiso   1.00
H954   H     0.07129   0.03931   0.47669   0.00000  Uiso   1.00
H955   H     0.89387   0.10912   0.20144   0.00000  Uiso   1.00
H956   H     0.75705   0.65880   0.43005   0.00000  Uiso   1.00
H957   H     0.06017   0.00206   0.57850   0.00000  Uiso   1.00
O958   O     0.81393   0.15378   0.18026   0.00000  Uiso   1.00
O959   O     0.79041   0.71895   0.48019   0.00000  Uiso   1.00
O960   O     0.03211   0.01332   0.67495   0.00000  Uiso   1.00
N961   N     0.86707   0.16738   0.27888   0.00000  Uiso   1.00
N962   N     0.20661   0.21383   0.49260   0.00000  Uiso   1.00
N963   N     0.02256   0.06729   0.63140   0.00000  Uiso   1.00
N964   N     0.89385   0.12574   0.23389   0.00000  Uiso   1.00
N965   N     0.23340   0.17219   0.44761   0.00000  Uiso   1.00
N966   N     0.04935   0.02566   0.58642   0.00000  Uiso   1.00
C967   C     0.19974   0.41555   0.21558   0.00000  Uiso   1.00
C968   C     0.25740   0.41948   0.21584   0.00000  Uiso   1.00
C969   C     0.28440   0.39666   0.19125   0.00000  Uiso   1.00
C970   C     0.33696   0.40487   0.19610   0.00000  Uiso   1.00
C971   C     0.42273   0.40642   0.19215   0.00000  Uiso   1.00
C972   C     0.16974   0.44750   0.18538   0.00000  Uiso   1.00
C973   C     0.12304   0.44823   0.13519   0.00000  Uiso   1.00
C974   C     0.10181   0.48002   0.11440   0.00000  Uiso   1.00
C975   C     0.05147   0.52507   0.06318   0.00000  Uiso   1.00
C976   C     0.20315   0.41748   0.28140   0.00000  Uiso   1.00
C977   C     0.18452   0.39297   0.31194   0.00000  Uiso   1.00
C978   C     0.19141   0.39950   0.37200   0.00000  Uiso   1.00
C979   C     0.19294   0.39794   0.46986   0.00000  Uiso   1.00
C980   C     0.24508   0.47072   0.26792   0.00000  Uiso   1.00
C981   C     0.28202   0.44945   0.24426   0.00000  Uiso   1.00
C982   C     0.33456   0.45770   0.24916   0.00000  Uiso   1.00
C983   C     0.36163   0.43489   0.22458   0.00000  Uiso   1.00
C984   C     0.19437   0.47746   0.21380   0.00000  Uiso   1.00
C985   C     0.17320   0.50927   0.19309   0.00000  Uiso   1.00
C986   C     0.12648   0.51004   0.14288   0.00000  Uiso   1.00
C987   C     0.22778   0.44744   0.30983   0.00000  Uiso   1.00
C988   C     0.23469   0.45401   0.36984   0.00000  Uiso   1.00
C989   C     0.21608   0.42952   0.40047   0.00000  Uiso   1.00
H990   H     0.18057   0.39222   0.19345   0.00000  Uiso   1.00
H991   H     0.26533   0.37347   0.16925   0.00000  Uiso   1.00
H992   H     0.10399   0.42503   0.11320   0.00000  Uiso   1.00
H993   H     0.16547   0.36978   0.28992   0.00000  Uiso   1.00
H994   H     0.37015   0.36590   0.15494   0.00000  Uiso   1.00
H995   H     0.02995   0.47462   0.03677   0.00000  Uiso   1.00
H996   H     0.15959   0.35813   0.40942   0.00000  Uiso   1.00
H997   H     0.26425   0.49405   0.29005   0.00000  Uiso   1.00
H998   H     0.35361   0.48089   0.27116   0.00000  Uiso   1.00
H999   H     0.19227   0.53245   0.21510   0.00000  Uiso   1.00
H1000  H     0.25375   0.47720   0.39183   0.00000  Uiso   1.00
H1001  H     0.44180   0.45309   0.23765   0.00000  Uiso   1.00
H1002  H     0.10160   0.56181   0.11948   0.00000  Uiso   1.00
H1003  H     0.23124   0.44531   0.49213   0.00000  Uiso   1.00
O1004  O     0.46324   0.39901   0.18210   0.00000  Uiso   1.00
O1005  O     0.01691   0.54164   0.02707   0.00000  Uiso   1.00
O1006  O     0.18699   0.38880   0.51599   0.00000  Uiso   1.00
N1007  N     0.37475   0.38822   0.17701   0.00000  Uiso   1.00
N1008  N     0.05669   0.48987   0.06652   0.00000  Uiso   1.00
N1009  N     0.17788   0.38096   0.41492   0.00000  Uiso   1.00
N1010  N     0.41331   0.43514   0.22151   0.00000  Uiso   1.00
N1011  N     0.09525   0.53679   0.11102   0.00000  Uiso   1.00
N1012  N     0.21644   0.42787   0.45942   0.00000  Uiso   1.00
C1013  C     0.73316   0.41478   0.56781   0.00000  Uiso   1.00
C1014  C     0.72425   0.44152   0.51848   0.00000  Uiso   1.00
C1015  C     0.76406   0.46143   0.50883   0.00000  Uiso   1.00
C1016  C     0.74770   0.48441   0.46132   0.00000  Uiso   1.00
C1017  C     0.74212   0.52547   0.39025   0.00000  Uiso   1.00
C1018  C     0.71010   0.38166   0.53561   0.00000  Uiso   1.00
C1019  C     0.73802   0.35124   0.54038   0.00000  Uiso   1.00
C1020  C     0.70975   0.32384   0.50730   0.00000  Uiso   1.00
C1021  C     0.18220   0.77196   0.46287   0.00000  Uiso   1.00
C1022  C     0.69668   0.42488   0.60328   0.00000  Uiso   1.00
C1023  C     0.71331   0.43079   0.66495   0.00000  Uiso   1.00
C1024  C     0.67373   0.43977   0.68885   0.00000  Uiso   1.00
C1025  C     0.62535   0.45499   0.74949   0.00000  Uiso   1.00
C1026  C     0.63330   0.42020   0.50060   0.00000  Uiso   1.00
C1027  C     0.67001   0.44446   0.48197   0.00000  Uiso   1.00
C1028  C     0.65358   0.46742   0.43446   0.00000  Uiso   1.00
C1029  C     0.69336   0.48736   0.42475   0.00000  Uiso   1.00
C1030  C     0.65587   0.38461   0.49911   0.00000  Uiso   1.00
C1031  C     0.62754   0.35724   0.46602   0.00000  Uiso   1.00
C1032  C     0.65541   0.32679   0.47073   0.00000  Uiso   1.00
C1033  C     0.64244   0.42783   0.56678   0.00000  Uiso   1.00
C1034  C     0.60283   0.43679   0.59059   0.00000  Uiso   1.00
C1035  C     0.61939   0.44271   0.65228   0.00000  Uiso   1.00
H1036  H     0.77538   0.41249   0.59623   0.00000  Uiso   1.00
H1037  H     0.80603   0.45914   0.53709   0.00000  Uiso   1.00
H1038  H     0.77999   0.34897   0.56864   0.00000  Uiso   1.00
H1039  H     0.75529   0.42851   0.69319   0.00000  Uiso   1.00
H1040  H     0.81610   0.51215   0.45539   0.00000  Uiso   1.00
H1041  H     0.26119   0.77986   0.52194   0.00000  Uiso   1.00
H1042  H     0.70909   0.44757   0.78458   0.00000  Uiso   1.00
H1043  H     0.59107   0.42250   0.47218   0.00000  Uiso   1.00
H1044  H     0.61160   0.46970   0.40622   0.00000  Uiso   1.00
H1045  H     0.58557   0.35953   0.43778   0.00000  Uiso   1.00
H1046  H     0.56086   0.43907   0.56233   0.00000  Uiso   1.00
H1047  H     0.65829   0.52072   0.34918   0.00000  Uiso   1.00
H1048  H     0.60338   0.28842   0.41573   0.00000  Uiso   1.00
H1049  H     0.55128   0.45614   0.67837   0.00000  Uiso   1.00
O1050  O     0.75403   0.54729   0.36112   0.00000  Uiso   1.00
O1051  O     0.18199   0.74253   0.44844   0.00000  Uiso   1.00
O1052  O     0.61364   0.46257   0.79302   0.00000  Uiso   1.00
N1053  N     0.77614   0.50769   0.43946   0.00000  Uiso   1.00
N1054  N     0.72481   0.29051   0.50167   0.00000  Uiso   1.00
N1055  N     0.67609   0.44730   0.74722   0.00000  Uiso   1.00
N1056  N     0.69122   0.51230   0.38230   0.00000  Uiso   1.00
N1057  N     0.63989   0.29512   0.44451   0.00000  Uiso   1.00
N1058  N     0.59118   0.45191   0.69006   0.00000  Uiso   1.00
C1059  C     0.52969   0.65316   0.47158   0.00000  Uiso   1.00
C1060  C     0.49142   0.64690   0.40748   0.00000  Uiso   1.00
C1061  C     0.44432   0.66483   0.37864   0.00000  Uiso   1.00
C1062  C     0.41489   0.65522   0.31998   0.00000  Uiso   1.00
C1063  C     0.35287   0.64955   0.22481   0.00000  Uiso   1.00
C1064  C     0.58499   0.65970   0.46637   0.00000  Uiso   1.00
C1065  C     0.61657   0.68840   0.48706   0.00000  Uiso   1.00
C1066  C     0.66593   0.68956   0.47798   0.00000  Uiso   1.00
C1067  C     0.24920   0.20377   0.47429   0.00000  Uiso   1.00
C1068  C     0.53426   0.61932   0.50462   0.00000  Uiso   1.00
C1069  C     0.52320   0.61406   0.55748   0.00000  Uiso   1.00
C1070  C     0.52986   0.58122   0.58061   0.00000  Uiso   1.00
C1071  C     0.53436   0.53273   0.63630   0.00000  Uiso   1.00
C1072  C     0.56120   0.60419   0.41867   0.00000  Uiso   1.00
C1073  C     0.50853   0.62030   0.37875   0.00000  Uiso   1.00
C1074  C     0.47917   0.61066   0.32011   0.00000  Uiso   1.00
C1075  C     0.43203   0.62857   0.29119   0.00000  Uiso   1.00
C1076  C     0.60211   0.63311   0.43764   0.00000  Uiso   1.00
C1077  C     0.65143   0.63423   0.42853   0.00000  Uiso   1.00
C1078  C     0.68307   0.66292   0.44920   0.00000  Uiso   1.00
C1079  C     0.55137   0.59272   0.47589   0.00000  Uiso   1.00
C1080  C     0.55805   0.55989   0.49894   0.00000  Uiso   1.00
C1081  C     0.54700   0.55458   0.55182   0.00000  Uiso   1.00
H1082  H     0.51638   0.67386   0.49395   0.00000  Uiso   1.00
H1083  H     0.43109   0.68541   0.40089   0.00000  Uiso   1.00
H1084  H     0.60332   0.70898   0.50930   0.00000  Uiso   1.00
H1085  H     0.50996   0.63465   0.57970   0.00000  Uiso   1.00
H1086  H     0.34409   0.68650   0.28505   0.00000  Uiso   1.00
H1087  H     0.70726   0.73618   0.51365   0.00000  Uiso   1.00
H1088  H     0.51039   0.57944   0.66210   0.00000  Uiso   1.00
H1089  H     0.57452   0.58348   0.39630   0.00000  Uiso   1.00
H1090  H     0.49242   0.59007   0.29789   0.00000  Uiso   1.00
H1091  H     0.66466   0.61364   0.40630   0.00000  Uiso   1.00
H1092  H     0.57129   0.53931   0.47669   0.00000  Uiso   1.00
H1093  H     0.39387   0.60912   0.20144   0.00000  Uiso   1.00
H1094  H     0.25705   0.15880   0.43005   0.00000  Uiso   1.00
H1095  H     0.56017   0.50206   0.57850   0.00000  Uiso   1.00
O1096  O     0.31393   0.65378   0.18026   0.00000  Uiso   1.00
O1097  O     0.29041   0.21895   0.48019   0.00000  Uiso   1.00
O1098  O     0.53211   0.51332   0.67495   0.00000  Uiso   1.00
N1099  N     0.36707   0.66738   0.27888   0.00000  Uiso   1.00
N1100  N     0.70661   0.71383   0.49260   0.00000  Uiso   1.00
N1101  N     0.52256   0.56729   0.63140   0.00000  Uiso   1.00
N1102  N     0.39385   0.62574   0.23389   0.00000  Uiso   1.00
N1103  N     0.73340   0.67219   0.44761   0.00000  Uiso   1.00
N1104  N     0.54935   0.52566   0.58642   0.00000  Uiso   1.00
