data_job_01210
_audit_creation_date              2018-12-19
_audit_creation_method            'Materials Studio'
_symmetry_space_group_name_H-M    'P1'
_symmetry_Int_Tables_number       1
_symmetry_cell_setting            triclinic
loop_
_symmetry_equiv_pos_as_xyz
  x,y,z
_cell_length_a                    23.6417
_cell_length_b                    41.5659
_cell_length_c                    14.2772
_cell_angle_alpha                 90.0000
_cell_angle_beta                  90.0000
_cell_angle_gamma                 90.0000
loop_
_atom_site_label
_atom_site_type_symbol
_atom_site_fract_x
_atom_site_fract_y
_atom_site_fract_z
_atom_site_U_iso_or_equiv
_atom_site_adp_type
_atom_site_occupancy
C1     C     0.33872   0.34197   0.46133   0.00000  Uiso   1.00
C2     C     0.28637   0.32061   0.45625   0.00000  Uiso   1.00
C3     C     0.26144   0.30478   0.53122   0.00000  Uiso   1.00
C4     C     0.21380   0.28639   0.51209   0.00000  Uiso   1.00
C5     C     0.13586   0.25359   0.51801   0.00000  Uiso   1.00
C6     C     0.38103   0.32777   0.39211   0.00000  Uiso   1.00
C7     C     0.43569   0.31797   0.41315   0.00000  Uiso   1.00
C8     C     0.46773   0.30562   0.34002   0.00000  Uiso   1.00
C9     C     0.53676   0.28395   0.24635   0.00000  Uiso   1.00
C10    C     0.32116   0.37444   0.42097   0.00000  Uiso   1.00
C11    C     0.32550   0.40387   0.46628   0.00000  Uiso   1.00
C12    C     0.30715   0.43081   0.41744   0.00000  Uiso   1.00
C13    C     0.28322   0.48159   0.36859   0.00000  Uiso   1.00
C14    C     0.29844   0.33746   0.29403   0.00000  Uiso   1.00
C15    C     0.26449   0.31816   0.36537   0.00000  Uiso   1.00
C16    C     0.21687   0.29979   0.34612   0.00000  Uiso   1.00
C17    C     0.19187   0.28394   0.42105   0.00000  Uiso   1.00
C18    C     0.35915   0.32532   0.30124   0.00000  Uiso   1.00
C19    C     0.39112   0.31298   0.22805   0.00000  Uiso   1.00
C20    C     0.44581   0.30316   0.24898   0.00000  Uiso   1.00
C21    C     0.29928   0.37199   0.33010   0.00000  Uiso   1.00
C22    C     0.28092   0.39888   0.28118   0.00000  Uiso   1.00
C23    C     0.28523   0.42835   0.32640   0.00000  Uiso   1.00
H24    H     0.35576   0.34388   0.53207   0.00000  Uiso   1.00
H25    H     0.27839   0.30668   0.60153   0.00000  Uiso   1.00
H26    H     0.45261   0.31988   0.48348   0.00000  Uiso   1.00
H27    H     0.34243   0.40576   0.53660   0.00000  Uiso   1.00
H28    H     0.18298   0.26435   0.63846   0.00000  Uiso   1.00
H29    H     0.55034   0.29218   0.38953   0.00000  Uiso   1.00
H30    H     0.31801   0.47329   0.50155   0.00000  Uiso   1.00
H31    H     0.28140   0.33555   0.22327   0.00000  Uiso   1.00
H32    H     0.19995   0.29790   0.27579   0.00000  Uiso   1.00
H33    H     0.37417   0.31109   0.15774   0.00000  Uiso   1.00
H34    H     0.26399   0.39698   0.21086   0.00000  Uiso   1.00
H35    H     0.11931   0.25722   0.37408   0.00000  Uiso   1.00
H36    H     0.48668   0.28505   0.12515   0.00000  Uiso   1.00
H37    H     0.25434   0.46616   0.23716   0.00000  Uiso   1.00
O38    O     0.09891   0.23616   0.54639   0.00000  Uiso   1.00
O39    O     0.58088   0.27268   0.21980   0.00000  Uiso   1.00
O40    O     0.27607   0.51028   0.36676   0.00000  Uiso   1.00
N41    N     0.17916   0.26785   0.56904   0.00000  Uiso   1.00
N42    N     0.52262   0.29386   0.33631   0.00000  Uiso   1.00
N43    N     0.30543   0.46318   0.44102   0.00000  Uiso   1.00
N44    N     0.14491   0.26401   0.42677   0.00000  Uiso   1.00
N45    N     0.48837   0.29002   0.19404   0.00000  Uiso   1.00
N46    N     0.27117   0.45934   0.29876   0.00000  Uiso   1.00
C47    C     0.83872   0.84197   0.46133   0.00000  Uiso   1.00
C48    C     0.78637   0.82061   0.45625   0.00000  Uiso   1.00
C49    C     0.76144   0.80478   0.53122   0.00000  Uiso   1.00
C50    C     0.71380   0.78639   0.51209   0.00000  Uiso   1.00
C51    C     0.63586   0.75359   0.51801   0.00000  Uiso   1.00
C52    C     0.88103   0.82777   0.39211   0.00000  Uiso   1.00
C53    C     0.93569   0.81797   0.41315   0.00000  Uiso   1.00
C54    C     0.96773   0.80562   0.34002   0.00000  Uiso   1.00
C55    C     0.03676   0.78395   0.24635   0.00000  Uiso   1.00
C56    C     0.82116   0.87444   0.42097   0.00000  Uiso   1.00
C57    C     0.82550   0.90387   0.46628   0.00000  Uiso   1.00
C58    C     0.80715   0.93081   0.41744   0.00000  Uiso   1.00
C59    C     0.78322   0.98159   0.36859   0.00000  Uiso   1.00
C60    C     0.79844   0.83746   0.29403   0.00000  Uiso   1.00
C61    C     0.76449   0.81816   0.36537   0.00000  Uiso   1.00
C62    C     0.71687   0.79979   0.34612   0.00000  Uiso   1.00
C63    C     0.69187   0.78394   0.42105   0.00000  Uiso   1.00
C64    C     0.85915   0.82532   0.30124   0.00000  Uiso   1.00
C65    C     0.89112   0.81298   0.22805   0.00000  Uiso   1.00
C66    C     0.94581   0.80316   0.24898   0.00000  Uiso   1.00
C67    C     0.79928   0.87199   0.33010   0.00000  Uiso   1.00
C68    C     0.78092   0.89888   0.28118   0.00000  Uiso   1.00
C69    C     0.78523   0.92835   0.32640   0.00000  Uiso   1.00
H70    H     0.85576   0.84388   0.53207   0.00000  Uiso   1.00
H71    H     0.77839   0.80668   0.60153   0.00000  Uiso   1.00
H72    H     0.95261   0.81988   0.48348   0.00000  Uiso   1.00
H73    H     0.84243   0.90576   0.53660   0.00000  Uiso   1.00
H74    H     0.68298   0.76435   0.63846   0.00000  Uiso   1.00
H75    H     0.05034   0.79218   0.38953   0.00000  Uiso   1.00
H76    H     0.81801   0.97329   0.50155   0.00000  Uiso   1.00
H77    H     0.78140   0.83555   0.22327   0.00000  Uiso   1.00
H78    H     0.69995   0.79790   0.27579   0.00000  Uiso   1.00
H79    H     0.87417   0.81109   0.15774   0.00000  Uiso   1.00
H80    H     0.76399   0.89698   0.21086   0.00000  Uiso   1.00
H81    H     0.61931   0.75722   0.37408   0.00000  Uiso   1.00
H82    H     0.98668   0.78505   0.12515   0.00000  Uiso   1.00
H83    H     0.75434   0.96616   0.23716   0.00000  Uiso   1.00
O84    O     0.59891   0.73616   0.54639   0.00000  Uiso   1.00
O85    O     0.08088   0.77268   0.21980   0.00000  Uiso   1.00
O86    O     0.77607   0.01028   0.36676   0.00000  Uiso   1.00
N87    N     0.67916   0.76785   0.56904   0.00000  Uiso   1.00
N88    N     0.02262   0.79386   0.33631   0.00000  Uiso   1.00
N89    N     0.80543   0.96318   0.44102   0.00000  Uiso   1.00
N90    N     0.64491   0.76401   0.42677   0.00000  Uiso   1.00
N91    N     0.98837   0.79002   0.19404   0.00000  Uiso   1.00
N92    N     0.77117   0.95934   0.29876   0.00000  Uiso   1.00
C93    C     0.16128   0.15803   0.46133   0.00000  Uiso   1.00
C94    C     0.21363   0.17939   0.45625   0.00000  Uiso   1.00
C95    C     0.23856   0.19522   0.53122   0.00000  Uiso   1.00
C96    C     0.28620   0.21361   0.51209   0.00000  Uiso   1.00
C97    C     0.36414   0.24641   0.51801   0.00000  Uiso   1.00
C98    C     0.11897   0.17223   0.39211   0.00000  Uiso   1.00
C99    C     0.06431   0.18203   0.41315   0.00000  Uiso   1.00
C100   C     0.03227   0.19438   0.34002   0.00000  Uiso   1.00
C101   C     0.96324   0.21605   0.24635   0.00000  Uiso   1.00
C102   C     0.17884   0.12556   0.42097   0.00000  Uiso   1.00
C103   C     0.17450   0.09613   0.46628   0.00000  Uiso   1.00
C104   C     0.19285   0.06919   0.41744   0.00000  Uiso   1.00
C105   C     0.21678   0.01841   0.36859   0.00000  Uiso   1.00
C106   C     0.20156   0.16254   0.29403   0.00000  Uiso   1.00
C107   C     0.23551   0.18184   0.36537   0.00000  Uiso   1.00
C108   C     0.28313   0.20021   0.34612   0.00000  Uiso   1.00
C109   C     0.30813   0.21606   0.42105   0.00000  Uiso   1.00
C110   C     0.14085   0.17468   0.30124   0.00000  Uiso   1.00
C111   C     0.10888   0.18702   0.22805   0.00000  Uiso   1.00
C112   C     0.05419   0.19684   0.24898   0.00000  Uiso   1.00
C113   C     0.20072   0.12801   0.33010   0.00000  Uiso   1.00
C114   C     0.21908   0.10112   0.28118   0.00000  Uiso   1.00
C115   C     0.21477   0.07165   0.32640   0.00000  Uiso   1.00
H116   H     0.14424   0.15612   0.53207   0.00000  Uiso   1.00
H117   H     0.22161   0.19332   0.60153   0.00000  Uiso   1.00
H118   H     0.04739   0.18012   0.48348   0.00000  Uiso   1.00
H119   H     0.15757   0.09424   0.53660   0.00000  Uiso   1.00
H120   H     0.31702   0.23565   0.63846   0.00000  Uiso   1.00
H121   H     0.94966   0.20782   0.38953   0.00000  Uiso   1.00
H122   H     0.18199   0.02671   0.50155   0.00000  Uiso   1.00
H123   H     0.21860   0.16445   0.22327   0.00000  Uiso   1.00
H124   H     0.30005   0.20210   0.27579   0.00000  Uiso   1.00
H125   H     0.12583   0.18891   0.15774   0.00000  Uiso   1.00
H126   H     0.23601   0.10302   0.21086   0.00000  Uiso   1.00
H127   H     0.38069   0.24278   0.37408   0.00000  Uiso   1.00
H128   H     0.01332   0.21495   0.12515   0.00000  Uiso   1.00
H129   H     0.24566   0.03384   0.23716   0.00000  Uiso   1.00
O130   O     0.40109   0.26384   0.54639   0.00000  Uiso   1.00
O131   O     0.91912   0.22732   0.21980   0.00000  Uiso   1.00
O132   O     0.22393   0.98972   0.36676   0.00000  Uiso   1.00
N133   N     0.32084   0.23215   0.56904   0.00000  Uiso   1.00
N134   N     0.97738   0.20614   0.33631   0.00000  Uiso   1.00
N135   N     0.19457   0.03682   0.44102   0.00000  Uiso   1.00
N136   N     0.35509   0.23599   0.42677   0.00000  Uiso   1.00
N137   N     0.01163   0.20998   0.19404   0.00000  Uiso   1.00
N138   N     0.22883   0.04066   0.29876   0.00000  Uiso   1.00
C139   C     0.66128   0.65803   0.46133   0.00000  Uiso   1.00
C140   C     0.71363   0.67939   0.45625   0.00000  Uiso   1.00
C141   C     0.73856   0.69522   0.53122   0.00000  Uiso   1.00
C142   C     0.78620   0.71361   0.51209   0.00000  Uiso   1.00
C143   C     0.86414   0.74641   0.51801   0.00000  Uiso   1.00
C144   C     0.61897   0.67223   0.39211   0.00000  Uiso   1.00
C145   C     0.56431   0.68203   0.41315   0.00000  Uiso   1.00
C146   C     0.53227   0.69438   0.34002   0.00000  Uiso   1.00
C147   C     0.46324   0.71605   0.24635   0.00000  Uiso   1.00
C148   C     0.67884   0.62556   0.42097   0.00000  Uiso   1.00
C149   C     0.67450   0.59613   0.46628   0.00000  Uiso   1.00
C150   C     0.69285   0.56919   0.41744   0.00000  Uiso   1.00
C151   C     0.71678   0.51841   0.36859   0.00000  Uiso   1.00
C152   C     0.70156   0.66254   0.29403   0.00000  Uiso   1.00
C153   C     0.73551   0.68184   0.36537   0.00000  Uiso   1.00
C154   C     0.78313   0.70021   0.34612   0.00000  Uiso   1.00
C155   C     0.80813   0.71606   0.42105   0.00000  Uiso   1.00
C156   C     0.64085   0.67468   0.30124   0.00000  Uiso   1.00
C157   C     0.60888   0.68702   0.22805   0.00000  Uiso   1.00
C158   C     0.55419   0.69684   0.24898   0.00000  Uiso   1.00
C159   C     0.70072   0.62801   0.33010   0.00000  Uiso   1.00
C160   C     0.71908   0.60112   0.28118   0.00000  Uiso   1.00
C161   C     0.71477   0.57165   0.32640   0.00000  Uiso   1.00
H162   H     0.64424   0.65612   0.53207   0.00000  Uiso   1.00
H163   H     0.72161   0.69332   0.60153   0.00000  Uiso   1.00
H164   H     0.54739   0.68012   0.48348   0.00000  Uiso   1.00
H165   H     0.65757   0.59424   0.53660   0.00000  Uiso   1.00
H166   H     0.81702   0.73565   0.63846   0.00000  Uiso   1.00
H167   H     0.44966   0.70782   0.38953   0.00000  Uiso   1.00
H168   H     0.68199   0.52671   0.50155   0.00000  Uiso   1.00
H169   H     0.71860   0.66445   0.22327   0.00000  Uiso   1.00
H170   H     0.80005   0.70210   0.27579   0.00000  Uiso   1.00
H171   H     0.62583   0.68891   0.15774   0.00000  Uiso   1.00
H172   H     0.73601   0.60302   0.21086   0.00000  Uiso   1.00
H173   H     0.88069   0.74278   0.37408   0.00000  Uiso   1.00
H174   H     0.51332   0.71495   0.12515   0.00000  Uiso   1.00
H175   H     0.74566   0.53384   0.23716   0.00000  Uiso   1.00
O176   O     0.90109   0.76384   0.54639   0.00000  Uiso   1.00
O177   O     0.41912   0.72732   0.21980   0.00000  Uiso   1.00
O178   O     0.72393   0.48972   0.36676   0.00000  Uiso   1.00
N179   N     0.82084   0.73215   0.56904   0.00000  Uiso   1.00
N180   N     0.47738   0.70614   0.33631   0.00000  Uiso   1.00
N181   N     0.69457   0.53682   0.44102   0.00000  Uiso   1.00
N182   N     0.85509   0.73599   0.42677   0.00000  Uiso   1.00
N183   N     0.51163   0.70998   0.19404   0.00000  Uiso   1.00
N184   N     0.72883   0.54066   0.29876   0.00000  Uiso   1.00
C185   C     0.66128   0.34197   0.53867   0.00000  Uiso   1.00
C186   C     0.71363   0.32061   0.54375   0.00000  Uiso   1.00
C187   C     0.73856   0.30478   0.46878   0.00000  Uiso   1.00
C188   C     0.78620   0.28639   0.48791   0.00000  Uiso   1.00
C189   C     0.86414   0.25359   0.48199   0.00000  Uiso   1.00
C190   C     0.61897   0.32777   0.60789   0.00000  Uiso   1.00
C191   C     0.56431   0.31797   0.58685   0.00000  Uiso   1.00
C192   C     0.53227   0.30562   0.65998   0.00000  Uiso   1.00
C193   C     0.46324   0.28395   0.75365   0.00000  Uiso   1.00
C194   C     0.67884   0.37444   0.57903   0.00000  Uiso   1.00
C195   C     0.67450   0.40387   0.53372   0.00000  Uiso   1.00
C196   C     0.69285   0.43081   0.58256   0.00000  Uiso   1.00
C197   C     0.71678   0.48159   0.63141   0.00000  Uiso   1.00
C198   C     0.70156   0.33746   0.70597   0.00000  Uiso   1.00
C199   C     0.73551   0.31816   0.63463   0.00000  Uiso   1.00
C200   C     0.78313   0.29979   0.65388   0.00000  Uiso   1.00
C201   C     0.80813   0.28394   0.57895   0.00000  Uiso   1.00
C202   C     0.64085   0.32532   0.69876   0.00000  Uiso   1.00
C203   C     0.60888   0.31298   0.77195   0.00000  Uiso   1.00
C204   C     0.55419   0.30316   0.75102   0.00000  Uiso   1.00
C205   C     0.70072   0.37199   0.66990   0.00000  Uiso   1.00
C206   C     0.71908   0.39888   0.71882   0.00000  Uiso   1.00
C207   C     0.71477   0.42835   0.67360   0.00000  Uiso   1.00
H208   H     0.64424   0.34388   0.46793   0.00000  Uiso   1.00
H209   H     0.72161   0.30668   0.39847   0.00000  Uiso   1.00
H210   H     0.54739   0.31988   0.51652   0.00000  Uiso   1.00
H211   H     0.65757   0.40576   0.46340   0.00000  Uiso   1.00
H212   H     0.81702   0.26435   0.36154   0.00000  Uiso   1.00
H213   H     0.44966   0.29218   0.61047   0.00000  Uiso   1.00
H214   H     0.68199   0.47329   0.49845   0.00000  Uiso   1.00
H215   H     0.71860   0.33555   0.77673   0.00000  Uiso   1.00
H216   H     0.80005   0.29790   0.72421   0.00000  Uiso   1.00
H217   H     0.62583   0.31109   0.84226   0.00000  Uiso   1.00
H218   H     0.73601   0.39698   0.78914   0.00000  Uiso   1.00
H219   H     0.88069   0.25722   0.62592   0.00000  Uiso   1.00
H220   H     0.51332   0.28505   0.87485   0.00000  Uiso   1.00
H221   H     0.74566   0.46616   0.76284   0.00000  Uiso   1.00
O222   O     0.90109   0.23616   0.45361   0.00000  Uiso   1.00
O223   O     0.41912   0.27268   0.78020   0.00000  Uiso   1.00
O224   O     0.72393   0.51028   0.63324   0.00000  Uiso   1.00
N225   N     0.82084   0.26785   0.43096   0.00000  Uiso   1.00
N226   N     0.47738   0.29386   0.66369   0.00000  Uiso   1.00
N227   N     0.69457   0.46318   0.55898   0.00000  Uiso   1.00
N228   N     0.85509   0.26401   0.57323   0.00000  Uiso   1.00
N229   N     0.51163   0.29002   0.80596   0.00000  Uiso   1.00
N230   N     0.72883   0.45934   0.70124   0.00000  Uiso   1.00
C231   C     0.16128   0.84197   0.53867   0.00000  Uiso   1.00
C232   C     0.21363   0.82061   0.54375   0.00000  Uiso   1.00
C233   C     0.23856   0.80478   0.46878   0.00000  Uiso   1.00
C234   C     0.28620   0.78639   0.48791   0.00000  Uiso   1.00
C235   C     0.36414   0.75359   0.48199   0.00000  Uiso   1.00
C236   C     0.11897   0.82777   0.60789   0.00000  Uiso   1.00
C237   C     0.06431   0.81797   0.58685   0.00000  Uiso   1.00
C238   C     0.03227   0.80562   0.65998   0.00000  Uiso   1.00
C239   C     0.96324   0.78395   0.75365   0.00000  Uiso   1.00
C240   C     0.17884   0.87444   0.57903   0.00000  Uiso   1.00
C241   C     0.17450   0.90387   0.53372   0.00000  Uiso   1.00
C242   C     0.19285   0.93081   0.58256   0.00000  Uiso   1.00
C243   C     0.21678   0.98159   0.63141   0.00000  Uiso   1.00
C244   C     0.20156   0.83746   0.70597   0.00000  Uiso   1.00
C245   C     0.23551   0.81816   0.63463   0.00000  Uiso   1.00
C246   C     0.28313   0.79979   0.65388   0.00000  Uiso   1.00
C247   C     0.30813   0.78394   0.57895   0.00000  Uiso   1.00
C248   C     0.14085   0.82532   0.69876   0.00000  Uiso   1.00
C249   C     0.10888   0.81298   0.77195   0.00000  Uiso   1.00
C250   C     0.05419   0.80316   0.75102   0.00000  Uiso   1.00
C251   C     0.20072   0.87199   0.66990   0.00000  Uiso   1.00
C252   C     0.21908   0.89888   0.71882   0.00000  Uiso   1.00
C253   C     0.21477   0.92835   0.67360   0.00000  Uiso   1.00
H254   H     0.14424   0.84388   0.46793   0.00000  Uiso   1.00
H255   H     0.22161   0.80668   0.39847   0.00000  Uiso   1.00
H256   H     0.04739   0.81988   0.51652   0.00000  Uiso   1.00
H257   H     0.15757   0.90576   0.46340   0.00000  Uiso   1.00
H258   H     0.31702   0.76435   0.36154   0.00000  Uiso   1.00
H259   H     0.94966   0.79218   0.61047   0.00000  Uiso   1.00
H260   H     0.18199   0.97329   0.49845   0.00000  Uiso   1.00
H261   H     0.21860   0.83555   0.77673   0.00000  Uiso   1.00
H262   H     0.30005   0.79790   0.72421   0.00000  Uiso   1.00
H263   H     0.12583   0.81109   0.84226   0.00000  Uiso   1.00
H264   H     0.23601   0.89698   0.78914   0.00000  Uiso   1.00
H265   H     0.38069   0.75722   0.62592   0.00000  Uiso   1.00
H266   H     0.01332   0.78505   0.87485   0.00000  Uiso   1.00
H267   H     0.24566   0.96616   0.76284   0.00000  Uiso   1.00
O268   O     0.40109   0.73616   0.45361   0.00000  Uiso   1.00
O269   O     0.91912   0.77268   0.78020   0.00000  Uiso   1.00
O270   O     0.22393   0.01028   0.63324   0.00000  Uiso   1.00
N271   N     0.32084   0.76785   0.43096   0.00000  Uiso   1.00
N272   N     0.97738   0.79386   0.66369   0.00000  Uiso   1.00
N273   N     0.19457   0.96318   0.55898   0.00000  Uiso   1.00
N274   N     0.35509   0.76401   0.57323   0.00000  Uiso   1.00
N275   N     0.01163   0.79002   0.80596   0.00000  Uiso   1.00
N276   N     0.22883   0.95934   0.70124   0.00000  Uiso   1.00
C277   C     0.83872   0.15803   0.53867   0.00000  Uiso   1.00
C278   C     0.78637   0.17939   0.54375   0.00000  Uiso   1.00
C279   C     0.76144   0.19522   0.46878   0.00000  Uiso   1.00
C280   C     0.71380   0.21361   0.48791   0.00000  Uiso   1.00
C281   C     0.63586   0.24641   0.48199   0.00000  Uiso   1.00
C282   C     0.88103   0.17223   0.60789   0.00000  Uiso   1.00
C283   C     0.93569   0.18203   0.58685   0.00000  Uiso   1.00
C284   C     0.96773   0.19438   0.65998   0.00000  Uiso   1.00
C285   C     0.03676   0.21605   0.75365   0.00000  Uiso   1.00
C286   C     0.82116   0.12556   0.57903   0.00000  Uiso   1.00
C287   C     0.82550   0.09613   0.53372   0.00000  Uiso   1.00
C288   C     0.80715   0.06919   0.58256   0.00000  Uiso   1.00
C289   C     0.78322   0.01841   0.63141   0.00000  Uiso   1.00
C290   C     0.79844   0.16254   0.70597   0.00000  Uiso   1.00
C291   C     0.76449   0.18184   0.63463   0.00000  Uiso   1.00
C292   C     0.71687   0.20021   0.65388   0.00000  Uiso   1.00
C293   C     0.69187   0.21606   0.57895   0.00000  Uiso   1.00
C294   C     0.85915   0.17468   0.69876   0.00000  Uiso   1.00
C295   C     0.89112   0.18702   0.77195   0.00000  Uiso   1.00
C296   C     0.94581   0.19684   0.75102   0.00000  Uiso   1.00
C297   C     0.79928   0.12801   0.66990   0.00000  Uiso   1.00
C298   C     0.78092   0.10112   0.71882   0.00000  Uiso   1.00
C299   C     0.78523   0.07165   0.67360   0.00000  Uiso   1.00
H300   H     0.85576   0.15612   0.46793   0.00000  Uiso   1.00
H301   H     0.77839   0.19332   0.39847   0.00000  Uiso   1.00
H302   H     0.95261   0.18012   0.51652   0.00000  Uiso   1.00
H303   H     0.84243   0.09424   0.46340   0.00000  Uiso   1.00
H304   H     0.68298   0.23565   0.36154   0.00000  Uiso   1.00
H305   H     0.05034   0.20782   0.61047   0.00000  Uiso   1.00
H306   H     0.81801   0.02671   0.49845   0.00000  Uiso   1.00
H307   H     0.78140   0.16445   0.77673   0.00000  Uiso   1.00
H308   H     0.69995   0.20210   0.72421   0.00000  Uiso   1.00
H309   H     0.87417   0.18891   0.84226   0.00000  Uiso   1.00
H310   H     0.76399   0.10302   0.78914   0.00000  Uiso   1.00
H311   H     0.61931   0.24278   0.62592   0.00000  Uiso   1.00
H312   H     0.98668   0.21495   0.87485   0.00000  Uiso   1.00
H313   H     0.75434   0.03384   0.76284   0.00000  Uiso   1.00
O314   O     0.59891   0.26384   0.45361   0.00000  Uiso   1.00
O315   O     0.08088   0.22732   0.78020   0.00000  Uiso   1.00
O316   O     0.77607   0.98972   0.63324   0.00000  Uiso   1.00
N317   N     0.67916   0.23215   0.43096   0.00000  Uiso   1.00
N318   N     0.02262   0.20614   0.66369   0.00000  Uiso   1.00
N319   N     0.80543   0.03682   0.55898   0.00000  Uiso   1.00
N320   N     0.64491   0.23599   0.57323   0.00000  Uiso   1.00
N321   N     0.98837   0.20998   0.80596   0.00000  Uiso   1.00
N322   N     0.77117   0.04066   0.70124   0.00000  Uiso   1.00
C323   C     0.33872   0.65803   0.53867   0.00000  Uiso   1.00
C324   C     0.28637   0.67939   0.54375   0.00000  Uiso   1.00
C325   C     0.26144   0.69522   0.46878   0.00000  Uiso   1.00
C326   C     0.21380   0.71361   0.48791   0.00000  Uiso   1.00
C327   C     0.13586   0.74641   0.48199   0.00000  Uiso   1.00
C328   C     0.38103   0.67223   0.60789   0.00000  Uiso   1.00
C329   C     0.43569   0.68203   0.58685   0.00000  Uiso   1.00
C330   C     0.46773   0.69438   0.65998   0.00000  Uiso   1.00
C331   C     0.53676   0.71605   0.75365   0.00000  Uiso   1.00
C332   C     0.32116   0.62556   0.57903   0.00000  Uiso   1.00
C333   C     0.32550   0.59613   0.53372   0.00000  Uiso   1.00
C334   C     0.30715   0.56919   0.58256   0.00000  Uiso   1.00
C335   C     0.28322   0.51841   0.63141   0.00000  Uiso   1.00
C336   C     0.29844   0.66254   0.70597   0.00000  Uiso   1.00
C337   C     0.26449   0.68184   0.63463   0.00000  Uiso   1.00
C338   C     0.21687   0.70021   0.65388   0.00000  Uiso   1.00
C339   C     0.19187   0.71606   0.57895   0.00000  Uiso   1.00
C340   C     0.35915   0.67468   0.69876   0.00000  Uiso   1.00
C341   C     0.39112   0.68702   0.77195   0.00000  Uiso   1.00
C342   C     0.44581   0.69684   0.75102   0.00000  Uiso   1.00
C343   C     0.29928   0.62801   0.66990   0.00000  Uiso   1.00
C344   C     0.28092   0.60112   0.71882   0.00000  Uiso   1.00
C345   C     0.28523   0.57165   0.67360   0.00000  Uiso   1.00
H346   H     0.35576   0.65612   0.46793   0.00000  Uiso   1.00
H347   H     0.27839   0.69332   0.39847   0.00000  Uiso   1.00
H348   H     0.45261   0.68012   0.51652   0.00000  Uiso   1.00
H349   H     0.34243   0.59424   0.46340   0.00000  Uiso   1.00
H350   H     0.18298   0.73565   0.36154   0.00000  Uiso   1.00
H351   H     0.55034   0.70782   0.61047   0.00000  Uiso   1.00
H352   H     0.31801   0.52671   0.49845   0.00000  Uiso   1.00
H353   H     0.28140   0.66445   0.77673   0.00000  Uiso   1.00
H354   H     0.19995   0.70210   0.72421   0.00000  Uiso   1.00
H355   H     0.37417   0.68891   0.84226   0.00000  Uiso   1.00
H356   H     0.26399   0.60302   0.78914   0.00000  Uiso   1.00
H357   H     0.11931   0.74278   0.62592   0.00000  Uiso   1.00
H358   H     0.48668   0.71495   0.87485   0.00000  Uiso   1.00
H359   H     0.25434   0.53384   0.76284   0.00000  Uiso   1.00
O360   O     0.09891   0.76384   0.45361   0.00000  Uiso   1.00
O361   O     0.58088   0.72732   0.78020   0.00000  Uiso   1.00
O362   O     0.27607   0.48972   0.63324   0.00000  Uiso   1.00
N363   N     0.17916   0.73215   0.43096   0.00000  Uiso   1.00
N364   N     0.52262   0.70614   0.66369   0.00000  Uiso   1.00
N365   N     0.30543   0.53682   0.55898   0.00000  Uiso   1.00
N366   N     0.14491   0.73599   0.57323   0.00000  Uiso   1.00
N367   N     0.48837   0.70998   0.80596   0.00000  Uiso   1.00
N368   N     0.27117   0.54066   0.70124   0.00000  Uiso   1.00
C369   C     0.66128   0.15803   0.03867   0.00000  Uiso   1.00
C370   C     0.71363   0.17939   0.04375   0.00000  Uiso   1.00
C371   C     0.73856   0.19522   0.96878   0.00000  Uiso   1.00
C372   C     0.78620   0.21361   0.98791   0.00000  Uiso   1.00
C373   C     0.86414   0.24641   0.98199   0.00000  Uiso   1.00
C374   C     0.61897   0.17223   0.10789   0.00000  Uiso   1.00
C375   C     0.56431   0.18203   0.08685   0.00000  Uiso   1.00
C376   C     0.53227   0.19438   0.15998   0.00000  Uiso   1.00
C377   C     0.46324   0.21605   0.25365   0.00000  Uiso   1.00
C378   C     0.67884   0.12556   0.07903   0.00000  Uiso   1.00
C379   C     0.67450   0.09613   0.03372   0.00000  Uiso   1.00
C380   C     0.69285   0.06919   0.08256   0.00000  Uiso   1.00
C381   C     0.71678   0.01841   0.13141   0.00000  Uiso   1.00
C382   C     0.70156   0.16254   0.20597   0.00000  Uiso   1.00
C383   C     0.73551   0.18184   0.13463   0.00000  Uiso   1.00
C384   C     0.78313   0.20021   0.15388   0.00000  Uiso   1.00
C385   C     0.80813   0.21606   0.07895   0.00000  Uiso   1.00
C386   C     0.64085   0.17468   0.19876   0.00000  Uiso   1.00
C387   C     0.60888   0.18702   0.27195   0.00000  Uiso   1.00
C388   C     0.55419   0.19684   0.25102   0.00000  Uiso   1.00
C389   C     0.70072   0.12801   0.16990   0.00000  Uiso   1.00
C390   C     0.71908   0.10112   0.21882   0.00000  Uiso   1.00
C391   C     0.71477   0.07165   0.17360   0.00000  Uiso   1.00
H392   H     0.64424   0.15612   0.96793   0.00000  Uiso   1.00
H393   H     0.72161   0.19332   0.89847   0.00000  Uiso   1.00
H394   H     0.54739   0.18012   0.01652   0.00000  Uiso   1.00
H395   H     0.65757   0.09424   0.96340   0.00000  Uiso   1.00
H396   H     0.81702   0.23565   0.86154   0.00000  Uiso   1.00
H397   H     0.44966   0.20782   0.11047   0.00000  Uiso   1.00
H398   H     0.68199   0.02671   0.99845   0.00000  Uiso   1.00
H399   H     0.71860   0.16445   0.27673   0.00000  Uiso   1.00
H400   H     0.80005   0.20210   0.22421   0.00000  Uiso   1.00
H401   H     0.62583   0.18891   0.34226   0.00000  Uiso   1.00
H402   H     0.73601   0.10302   0.28914   0.00000  Uiso   1.00
H403   H     0.88069   0.24278   0.12592   0.00000  Uiso   1.00
H404   H     0.51332   0.21495   0.37485   0.00000  Uiso   1.00
H405   H     0.74566   0.03384   0.26284   0.00000  Uiso   1.00
O406   O     0.90109   0.26384   0.95361   0.00000  Uiso   1.00
O407   O     0.41912   0.22732   0.28020   0.00000  Uiso   1.00
O408   O     0.72393   0.98972   0.13324   0.00000  Uiso   1.00
N409   N     0.82084   0.23215   0.93096   0.00000  Uiso   1.00
N410   N     0.47738   0.20614   0.16369   0.00000  Uiso   1.00
N411   N     0.69457   0.03682   0.05898   0.00000  Uiso   1.00
N412   N     0.85509   0.23599   0.07323   0.00000  Uiso   1.00
N413   N     0.51163   0.20998   0.30596   0.00000  Uiso   1.00
N414   N     0.72883   0.04066   0.20124   0.00000  Uiso   1.00
C415   C     0.16128   0.65803   0.03867   0.00000  Uiso   1.00
C416   C     0.21363   0.67939   0.04375   0.00000  Uiso   1.00
C417   C     0.23856   0.69522   0.96878   0.00000  Uiso   1.00
C418   C     0.28620   0.71361   0.98791   0.00000  Uiso   1.00
C419   C     0.36414   0.74641   0.98199   0.00000  Uiso   1.00
C420   C     0.11897   0.67223   0.10789   0.00000  Uiso   1.00
C421   C     0.06431   0.68203   0.08685   0.00000  Uiso   1.00
C422   C     0.03227   0.69438   0.15998   0.00000  Uiso   1.00
C423   C     0.96324   0.71605   0.25365   0.00000  Uiso   1.00
C424   C     0.17884   0.62556   0.07903   0.00000  Uiso   1.00
C425   C     0.17450   0.59613   0.03372   0.00000  Uiso   1.00
C426   C     0.19285   0.56919   0.08256   0.00000  Uiso   1.00
C427   C     0.21678   0.51841   0.13141   0.00000  Uiso   1.00
C428   C     0.20156   0.66254   0.20597   0.00000  Uiso   1.00
C429   C     0.23551   0.68184   0.13463   0.00000  Uiso   1.00
C430   C     0.28313   0.70021   0.15388   0.00000  Uiso   1.00
C431   C     0.30813   0.71606   0.07895   0.00000  Uiso   1.00
C432   C     0.14085   0.67468   0.19876   0.00000  Uiso   1.00
C433   C     0.10888   0.68702   0.27195   0.00000  Uiso   1.00
C434   C     0.05419   0.69684   0.25102   0.00000  Uiso   1.00
C435   C     0.20072   0.62801   0.16990   0.00000  Uiso   1.00
C436   C     0.21908   0.60112   0.21882   0.00000  Uiso   1.00
C437   C     0.21477   0.57165   0.17360   0.00000  Uiso   1.00
H438   H     0.14424   0.65612   0.96793   0.00000  Uiso   1.00
H439   H     0.22161   0.69332   0.89847   0.00000  Uiso   1.00
H440   H     0.04739   0.68012   0.01652   0.00000  Uiso   1.00
H441   H     0.15757   0.59424   0.96340   0.00000  Uiso   1.00
H442   H     0.31702   0.73565   0.86154   0.00000  Uiso   1.00
H443   H     0.94966   0.70782   0.11047   0.00000  Uiso   1.00
H444   H     0.18199   0.52671   0.99845   0.00000  Uiso   1.00
H445   H     0.21860   0.66445   0.27673   0.00000  Uiso   1.00
H446   H     0.30005   0.70210   0.22421   0.00000  Uiso   1.00
H447   H     0.12583   0.68891   0.34226   0.00000  Uiso   1.00
H448   H     0.23601   0.60302   0.28914   0.00000  Uiso   1.00
H449   H     0.38069   0.74278   0.12592   0.00000  Uiso   1.00
H450   H     0.01332   0.71495   0.37485   0.00000  Uiso   1.00
H451   H     0.24566   0.53384   0.26284   0.00000  Uiso   1.00
O452   O     0.40109   0.76384   0.95361   0.00000  Uiso   1.00
O453   O     0.91912   0.72732   0.28020   0.00000  Uiso   1.00
O454   O     0.22393   0.48972   0.13324   0.00000  Uiso   1.00
N455   N     0.32084   0.73215   0.93096   0.00000  Uiso   1.00
N456   N     0.97738   0.70614   0.16369   0.00000  Uiso   1.00
N457   N     0.19457   0.53682   0.05898   0.00000  Uiso   1.00
N458   N     0.35509   0.73599   0.07323   0.00000  Uiso   1.00
N459   N     0.01163   0.70998   0.30596   0.00000  Uiso   1.00
N460   N     0.22883   0.54066   0.20124   0.00000  Uiso   1.00
C461   C     0.83872   0.34197   0.03867   0.00000  Uiso   1.00
C462   C     0.78637   0.32061   0.04375   0.00000  Uiso   1.00
C463   C     0.76144   0.30478   0.96878   0.00000  Uiso   1.00
C464   C     0.71380   0.28639   0.98791   0.00000  Uiso   1.00
C465   C     0.63586   0.25359   0.98199   0.00000  Uiso   1.00
C466   C     0.88103   0.32777   0.10789   0.00000  Uiso   1.00
C467   C     0.93569   0.31797   0.08685   0.00000  Uiso   1.00
C468   C     0.96773   0.30562   0.15998   0.00000  Uiso   1.00
C469   C     0.03676   0.28395   0.25365   0.00000  Uiso   1.00
C470   C     0.82116   0.37444   0.07903   0.00000  Uiso   1.00
C471   C     0.82550   0.40387   0.03372   0.00000  Uiso   1.00
C472   C     0.80715   0.43081   0.08256   0.00000  Uiso   1.00
C473   C     0.78322   0.48159   0.13141   0.00000  Uiso   1.00
C474   C     0.79844   0.33746   0.20597   0.00000  Uiso   1.00
C475   C     0.76449   0.31816   0.13463   0.00000  Uiso   1.00
C476   C     0.71687   0.29979   0.15388   0.00000  Uiso   1.00
C477   C     0.69187   0.28394   0.07895   0.00000  Uiso   1.00
C478   C     0.85915   0.32532   0.19876   0.00000  Uiso   1.00
C479   C     0.89112   0.31298   0.27195   0.00000  Uiso   1.00
C480   C     0.94581   0.30316   0.25102   0.00000  Uiso   1.00
C481   C     0.79928   0.37199   0.16990   0.00000  Uiso   1.00
C482   C     0.78092   0.39888   0.21882   0.00000  Uiso   1.00
C483   C     0.78523   0.42835   0.17360   0.00000  Uiso   1.00
H484   H     0.85576   0.34388   0.96793   0.00000  Uiso   1.00
H485   H     0.77839   0.30668   0.89847   0.00000  Uiso   1.00
H486   H     0.95261   0.31988   0.01652   0.00000  Uiso   1.00
H487   H     0.84243   0.40576   0.96340   0.00000  Uiso   1.00
H488   H     0.68298   0.26435   0.86154   0.00000  Uiso   1.00
H489   H     0.05034   0.29218   0.11047   0.00000  Uiso   1.00
H490   H     0.81801   0.47329   0.99845   0.00000  Uiso   1.00
H491   H     0.78140   0.33555   0.27673   0.00000  Uiso   1.00
H492   H     0.69995   0.29790   0.22421   0.00000  Uiso   1.00
H493   H     0.87417   0.31109   0.34226   0.00000  Uiso   1.00
H494   H     0.76399   0.39698   0.28914   0.00000  Uiso   1.00
H495   H     0.61931   0.25722   0.12592   0.00000  Uiso   1.00
H496   H     0.98668   0.28505   0.37485   0.00000  Uiso   1.00
H497   H     0.75434   0.46616   0.26284   0.00000  Uiso   1.00
O498   O     0.59891   0.23616   0.95361   0.00000  Uiso   1.00
O499   O     0.08088   0.27268   0.28020   0.00000  Uiso   1.00
O500   O     0.77607   0.51028   0.13324   0.00000  Uiso   1.00
N501   N     0.67916   0.26785   0.93096   0.00000  Uiso   1.00
N502   N     0.02262   0.29386   0.16369   0.00000  Uiso   1.00
N503   N     0.80543   0.46318   0.05898   0.00000  Uiso   1.00
N504   N     0.64491   0.26401   0.07323   0.00000  Uiso   1.00
N505   N     0.98837   0.29002   0.30596   0.00000  Uiso   1.00
N506   N     0.77117   0.45934   0.20124   0.00000  Uiso   1.00
C507   C     0.33872   0.84197   0.03867   0.00000  Uiso   1.00
C508   C     0.28637   0.82061   0.04375   0.00000  Uiso   1.00
C509   C     0.26144   0.80478   0.96878   0.00000  Uiso   1.00
C510   C     0.21380   0.78639   0.98791   0.00000  Uiso   1.00
C511   C     0.13586   0.75359   0.98199   0.00000  Uiso   1.00
C512   C     0.38103   0.82777   0.10789   0.00000  Uiso   1.00
C513   C     0.43569   0.81797   0.08685   0.00000  Uiso   1.00
C514   C     0.46773   0.80562   0.15998   0.00000  Uiso   1.00
C515   C     0.53676   0.78395   0.25365   0.00000  Uiso   1.00
C516   C     0.32116   0.87444   0.07903   0.00000  Uiso   1.00
C517   C     0.32550   0.90387   0.03372   0.00000  Uiso   1.00
C518   C     0.30715   0.93081   0.08256   0.00000  Uiso   1.00
C519   C     0.28322   0.98159   0.13141   0.00000  Uiso   1.00
C520   C     0.29844   0.83746   0.20597   0.00000  Uiso   1.00
C521   C     0.26449   0.81816   0.13463   0.00000  Uiso   1.00
C522   C     0.21687   0.79979   0.15388   0.00000  Uiso   1.00
C523   C     0.19187   0.78394   0.07895   0.00000  Uiso   1.00
C524   C     0.35915   0.82532   0.19876   0.00000  Uiso   1.00
C525   C     0.39112   0.81298   0.27195   0.00000  Uiso   1.00
C526   C     0.44581   0.80316   0.25102   0.00000  Uiso   1.00
C527   C     0.29928   0.87199   0.16990   0.00000  Uiso   1.00
C528   C     0.28092   0.89888   0.21882   0.00000  Uiso   1.00
C529   C     0.28523   0.92835   0.17360   0.00000  Uiso   1.00
H530   H     0.35576   0.84388   0.96793   0.00000  Uiso   1.00
H531   H     0.27839   0.80668   0.89847   0.00000  Uiso   1.00
H532   H     0.45261   0.81988   0.01652   0.00000  Uiso   1.00
H533   H     0.34243   0.90576   0.96340   0.00000  Uiso   1.00
H534   H     0.18298   0.76435   0.86154   0.00000  Uiso   1.00
H535   H     0.55034   0.79218   0.11047   0.00000  Uiso   1.00
H536   H     0.31801   0.97329   0.99845   0.00000  Uiso   1.00
H537   H     0.28140   0.83555   0.27673   0.00000  Uiso   1.00
H538   H     0.19995   0.79790   0.22421   0.00000  Uiso   1.00
H539   H     0.37417   0.81109   0.34226   0.00000  Uiso   1.00
H540   H     0.26399   0.89698   0.28914   0.00000  Uiso   1.00
H541   H     0.11931   0.75722   0.12592   0.00000  Uiso   1.00
H542   H     0.48668   0.78505   0.37485   0.00000  Uiso   1.00
H543   H     0.25434   0.96616   0.26284   0.00000  Uiso   1.00
O544   O     0.09891   0.73616   0.95361   0.00000  Uiso   1.00
O545   O     0.58088   0.77268   0.28020   0.00000  Uiso   1.00
O546   O     0.27607   0.01028   0.13324   0.00000  Uiso   1.00
N547   N     0.17916   0.76785   0.93096   0.00000  Uiso   1.00
N548   N     0.52262   0.79386   0.16369   0.00000  Uiso   1.00
N549   N     0.30543   0.96318   0.05898   0.00000  Uiso   1.00
N550   N     0.14491   0.76401   0.07323   0.00000  Uiso   1.00
N551   N     0.48837   0.79002   0.30596   0.00000  Uiso   1.00
N552   N     0.27117   0.95934   0.20124   0.00000  Uiso   1.00
C553   C     0.33872   0.15803   0.96133   0.00000  Uiso   1.00
C554   C     0.28637   0.17939   0.95625   0.00000  Uiso   1.00
C555   C     0.26144   0.19522   0.03122   0.00000  Uiso   1.00
C556   C     0.21380   0.21361   0.01209   0.00000  Uiso   1.00
C557   C     0.13586   0.24641   0.01801   0.00000  Uiso   1.00
C558   C     0.38103   0.17223   0.89211   0.00000  Uiso   1.00
C559   C     0.43569   0.18203   0.91315   0.00000  Uiso   1.00
C560   C     0.46773   0.19438   0.84002   0.00000  Uiso   1.00
C561   C     0.53676   0.21605   0.74635   0.00000  Uiso   1.00
C562   C     0.32116   0.12556   0.92097   0.00000  Uiso   1.00
C563   C     0.32550   0.09613   0.96628   0.00000  Uiso   1.00
C564   C     0.30715   0.06919   0.91744   0.00000  Uiso   1.00
C565   C     0.28322   0.01841   0.86859   0.00000  Uiso   1.00
C566   C     0.29844   0.16254   0.79403   0.00000  Uiso   1.00
C567   C     0.26449   0.18184   0.86537   0.00000  Uiso   1.00
C568   C     0.21687   0.20021   0.84612   0.00000  Uiso   1.00
C569   C     0.19187   0.21606   0.92105   0.00000  Uiso   1.00
C570   C     0.35915   0.17468   0.80124   0.00000  Uiso   1.00
C571   C     0.39112   0.18702   0.72805   0.00000  Uiso   1.00
C572   C     0.44581   0.19684   0.74898   0.00000  Uiso   1.00
C573   C     0.29928   0.12801   0.83010   0.00000  Uiso   1.00
C574   C     0.28092   0.10112   0.78118   0.00000  Uiso   1.00
C575   C     0.28523   0.07165   0.82640   0.00000  Uiso   1.00
H576   H     0.35576   0.15612   0.03207   0.00000  Uiso   1.00
H577   H     0.27839   0.19332   0.10153   0.00000  Uiso   1.00
H578   H     0.45261   0.18012   0.98348   0.00000  Uiso   1.00
H579   H     0.34243   0.09424   0.03660   0.00000  Uiso   1.00
H580   H     0.18298   0.23565   0.13846   0.00000  Uiso   1.00
H581   H     0.55034   0.20782   0.88953   0.00000  Uiso   1.00
H582   H     0.31801   0.02671   0.00155   0.00000  Uiso   1.00
H583   H     0.28140   0.16445   0.72327   0.00000  Uiso   1.00
H584   H     0.19995   0.20210   0.77579   0.00000  Uiso   1.00
H585   H     0.37417   0.18891   0.65774   0.00000  Uiso   1.00
H586   H     0.26399   0.10302   0.71086   0.00000  Uiso   1.00
H587   H     0.11931   0.24278   0.87408   0.00000  Uiso   1.00
H588   H     0.48668   0.21495   0.62515   0.00000  Uiso   1.00
H589   H     0.25434   0.03384   0.73716   0.00000  Uiso   1.00
O590   O     0.09891   0.26384   0.04639   0.00000  Uiso   1.00
O591   O     0.58088   0.22732   0.71980   0.00000  Uiso   1.00
O592   O     0.27607   0.98972   0.86676   0.00000  Uiso   1.00
N593   N     0.17916   0.23215   0.06904   0.00000  Uiso   1.00
N594   N     0.52262   0.20614   0.83631   0.00000  Uiso   1.00
N595   N     0.30543   0.03682   0.94102   0.00000  Uiso   1.00
N596   N     0.14491   0.23599   0.92677   0.00000  Uiso   1.00
N597   N     0.48837   0.20998   0.69404   0.00000  Uiso   1.00
N598   N     0.27117   0.04066   0.79876   0.00000  Uiso   1.00
C599   C     0.83872   0.65803   0.96133   0.00000  Uiso   1.00
C600   C     0.78637   0.67939   0.95625   0.00000  Uiso   1.00
C601   C     0.76144   0.69522   0.03122   0.00000  Uiso   1.00
C602   C     0.71380   0.71361   0.01209   0.00000  Uiso   1.00
C603   C     0.63586   0.74641   0.01801   0.00000  Uiso   1.00
C604   C     0.88103   0.67223   0.89211   0.00000  Uiso   1.00
C605   C     0.93569   0.68203   0.91315   0.00000  Uiso   1.00
C606   C     0.96773   0.69438   0.84002   0.00000  Uiso   1.00
C607   C     0.03676   0.71605   0.74635   0.00000  Uiso   1.00
C608   C     0.82116   0.62556   0.92097   0.00000  Uiso   1.00
C609   C     0.82550   0.59613   0.96628   0.00000  Uiso   1.00
C610   C     0.80715   0.56919   0.91744   0.00000  Uiso   1.00
C611   C     0.78322   0.51841   0.86859   0.00000  Uiso   1.00
C612   C     0.79844   0.66254   0.79403   0.00000  Uiso   1.00
C613   C     0.76449   0.68184   0.86537   0.00000  Uiso   1.00
C614   C     0.71687   0.70021   0.84612   0.00000  Uiso   1.00
C615   C     0.69187   0.71606   0.92105   0.00000  Uiso   1.00
C616   C     0.85915   0.67468   0.80124   0.00000  Uiso   1.00
C617   C     0.89112   0.68702   0.72805   0.00000  Uiso   1.00
C618   C     0.94581   0.69684   0.74898   0.00000  Uiso   1.00
C619   C     0.79928   0.62801   0.83010   0.00000  Uiso   1.00
C620   C     0.78092   0.60112   0.78118   0.00000  Uiso   1.00
C621   C     0.78523   0.57165   0.82640   0.00000  Uiso   1.00
H622   H     0.85576   0.65612   0.03207   0.00000  Uiso   1.00
H623   H     0.77839   0.69332   0.10153   0.00000  Uiso   1.00
H624   H     0.95261   0.68012   0.98348   0.00000  Uiso   1.00
H625   H     0.84243   0.59424   0.03660   0.00000  Uiso   1.00
H626   H     0.68298   0.73565   0.13846   0.00000  Uiso   1.00
H627   H     0.05034   0.70782   0.88953   0.00000  Uiso   1.00
H628   H     0.81801   0.52671   0.00155   0.00000  Uiso   1.00
H629   H     0.78140   0.66445   0.72327   0.00000  Uiso   1.00
H630   H     0.69995   0.70210   0.77579   0.00000  Uiso   1.00
H631   H     0.87417   0.68891   0.65774   0.00000  Uiso   1.00
H632   H     0.76399   0.60302   0.71086   0.00000  Uiso   1.00
H633   H     0.61931   0.74278   0.87408   0.00000  Uiso   1.00
H634   H     0.98668   0.71495   0.62515   0.00000  Uiso   1.00
H635   H     0.75434   0.53384   0.73716   0.00000  Uiso   1.00
O636   O     0.59891   0.76384   0.04639   0.00000  Uiso   1.00
O637   O     0.08088   0.72732   0.71980   0.00000  Uiso   1.00
O638   O     0.77607   0.48972   0.86676   0.00000  Uiso   1.00
N639   N     0.67916   0.73215   0.06904   0.00000  Uiso   1.00
N640   N     0.02262   0.70614   0.83631   0.00000  Uiso   1.00
N641   N     0.80543   0.53682   0.94102   0.00000  Uiso   1.00
N642   N     0.64491   0.73599   0.92677   0.00000  Uiso   1.00
N643   N     0.98837   0.70998   0.69404   0.00000  Uiso   1.00
N644   N     0.77117   0.54066   0.79876   0.00000  Uiso   1.00
C645   C     0.16128   0.34197   0.96133   0.00000  Uiso   1.00
C646   C     0.21363   0.32061   0.95625   0.00000  Uiso   1.00
C647   C     0.23856   0.30478   0.03122   0.00000  Uiso   1.00
C648   C     0.28620   0.28639   0.01209   0.00000  Uiso   1.00
C649   C     0.36414   0.25359   0.01801   0.00000  Uiso   1.00
C650   C     0.11897   0.32777   0.89211   0.00000  Uiso   1.00
C651   C     0.06431   0.31797   0.91315   0.00000  Uiso   1.00
C652   C     0.03227   0.30562   0.84002   0.00000  Uiso   1.00
C653   C     0.96324   0.28395   0.74635   0.00000  Uiso   1.00
C654   C     0.17884   0.37444   0.92097   0.00000  Uiso   1.00
C655   C     0.17450   0.40387   0.96628   0.00000  Uiso   1.00
C656   C     0.19285   0.43081   0.91744   0.00000  Uiso   1.00
C657   C     0.21678   0.48159   0.86859   0.00000  Uiso   1.00
C658   C     0.20156   0.33746   0.79403   0.00000  Uiso   1.00
C659   C     0.23551   0.31816   0.86537   0.00000  Uiso   1.00
C660   C     0.28313   0.29979   0.84612   0.00000  Uiso   1.00
C661   C     0.30813   0.28394   0.92105   0.00000  Uiso   1.00
C662   C     0.14085   0.32532   0.80124   0.00000  Uiso   1.00
C663   C     0.10888   0.31298   0.72805   0.00000  Uiso   1.00
C664   C     0.05419   0.30316   0.74898   0.00000  Uiso   1.00
C665   C     0.20072   0.37199   0.83010   0.00000  Uiso   1.00
C666   C     0.21908   0.39888   0.78118   0.00000  Uiso   1.00
C667   C     0.21477   0.42835   0.82640   0.00000  Uiso   1.00
H668   H     0.14424   0.34388   0.03207   0.00000  Uiso   1.00
H669   H     0.22161   0.30668   0.10153   0.00000  Uiso   1.00
H670   H     0.04739   0.31988   0.98348   0.00000  Uiso   1.00
H671   H     0.15757   0.40576   0.03660   0.00000  Uiso   1.00
H672   H     0.31702   0.26435   0.13846   0.00000  Uiso   1.00
H673   H     0.94966   0.29218   0.88953   0.00000  Uiso   1.00
H674   H     0.18199   0.47329   0.00155   0.00000  Uiso   1.00
H675   H     0.21860   0.33555   0.72327   0.00000  Uiso   1.00
H676   H     0.30005   0.29790   0.77579   0.00000  Uiso   1.00
H677   H     0.12583   0.31109   0.65774   0.00000  Uiso   1.00
H678   H     0.23601   0.39698   0.71086   0.00000  Uiso   1.00
H679   H     0.38069   0.25722   0.87408   0.00000  Uiso   1.00
H680   H     0.01332   0.28505   0.62515   0.00000  Uiso   1.00
H681   H     0.24566   0.46616   0.73716   0.00000  Uiso   1.00
O682   O     0.40109   0.23616   0.04639   0.00000  Uiso   1.00
O683   O     0.91912   0.27268   0.71980   0.00000  Uiso   1.00
O684   O     0.22393   0.51028   0.86676   0.00000  Uiso   1.00
N685   N     0.32084   0.26785   0.06904   0.00000  Uiso   1.00
N686   N     0.97738   0.29386   0.83631   0.00000  Uiso   1.00
N687   N     0.19457   0.46318   0.94102   0.00000  Uiso   1.00
N688   N     0.35509   0.26401   0.92677   0.00000  Uiso   1.00
N689   N     0.01163   0.29002   0.69404   0.00000  Uiso   1.00
N690   N     0.22883   0.45934   0.79876   0.00000  Uiso   1.00
C691   C     0.66128   0.84197   0.96133   0.00000  Uiso   1.00
C692   C     0.71363   0.82061   0.95625   0.00000  Uiso   1.00
C693   C     0.73856   0.80478   0.03122   0.00000  Uiso   1.00
C694   C     0.78620   0.78639   0.01209   0.00000  Uiso   1.00
C695   C     0.86414   0.75359   0.01801   0.00000  Uiso   1.00
C696   C     0.61897   0.82777   0.89211   0.00000  Uiso   1.00
C697   C     0.56431   0.81797   0.91315   0.00000  Uiso   1.00
C698   C     0.53227   0.80562   0.84002   0.00000  Uiso   1.00
C699   C     0.46324   0.78395   0.74635   0.00000  Uiso   1.00
C700   C     0.67884   0.87444   0.92097   0.00000  Uiso   1.00
C701   C     0.67450   0.90387   0.96628   0.00000  Uiso   1.00
C702   C     0.69285   0.93081   0.91744   0.00000  Uiso   1.00
C703   C     0.71678   0.98159   0.86859   0.00000  Uiso   1.00
C704   C     0.70156   0.83746   0.79403   0.00000  Uiso   1.00
C705   C     0.73551   0.81816   0.86537   0.00000  Uiso   1.00
C706   C     0.78313   0.79979   0.84612   0.00000  Uiso   1.00
C707   C     0.80813   0.78394   0.92105   0.00000  Uiso   1.00
C708   C     0.64085   0.82532   0.80124   0.00000  Uiso   1.00
C709   C     0.60888   0.81298   0.72805   0.00000  Uiso   1.00
C710   C     0.55419   0.80316   0.74898   0.00000  Uiso   1.00
C711   C     0.70072   0.87199   0.83010   0.00000  Uiso   1.00
C712   C     0.71908   0.89888   0.78118   0.00000  Uiso   1.00
C713   C     0.71477   0.92835   0.82640   0.00000  Uiso   1.00
H714   H     0.64424   0.84388   0.03207   0.00000  Uiso   1.00
H715   H     0.72161   0.80668   0.10153   0.00000  Uiso   1.00
H716   H     0.54739   0.81988   0.98348   0.00000  Uiso   1.00
H717   H     0.65757   0.90576   0.03660   0.00000  Uiso   1.00
H718   H     0.81702   0.76435   0.13846   0.00000  Uiso   1.00
H719   H     0.44966   0.79218   0.88953   0.00000  Uiso   1.00
H720   H     0.68199   0.97329   0.00155   0.00000  Uiso   1.00
H721   H     0.71860   0.83555   0.72327   0.00000  Uiso   1.00
H722   H     0.80005   0.79790   0.77579   0.00000  Uiso   1.00
H723   H     0.62583   0.81109   0.65774   0.00000  Uiso   1.00
H724   H     0.73601   0.89698   0.71086   0.00000  Uiso   1.00
H725   H     0.88069   0.75722   0.87408   0.00000  Uiso   1.00
H726   H     0.51332   0.78505   0.62515   0.00000  Uiso   1.00
H727   H     0.74566   0.96616   0.73716   0.00000  Uiso   1.00
O728   O     0.90109   0.73616   0.04639   0.00000  Uiso   1.00
O729   O     0.41912   0.77268   0.71980   0.00000  Uiso   1.00
O730   O     0.72393   0.01028   0.86676   0.00000  Uiso   1.00
N731   N     0.82084   0.76785   0.06904   0.00000  Uiso   1.00
N732   N     0.47738   0.79386   0.83631   0.00000  Uiso   1.00
N733   N     0.69457   0.96318   0.94102   0.00000  Uiso   1.00
N734   N     0.85509   0.76401   0.92677   0.00000  Uiso   1.00
N735   N     0.51163   0.79002   0.69404   0.00000  Uiso   1.00
N736   N     0.72883   0.95934   0.79876   0.00000  Uiso   1.00
