data_job_00993
_audit_creation_date              2018-12-19
_audit_creation_method            'Materials Studio'
_symmetry_space_group_name_H-M    'P1'
_symmetry_Int_Tables_number       1
_symmetry_cell_setting            triclinic
loop_
_symmetry_equiv_pos_as_xyz
  x,y,z
_cell_length_a                    28.2436
_cell_length_b                    12.6504
_cell_length_c                    30.4601
_cell_angle_alpha                 90.0000
_cell_angle_beta                  90.0000
_cell_angle_gamma                 90.0000
loop_
_atom_site_label
_atom_site_type_symbol
_atom_site_fract_x
_atom_site_fract_y
_atom_site_fract_z
_atom_site_U_iso_or_equiv
_atom_site_adp_type
_atom_site_occupancy
C1     C     0.37914   0.81162   0.59837   0.00000  Uiso   1.00
C2     C     0.42859   0.80208   0.61807   0.00000  Uiso   1.00
C3     C     0.47083   0.81997   0.59602   0.00000  Uiso   1.00
C4     C     0.51234   0.80706   0.61985   0.00000  Uiso   1.00
C5     C     0.58924   0.79671   0.64370   0.00000  Uiso   1.00
C6     C     0.35531   0.70491   0.60573   0.00000  Uiso   1.00
C7     C     0.33594   0.64112   0.57330   0.00000  Uiso   1.00
C8     C     0.31576   0.54642   0.58674   0.00000  Uiso   1.00
C9     C     0.27886   0.38526   0.59143   0.00000  Uiso   1.00
C10    C     0.35255   0.89034   0.62717   0.00000  Uiso   1.00
C11    C     0.33084   0.98245   0.61277   0.00000  Uiso   1.00
C12    C     0.30832   0.04386   0.64425   0.00000  Uiso   1.00
C13    C     0.26714   0.17060   0.68223   0.00000  Uiso   1.00
C14    C     0.37773   0.75686   0.67989   0.00000  Uiso   1.00
C15    C     0.42782   0.77233   0.66235   0.00000  Uiso   1.00
C16    C     0.46927   0.75939   0.68622   0.00000  Uiso   1.00
C17    C     0.51157   0.77727   0.66421   0.00000  Uiso   1.00
C18    C     0.35454   0.67517   0.65001   0.00000  Uiso   1.00
C19    C     0.33438   0.58054   0.66349   0.00000  Uiso   1.00
C20    C     0.31499   0.51662   0.63110   0.00000  Uiso   1.00
C21    C     0.35178   0.86060   0.67145   0.00000  Uiso   1.00
C22    C     0.32929   0.92187   0.70296   0.00000  Uiso   1.00
C23    C     0.30755   0.01406   0.68861   0.00000  Uiso   1.00
H24    H     0.37973   0.83477   0.56389   0.00000  Uiso   1.00
H25    H     0.47141   0.84298   0.56175   0.00000  Uiso   1.00
H26    H     0.33653   0.66417   0.53904   0.00000  Uiso   1.00
H27    H     0.33144   0.00544   0.57850   0.00000  Uiso   1.00
H28    H     0.57271   0.83892   0.57890   0.00000  Uiso   1.00
H29    H     0.28831   0.46190   0.53101   0.00000  Uiso   1.00
H30    H     0.27757   0.18155   0.61422   0.00000  Uiso   1.00
H31    H     0.37713   0.73371   0.71436   0.00000  Uiso   1.00
H32    H     0.46867   0.73637   0.72048   0.00000  Uiso   1.00
H33    H     0.33379   0.55755   0.69776   0.00000  Uiso   1.00
H34    H     0.32870   0.89883   0.73723   0.00000  Uiso   1.00
H35    H     0.57049   0.75239   0.70773   0.00000  Uiso   1.00
H36    H     0.28608   0.37537   0.65983   0.00000  Uiso   1.00
H37    H     0.27534   0.09502   0.74305   0.00000  Uiso   1.00
O38    O     0.63187   0.79920   0.64463   0.00000  Uiso   1.00
O39    O     0.25873   0.30458   0.58178   0.00000  Uiso   1.00
O40    O     0.24464   0.24874   0.69095   0.00000  Uiso   1.00
N41    N     0.55963   0.81821   0.60839   0.00000  Uiso   1.00
N42    N     0.29373   0.46571   0.56360   0.00000  Uiso   1.00
N43    N     0.28368   0.13851   0.64140   0.00000  Uiso   1.00
N44    N     0.55843   0.77165   0.67771   0.00000  Uiso   1.00
N45    N     0.29254   0.41915   0.63293   0.00000  Uiso   1.00
N46    N     0.28248   0.09195   0.71072   0.00000  Uiso   1.00
C47    C     0.08019   0.12978   0.62837   0.00000  Uiso   1.00
C48    C     0.03530   0.15335   0.65440   0.00000  Uiso   1.00
C49    C     0.98972   0.12376   0.64262   0.00000  Uiso   1.00
C50    C     0.95339   0.15289   0.67084   0.00000  Uiso   1.00
C51    C     0.88231   0.18093   0.70537   0.00000  Uiso   1.00
C52    C     0.10353   0.23646   0.61972   0.00000  Uiso   1.00
C53    C     0.11533   0.27674   0.57877   0.00000  Uiso   1.00
C54    C     0.13645   0.37582   0.57780   0.00000  Uiso   1.00
C55    C     0.17134   0.53285   0.55850   0.00000  Uiso   1.00
C56    C     0.11307   0.07103   0.65970   0.00000  Uiso   1.00
C57    C     0.13291   0.97222   0.65236   0.00000  Uiso   1.00
C58    C     0.16206   0.93204   0.68505   0.00000  Uiso   1.00
C59    C     0.21177   0.83221   0.72781   0.00000  Uiso   1.00
C60    C     0.09672   0.23412   0.69945   0.00000  Uiso   1.00
C61    C     0.04428   0.21003   0.69301   0.00000  Uiso   1.00
C62    C     0.00801   0.23921   0.72126   0.00000  Uiso   1.00
C63    C     0.96238   0.20967   0.70951   0.00000  Uiso   1.00
C64    C     0.11251   0.29314   0.65832   0.00000  Uiso   1.00
C65    C     0.13362   0.39218   0.65741   0.00000  Uiso   1.00
C66    C     0.14544   0.43260   0.61648   0.00000  Uiso   1.00
C67    C     0.12205   0.12770   0.69831   0.00000  Uiso   1.00
C68    C     0.15119   0.08767   0.73100   0.00000  Uiso   1.00
C69    C     0.17106   0.98882   0.72372   0.00000  Uiso   1.00
H70    H     0.07320   0.08566   0.59831   0.00000  Uiso   1.00
H71    H     0.98279   0.07991   0.61273   0.00000  Uiso   1.00
H72    H     0.10839   0.23286   0.54890   0.00000  Uiso   1.00
H73    H     0.12595   0.92839   0.62248   0.00000  Uiso   1.00
H74    H     0.88650   0.09857   0.64574   0.00000  Uiso   1.00
H75    H     0.15134   0.42105   0.51115   0.00000  Uiso   1.00
H76    H     0.18839   0.77902   0.66631   0.00000  Uiso   1.00
H77    H     0.10371   0.27825   0.72951   0.00000  Uiso   1.00
H78    H     0.01496   0.28307   0.75113   0.00000  Uiso   1.00
H79    H     0.14056   0.43602   0.68730   0.00000  Uiso   1.00
H80    H     0.15813   0.13155   0.76088   0.00000  Uiso   1.00
H81    H     0.91262   0.26347   0.75807   0.00000  Uiso   1.00
H82    H     0.17746   0.58594   0.62348   0.00000  Uiso   1.00
H83    H     0.21450   0.94391   0.77863   0.00000  Uiso   1.00
O84    O     0.84063   0.18075   0.71375   0.00000  Uiso   1.00
O85    O     0.18810   0.60381   0.53718   0.00000  Uiso   1.00
O86    O     0.23669   0.76148   0.74074   0.00000  Uiso   1.00
N87    N     0.90483   0.13670   0.66921   0.00000  Uiso   1.00
N88    N     0.15243   0.43820   0.54338   0.00000  Uiso   1.00
N89    N     0.18708   0.83797   0.68843   0.00000  Uiso   1.00
N90    N     0.91888   0.22543   0.72965   0.00000  Uiso   1.00
N91    N     0.16648   0.52693   0.60382   0.00000  Uiso   1.00
N92    N     0.20113   0.92670   0.74888   0.00000  Uiso   1.00
C93    C     0.40290   0.97667   0.39319   0.00000  Uiso   1.00
C94    C     0.44725   0.99226   0.36539   0.00000  Uiso   1.00
C95    C     0.49261   0.95970   0.37654   0.00000  Uiso   1.00
C96    C     0.52844   0.98140   0.34667   0.00000  Uiso   1.00
C97    C     0.59873   0.99769   0.30954   0.00000  Uiso   1.00
C98    C     0.38197   0.08657   0.40001   0.00000  Uiso   1.00
C99    C     0.37242   0.13330   0.44027   0.00000  Uiso   1.00
C100   C     0.35330   0.23439   0.43954   0.00000  Uiso   1.00
C101   C     0.32219   0.39706   0.45616   0.00000  Uiso   1.00
C102   C     0.36781   0.91727   0.36422   0.00000  Uiso   1.00
C103   C     0.34635   0.82167   0.37439   0.00000  Uiso   1.00
C104   C     0.31529   0.78024   0.34353   0.00000  Uiso   1.00
C105   C     0.26220   0.68006   0.30457   0.00000  Uiso   1.00
C106   C     0.38589   0.07310   0.32030   0.00000  Uiso   1.00
C107   C     0.43801   0.04464   0.32580   0.00000  Uiso   1.00
C108   C     0.47379   0.06639   0.29591   0.00000  Uiso   1.00
C109   C     0.51919   0.03387   0.30701   0.00000  Uiso   1.00
C110   C     0.37273   0.13895   0.36042   0.00000  Uiso   1.00
C111   C     0.35361   0.23999   0.35963   0.00000  Uiso   1.00
C112   C     0.34404   0.28686   0.39988   0.00000  Uiso   1.00
C113   C     0.35857   0.96965   0.32463   0.00000  Uiso   1.00
C114   C     0.32753   0.92836   0.29375   0.00000  Uiso   1.00
C115   C     0.30603   0.83271   0.30387   0.00000  Uiso   1.00
H116   H     0.41009   0.93589   0.42401   0.00000  Uiso   1.00
H117   H     0.49974   0.91917   0.40719   0.00000  Uiso   1.00
H118   H     0.37957   0.09274   0.47090   0.00000  Uiso   1.00
H119   H     0.35351   0.78116   0.40503   0.00000  Uiso   1.00
H120   H     0.59507   0.92377   0.37108   0.00000  Uiso   1.00
H121   H     0.34168   0.28973   0.50543   0.00000  Uiso   1.00
H122   H     0.28670   0.63270   0.36652   0.00000  Uiso   1.00
H123   H     0.37869   0.11388   0.28948   0.00000  Uiso   1.00
H124   H     0.46663   0.10693   0.26527   0.00000  Uiso   1.00
H125   H     0.34646   0.28050   0.32899   0.00000  Uiso   1.00
H126   H     0.32039   0.96892   0.26312   0.00000  Uiso   1.00
H127   H     0.56820   0.07616   0.25590   0.00000  Uiso   1.00
H128   H     0.31480   0.44212   0.39025   0.00000  Uiso   1.00
H129   H     0.25983   0.78510   0.25134   0.00000  Uiso   1.00
O130   O     0.64005   0.99221   0.30000   0.00000  Uiso   1.00
O131   O     0.30760   0.47232   0.47626   0.00000  Uiso   1.00
O132   O     0.23548   0.61032   0.29402   0.00000  Uiso   1.00
N133   N     0.57668   0.96057   0.34729   0.00000  Uiso   1.00
N134   N     0.33977   0.30273   0.47290   0.00000  Uiso   1.00
N135   N     0.28837   0.68848   0.34304   0.00000  Uiso   1.00
N136   N     0.56222   0.04257   0.28532   0.00000  Uiso   1.00
N137   N     0.32531   0.38473   0.41092   0.00000  Uiso   1.00
N138   N     0.27391   0.77048   0.28106   0.00000  Uiso   1.00
C139   C     0.10471   0.98421   0.41165   0.00000  Uiso   1.00
C140   C     0.05818   0.97968   0.38633   0.00000  Uiso   1.00
C141   C     0.01362   0.00048   0.40347   0.00000  Uiso   1.00
C142   C     0.97546   0.99203   0.37495   0.00000  Uiso   1.00
C143   C     0.90226   0.98923   0.34233   0.00000  Uiso   1.00
C144   C     0.12755   0.87577   0.40624   0.00000  Uiso   1.00
C145   C     0.14133   0.80922   0.44014   0.00000  Uiso   1.00
C146   C     0.16159   0.71331   0.42838   0.00000  Uiso   1.00
C147   C     0.19613   0.54923   0.42669   0.00000  Uiso   1.00
C148   C     0.13625   0.06155   0.38678   0.00000  Uiso   1.00
C149   C     0.15736   0.15118   0.40430   0.00000  Uiso   1.00
C150   C     0.18495   0.21167   0.37615   0.00000  Uiso   1.00
C151   C     0.23300   0.33603   0.34423   0.00000  Uiso   1.00
C152   C     0.11619   0.93222   0.33050   0.00000  Uiso   1.00
C153   C     0.06441   0.95144   0.34225   0.00000  Uiso   1.00
C154   C     0.02632   0.94296   0.31369   0.00000  Uiso   1.00
C155   C     0.98171   0.96374   0.33079   0.00000  Uiso   1.00
C156   C     0.13379   0.84753   0.36217   0.00000  Uiso   1.00
C157   C     0.15403   0.75170   0.35036   0.00000  Uiso   1.00
C158   C     0.16783   0.68501   0.38422   0.00000  Uiso   1.00
C159   C     0.14249   0.03331   0.34270   0.00000  Uiso   1.00
C160   C     0.17006   0.09366   0.31452   0.00000  Uiso   1.00
C161   C     0.19120   0.18338   0.33200   0.00000  Uiso   1.00
H162   H     0.09985   0.00619   0.44597   0.00000  Uiso   1.00
H163   H     0.00881   0.02232   0.43759   0.00000  Uiso   1.00
H164   H     0.13651   0.83110   0.47424   0.00000  Uiso   1.00
H165   H     0.15253   0.17301   0.43841   0.00000  Uiso   1.00
H166   H     0.91061   0.02771   0.40886   0.00000  Uiso   1.00
H167   H     0.17989   0.62452   0.48615   0.00000  Uiso   1.00
H168   H     0.21367   0.34551   0.41060   0.00000  Uiso   1.00
H169   H     0.12104   0.91024   0.29618   0.00000  Uiso   1.00
H170   H     0.03115   0.92110   0.27958   0.00000  Uiso   1.00
H171   H     0.15885   0.72988   0.31624   0.00000  Uiso   1.00
H172   H     0.17488   0.07179   0.28041   0.00000  Uiso   1.00
H173   H     0.92875   0.94555   0.28062   0.00000  Uiso   1.00
H174   H     0.19803   0.54236   0.35791   0.00000  Uiso   1.00
H175   H     0.23181   0.26335   0.28236   0.00000  Uiso   1.00
O176   O     0.86016   0.99547   0.33652   0.00000  Uiso   1.00
O177   O     0.21345   0.46652   0.43793   0.00000  Uiso   1.00
O178   O     0.25778   0.41244   0.33880   0.00000  Uiso   1.00
N179   N     0.92722   0.00690   0.38095   0.00000  Uiso   1.00
N180   N     0.17897   0.62994   0.45322   0.00000  Uiso   1.00
N181   N     0.21056   0.30399   0.38258   0.00000  Uiso   1.00
N182   N     0.93698   0.96270   0.31195   0.00000  Uiso   1.00
N183   N     0.18873   0.58573   0.38422   0.00000  Uiso   1.00
N184   N     0.22032   0.25978   0.31358   0.00000  Uiso   1.00
C185   C     0.62086   0.18838   0.09837   0.00000  Uiso   1.00
C186   C     0.57141   0.19792   0.11807   0.00000  Uiso   1.00
C187   C     0.52917   0.18003   0.09602   0.00000  Uiso   1.00
C188   C     0.48766   0.19294   0.11985   0.00000  Uiso   1.00
C189   C     0.41076   0.20329   0.14370   0.00000  Uiso   1.00
C190   C     0.64469   0.29509   0.10573   0.00000  Uiso   1.00
C191   C     0.66406   0.35888   0.07330   0.00000  Uiso   1.00
C192   C     0.68424   0.45358   0.08674   0.00000  Uiso   1.00
C193   C     0.72114   0.61474   0.09143   0.00000  Uiso   1.00
C194   C     0.64745   0.10966   0.12717   0.00000  Uiso   1.00
C195   C     0.66916   0.01755   0.11277   0.00000  Uiso   1.00
C196   C     0.69168   0.95614   0.14425   0.00000  Uiso   1.00
C197   C     0.73286   0.82940   0.18223   0.00000  Uiso   1.00
C198   C     0.62227   0.24314   0.17989   0.00000  Uiso   1.00
C199   C     0.57218   0.22767   0.16235   0.00000  Uiso   1.00
C200   C     0.53073   0.24061   0.18622   0.00000  Uiso   1.00
C201   C     0.48843   0.22273   0.16421   0.00000  Uiso   1.00
C202   C     0.64546   0.32483   0.15001   0.00000  Uiso   1.00
C203   C     0.66562   0.41946   0.16349   0.00000  Uiso   1.00
C204   C     0.68501   0.48338   0.13110   0.00000  Uiso   1.00
C205   C     0.64822   0.13940   0.17145   0.00000  Uiso   1.00
C206   C     0.67071   0.07813   0.20296   0.00000  Uiso   1.00
C207   C     0.69245   0.98594   0.18861   0.00000  Uiso   1.00
H208   H     0.62027   0.16523   0.06389   0.00000  Uiso   1.00
H209   H     0.52859   0.15702   0.06175   0.00000  Uiso   1.00
H210   H     0.66347   0.33583   0.03904   0.00000  Uiso   1.00
H211   H     0.66856   0.99456   0.07850   0.00000  Uiso   1.00
H212   H     0.42729   0.16108   0.07890   0.00000  Uiso   1.00
H213   H     0.71169   0.53810   0.03101   0.00000  Uiso   1.00
H214   H     0.72243   0.81845   0.11422   0.00000  Uiso   1.00
H215   H     0.62287   0.26629   0.21436   0.00000  Uiso   1.00
H216   H     0.53133   0.26363   0.22048   0.00000  Uiso   1.00
H217   H     0.66621   0.44245   0.19776   0.00000  Uiso   1.00
H218   H     0.67130   0.10117   0.23723   0.00000  Uiso   1.00
H219   H     0.42951   0.24761   0.20773   0.00000  Uiso   1.00
H220   H     0.71392   0.62463   0.15983   0.00000  Uiso   1.00
H221   H     0.72466   0.90498   0.24305   0.00000  Uiso   1.00
O222   O     0.36813   0.20080   0.14463   0.00000  Uiso   1.00
O223   O     0.74127   0.69542   0.08178   0.00000  Uiso   1.00
O224   O     0.75536   0.75126   0.19095   0.00000  Uiso   1.00
N225   N     0.44037   0.18179   0.10839   0.00000  Uiso   1.00
N226   N     0.70627   0.53429   0.06360   0.00000  Uiso   1.00
N227   N     0.71632   0.86149   0.14140   0.00000  Uiso   1.00
N228   N     0.44157   0.22835   0.17771   0.00000  Uiso   1.00
N229   N     0.70746   0.58085   0.13293   0.00000  Uiso   1.00
N230   N     0.71752   0.90805   0.21072   0.00000  Uiso   1.00
C231   C     0.91981   0.87022   0.12837   0.00000  Uiso   1.00
C232   C     0.96470   0.84665   0.15440   0.00000  Uiso   1.00
C233   C     0.01028   0.87624   0.14262   0.00000  Uiso   1.00
C234   C     0.04661   0.84711   0.17084   0.00000  Uiso   1.00
C235   C     0.11769   0.81907   0.20537   0.00000  Uiso   1.00
C236   C     0.89647   0.76354   0.11972   0.00000  Uiso   1.00
C237   C     0.88467   0.72326   0.07877   0.00000  Uiso   1.00
C238   C     0.86355   0.62418   0.07780   0.00000  Uiso   1.00
C239   C     0.82866   0.46715   0.05850   0.00000  Uiso   1.00
C240   C     0.88693   0.92897   0.15970   0.00000  Uiso   1.00
C241   C     0.86709   0.02778   0.15236   0.00000  Uiso   1.00
C242   C     0.83794   0.06796   0.18505   0.00000  Uiso   1.00
C243   C     0.78823   0.16779   0.22781   0.00000  Uiso   1.00
C244   C     0.90328   0.76588   0.19945   0.00000  Uiso   1.00
C245   C     0.95572   0.78997   0.19301   0.00000  Uiso   1.00
C246   C     0.99199   0.76079   0.22126   0.00000  Uiso   1.00
C247   C     0.03762   0.79033   0.20951   0.00000  Uiso   1.00
C248   C     0.88749   0.70686   0.15832   0.00000  Uiso   1.00
C249   C     0.86638   0.60782   0.15741   0.00000  Uiso   1.00
C250   C     0.85456   0.56740   0.11648   0.00000  Uiso   1.00
C251   C     0.87795   0.87230   0.19831   0.00000  Uiso   1.00
C252   C     0.84881   0.91233   0.23100   0.00000  Uiso   1.00
C253   C     0.82894   0.01118   0.22372   0.00000  Uiso   1.00
H254   H     0.92680   0.91434   0.09831   0.00000  Uiso   1.00
H255   H     0.01721   0.92009   0.11273   0.00000  Uiso   1.00
H256   H     0.89161   0.76714   0.04890   0.00000  Uiso   1.00
H257   H     0.87405   0.07161   0.12248   0.00000  Uiso   1.00
H258   H     0.11350   0.90143   0.14574   0.00000  Uiso   1.00
H259   H     0.84866   0.57895   0.01115   0.00000  Uiso   1.00
H260   H     0.81161   0.22098   0.16631   0.00000  Uiso   1.00
H261   H     0.89629   0.72175   0.22951   0.00000  Uiso   1.00
H262   H     0.98504   0.71693   0.25113   0.00000  Uiso   1.00
H263   H     0.85944   0.56398   0.18730   0.00000  Uiso   1.00
H264   H     0.84187   0.86845   0.26088   0.00000  Uiso   1.00
H265   H     0.08738   0.73653   0.25807   0.00000  Uiso   1.00
H266   H     0.82254   0.41406   0.12348   0.00000  Uiso   1.00
H267   H     0.78550   0.05609   0.27863   0.00000  Uiso   1.00
O268   O     0.15937   0.81925   0.21375   0.00000  Uiso   1.00
O269   O     0.81190   0.39619   0.03718   0.00000  Uiso   1.00
O270   O     0.76331   0.23852   0.24074   0.00000  Uiso   1.00
N271   N     0.09517   0.86330   0.16921   0.00000  Uiso   1.00
N272   N     0.84757   0.56180   0.04338   0.00000  Uiso   1.00
N273   N     0.81292   0.16203   0.18843   0.00000  Uiso   1.00
N274   N     0.08112   0.77457   0.22965   0.00000  Uiso   1.00
N275   N     0.83352   0.47307   0.10382   0.00000  Uiso   1.00
N276   N     0.79887   0.07330   0.24888   0.00000  Uiso   1.00
C277   C     0.59710   0.02333   0.89319   0.00000  Uiso   1.00
C278   C     0.55275   0.00774   0.86539   0.00000  Uiso   1.00
C279   C     0.50739   0.04030   0.87654   0.00000  Uiso   1.00
C280   C     0.47156   0.01860   0.84667   0.00000  Uiso   1.00
C281   C     0.40127   0.00231   0.80954   0.00000  Uiso   1.00
C282   C     0.61803   0.91343   0.90001   0.00000  Uiso   1.00
C283   C     0.62758   0.86670   0.94027   0.00000  Uiso   1.00
C284   C     0.64670   0.76561   0.93954   0.00000  Uiso   1.00
C285   C     0.67781   0.60294   0.95616   0.00000  Uiso   1.00
C286   C     0.63219   0.08273   0.86422   0.00000  Uiso   1.00
C287   C     0.65365   0.17833   0.87439   0.00000  Uiso   1.00
C288   C     0.68471   0.21976   0.84353   0.00000  Uiso   1.00
C289   C     0.73780   0.31994   0.80457   0.00000  Uiso   1.00
C290   C     0.61411   0.92690   0.82030   0.00000  Uiso   1.00
C291   C     0.56199   0.95536   0.82580   0.00000  Uiso   1.00
C292   C     0.52621   0.93361   0.79591   0.00000  Uiso   1.00
C293   C     0.48081   0.96613   0.80701   0.00000  Uiso   1.00
C294   C     0.62727   0.86105   0.86042   0.00000  Uiso   1.00
C295   C     0.64639   0.76001   0.85963   0.00000  Uiso   1.00
C296   C     0.65596   0.71314   0.89988   0.00000  Uiso   1.00
C297   C     0.64143   0.03035   0.82463   0.00000  Uiso   1.00
C298   C     0.67247   0.07164   0.79375   0.00000  Uiso   1.00
C299   C     0.69397   0.16729   0.80387   0.00000  Uiso   1.00
H300   H     0.58991   0.06411   0.92401   0.00000  Uiso   1.00
H301   H     0.50026   0.08083   0.90719   0.00000  Uiso   1.00
H302   H     0.62043   0.90726   0.97090   0.00000  Uiso   1.00
H303   H     0.64649   0.21884   0.90503   0.00000  Uiso   1.00
H304   H     0.40493   0.07623   0.87108   0.00000  Uiso   1.00
H305   H     0.65832   0.71027   0.00543   0.00000  Uiso   1.00
H306   H     0.71330   0.36730   0.86652   0.00000  Uiso   1.00
H307   H     0.62131   0.88612   0.78948   0.00000  Uiso   1.00
H308   H     0.53337   0.89307   0.76527   0.00000  Uiso   1.00
H309   H     0.65354   0.71950   0.82899   0.00000  Uiso   1.00
H310   H     0.67961   0.03108   0.76312   0.00000  Uiso   1.00
H311   H     0.43180   0.92384   0.75590   0.00000  Uiso   1.00
H312   H     0.68520   0.55788   0.89025   0.00000  Uiso   1.00
H313   H     0.74017   0.21490   0.75134   0.00000  Uiso   1.00
O314   O     0.35995   0.00779   0.80000   0.00000  Uiso   1.00
O315   O     0.69240   0.52768   0.97626   0.00000  Uiso   1.00
O316   O     0.76452   0.38968   0.79402   0.00000  Uiso   1.00
N317   N     0.42332   0.03943   0.84729   0.00000  Uiso   1.00
N318   N     0.66023   0.69727   0.97290   0.00000  Uiso   1.00
N319   N     0.71163   0.31152   0.84304   0.00000  Uiso   1.00
N320   N     0.43778   0.95743   0.78532   0.00000  Uiso   1.00
N321   N     0.67469   0.61527   0.91092   0.00000  Uiso   1.00
N322   N     0.72609   0.22952   0.78106   0.00000  Uiso   1.00
C323   C     0.89529   0.01579   0.91165   0.00000  Uiso   1.00
C324   C     0.94182   0.02032   0.88633   0.00000  Uiso   1.00
C325   C     0.98638   0.99952   0.90347   0.00000  Uiso   1.00
C326   C     0.02454   0.00797   0.87495   0.00000  Uiso   1.00
C327   C     0.09774   0.01077   0.84233   0.00000  Uiso   1.00
C328   C     0.87245   0.12423   0.90624   0.00000  Uiso   1.00
C329   C     0.85867   0.19078   0.94014   0.00000  Uiso   1.00
C330   C     0.83841   0.28669   0.92838   0.00000  Uiso   1.00
C331   C     0.80387   0.45077   0.92669   0.00000  Uiso   1.00
C332   C     0.86375   0.93845   0.88678   0.00000  Uiso   1.00
C333   C     0.84264   0.84882   0.90430   0.00000  Uiso   1.00
C334   C     0.81505   0.78833   0.87615   0.00000  Uiso   1.00
C335   C     0.76700   0.66397   0.84423   0.00000  Uiso   1.00
C336   C     0.88381   0.06778   0.83050   0.00000  Uiso   1.00
C337   C     0.93559   0.04856   0.84225   0.00000  Uiso   1.00
C338   C     0.97368   0.05704   0.81369   0.00000  Uiso   1.00
C339   C     0.01829   0.03626   0.83079   0.00000  Uiso   1.00
C340   C     0.86621   0.15247   0.86217   0.00000  Uiso   1.00
C341   C     0.84597   0.24830   0.85036   0.00000  Uiso   1.00
C342   C     0.83217   0.31499   0.88422   0.00000  Uiso   1.00
C343   C     0.85751   0.96669   0.84270   0.00000  Uiso   1.00
C344   C     0.82994   0.90634   0.81452   0.00000  Uiso   1.00
C345   C     0.80880   0.81662   0.83200   0.00000  Uiso   1.00
H346   H     0.90015   0.99381   0.94597   0.00000  Uiso   1.00
H347   H     0.99119   0.97768   0.93759   0.00000  Uiso   1.00
H348   H     0.86349   0.16890   0.97424   0.00000  Uiso   1.00
H349   H     0.84747   0.82699   0.93841   0.00000  Uiso   1.00
H350   H     0.08939   0.97229   0.90886   0.00000  Uiso   1.00
H351   H     0.82011   0.37548   0.98615   0.00000  Uiso   1.00
H352   H     0.78633   0.65449   0.91060   0.00000  Uiso   1.00
H353   H     0.87896   0.08976   0.79618   0.00000  Uiso   1.00
H354   H     0.96885   0.07890   0.77958   0.00000  Uiso   1.00
H355   H     0.84115   0.27012   0.81624   0.00000  Uiso   1.00
H356   H     0.82512   0.92821   0.78041   0.00000  Uiso   1.00
H357   H     0.07125   0.05445   0.78062   0.00000  Uiso   1.00
H358   H     0.80197   0.45764   0.85791   0.00000  Uiso   1.00
H359   H     0.76819   0.73665   0.78236   0.00000  Uiso   1.00
O360   O     0.13984   0.00453   0.83652   0.00000  Uiso   1.00
O361   O     0.78655   0.53348   0.93793   0.00000  Uiso   1.00
O362   O     0.74222   0.58756   0.83880   0.00000  Uiso   1.00
N363   N     0.07278   0.99310   0.88095   0.00000  Uiso   1.00
N364   N     0.82103   0.37006   0.95322   0.00000  Uiso   1.00
N365   N     0.78944   0.69601   0.88258   0.00000  Uiso   1.00
N366   N     0.06302   0.03730   0.81195   0.00000  Uiso   1.00
N367   N     0.81127   0.41427   0.88422   0.00000  Uiso   1.00
N368   N     0.77968   0.74022   0.81358   0.00000  Uiso   1.00
C369   C     0.87914   0.68838   0.59837   0.00000  Uiso   1.00
C370   C     0.92859   0.69792   0.61807   0.00000  Uiso   1.00
C371   C     0.97083   0.68003   0.59602   0.00000  Uiso   1.00
C372   C     0.01234   0.69294   0.61985   0.00000  Uiso   1.00
C373   C     0.08924   0.70329   0.64370   0.00000  Uiso   1.00
C374   C     0.85531   0.79509   0.60573   0.00000  Uiso   1.00
C375   C     0.83594   0.85888   0.57330   0.00000  Uiso   1.00
C376   C     0.81576   0.95358   0.58674   0.00000  Uiso   1.00
C377   C     0.77886   0.11474   0.59143   0.00000  Uiso   1.00
C378   C     0.85255   0.60966   0.62717   0.00000  Uiso   1.00
C379   C     0.83084   0.51755   0.61277   0.00000  Uiso   1.00
C380   C     0.80832   0.45614   0.64425   0.00000  Uiso   1.00
C381   C     0.76714   0.32940   0.68223   0.00000  Uiso   1.00
C382   C     0.87773   0.74314   0.67989   0.00000  Uiso   1.00
C383   C     0.92782   0.72767   0.66235   0.00000  Uiso   1.00
C384   C     0.96927   0.74061   0.68622   0.00000  Uiso   1.00
C385   C     0.01157   0.72273   0.66421   0.00000  Uiso   1.00
C386   C     0.85454   0.82483   0.65001   0.00000  Uiso   1.00
C387   C     0.83438   0.91946   0.66349   0.00000  Uiso   1.00
C388   C     0.81499   0.98338   0.63110   0.00000  Uiso   1.00
C389   C     0.85178   0.63940   0.67145   0.00000  Uiso   1.00
C390   C     0.82929   0.57813   0.70296   0.00000  Uiso   1.00
C391   C     0.80755   0.48594   0.68861   0.00000  Uiso   1.00
H392   H     0.87973   0.66523   0.56389   0.00000  Uiso   1.00
H393   H     0.97141   0.65702   0.56175   0.00000  Uiso   1.00
H394   H     0.83653   0.83583   0.53904   0.00000  Uiso   1.00
H395   H     0.83144   0.49456   0.57850   0.00000  Uiso   1.00
H396   H     0.07271   0.66108   0.57890   0.00000  Uiso   1.00
H397   H     0.78831   0.03810   0.53101   0.00000  Uiso   1.00
H398   H     0.77757   0.31845   0.61422   0.00000  Uiso   1.00
H399   H     0.87713   0.76629   0.71436   0.00000  Uiso   1.00
H400   H     0.96867   0.76363   0.72048   0.00000  Uiso   1.00
H401   H     0.83379   0.94245   0.69776   0.00000  Uiso   1.00
H402   H     0.82870   0.60117   0.73723   0.00000  Uiso   1.00
H403   H     0.07049   0.74761   0.70773   0.00000  Uiso   1.00
H404   H     0.78608   0.12463   0.65983   0.00000  Uiso   1.00
H405   H     0.77534   0.40498   0.74305   0.00000  Uiso   1.00
O406   O     0.13187   0.70080   0.64463   0.00000  Uiso   1.00
O407   O     0.75873   0.19542   0.58178   0.00000  Uiso   1.00
O408   O     0.74464   0.25126   0.69095   0.00000  Uiso   1.00
N409   N     0.05963   0.68179   0.60839   0.00000  Uiso   1.00
N410   N     0.79373   0.03429   0.56360   0.00000  Uiso   1.00
N411   N     0.78368   0.36149   0.64140   0.00000  Uiso   1.00
N412   N     0.05843   0.72835   0.67771   0.00000  Uiso   1.00
N413   N     0.79254   0.08085   0.63293   0.00000  Uiso   1.00
N414   N     0.78248   0.40805   0.71072   0.00000  Uiso   1.00
C415   C     0.58019   0.37022   0.62837   0.00000  Uiso   1.00
C416   C     0.53530   0.34665   0.65440   0.00000  Uiso   1.00
C417   C     0.48972   0.37624   0.64262   0.00000  Uiso   1.00
C418   C     0.45339   0.34711   0.67084   0.00000  Uiso   1.00
C419   C     0.38231   0.31907   0.70537   0.00000  Uiso   1.00
C420   C     0.60353   0.26354   0.61972   0.00000  Uiso   1.00
C421   C     0.61533   0.22326   0.57877   0.00000  Uiso   1.00
C422   C     0.63645   0.12418   0.57780   0.00000  Uiso   1.00
C423   C     0.67134   0.96715   0.55850   0.00000  Uiso   1.00
C424   C     0.61307   0.42897   0.65970   0.00000  Uiso   1.00
C425   C     0.63291   0.52778   0.65236   0.00000  Uiso   1.00
C426   C     0.66206   0.56796   0.68505   0.00000  Uiso   1.00
C427   C     0.71177   0.66779   0.72781   0.00000  Uiso   1.00
C428   C     0.59672   0.26588   0.69945   0.00000  Uiso   1.00
C429   C     0.54428   0.28997   0.69301   0.00000  Uiso   1.00
C430   C     0.50801   0.26079   0.72126   0.00000  Uiso   1.00
C431   C     0.46238   0.29033   0.70951   0.00000  Uiso   1.00
C432   C     0.61251   0.20686   0.65832   0.00000  Uiso   1.00
C433   C     0.63362   0.10782   0.65741   0.00000  Uiso   1.00
C434   C     0.64544   0.06740   0.61648   0.00000  Uiso   1.00
C435   C     0.62205   0.37230   0.69831   0.00000  Uiso   1.00
C436   C     0.65119   0.41233   0.73100   0.00000  Uiso   1.00
C437   C     0.67106   0.51118   0.72372   0.00000  Uiso   1.00
H438   H     0.57320   0.41434   0.59831   0.00000  Uiso   1.00
H439   H     0.48279   0.42009   0.61273   0.00000  Uiso   1.00
H440   H     0.60839   0.26714   0.54890   0.00000  Uiso   1.00
H441   H     0.62595   0.57161   0.62248   0.00000  Uiso   1.00
H442   H     0.38650   0.40143   0.64574   0.00000  Uiso   1.00
H443   H     0.65134   0.07895   0.51115   0.00000  Uiso   1.00
H444   H     0.68839   0.72098   0.66631   0.00000  Uiso   1.00
H445   H     0.60371   0.22175   0.72951   0.00000  Uiso   1.00
H446   H     0.51496   0.21693   0.75113   0.00000  Uiso   1.00
H447   H     0.64056   0.06398   0.68730   0.00000  Uiso   1.00
H448   H     0.65813   0.36845   0.76088   0.00000  Uiso   1.00
H449   H     0.41262   0.23653   0.75807   0.00000  Uiso   1.00
H450   H     0.67746   0.91406   0.62348   0.00000  Uiso   1.00
H451   H     0.71450   0.55609   0.77863   0.00000  Uiso   1.00
O452   O     0.34063   0.31925   0.71375   0.00000  Uiso   1.00
O453   O     0.68810   0.89619   0.53718   0.00000  Uiso   1.00
O454   O     0.73669   0.73852   0.74074   0.00000  Uiso   1.00
N455   N     0.40483   0.36330   0.66921   0.00000  Uiso   1.00
N456   N     0.65243   0.06180   0.54338   0.00000  Uiso   1.00
N457   N     0.68708   0.66203   0.68843   0.00000  Uiso   1.00
N458   N     0.41888   0.27457   0.72965   0.00000  Uiso   1.00
N459   N     0.66648   0.97307   0.60382   0.00000  Uiso   1.00
N460   N     0.70113   0.57330   0.74888   0.00000  Uiso   1.00
C461   C     0.90290   0.52333   0.39319   0.00000  Uiso   1.00
C462   C     0.94725   0.50774   0.36539   0.00000  Uiso   1.00
C463   C     0.99261   0.54030   0.37654   0.00000  Uiso   1.00
C464   C     0.02844   0.51860   0.34667   0.00000  Uiso   1.00
C465   C     0.09873   0.50231   0.30954   0.00000  Uiso   1.00
C466   C     0.88197   0.41343   0.40001   0.00000  Uiso   1.00
C467   C     0.87242   0.36670   0.44027   0.00000  Uiso   1.00
C468   C     0.85330   0.26561   0.43954   0.00000  Uiso   1.00
C469   C     0.82219   0.10294   0.45616   0.00000  Uiso   1.00
C470   C     0.86781   0.58273   0.36422   0.00000  Uiso   1.00
C471   C     0.84635   0.67833   0.37439   0.00000  Uiso   1.00
C472   C     0.81529   0.71976   0.34353   0.00000  Uiso   1.00
C473   C     0.76220   0.81994   0.30457   0.00000  Uiso   1.00
C474   C     0.88589   0.42690   0.32030   0.00000  Uiso   1.00
C475   C     0.93801   0.45536   0.32580   0.00000  Uiso   1.00
C476   C     0.97379   0.43361   0.29591   0.00000  Uiso   1.00
C477   C     0.01919   0.46613   0.30701   0.00000  Uiso   1.00
C478   C     0.87273   0.36105   0.36042   0.00000  Uiso   1.00
C479   C     0.85361   0.26001   0.35963   0.00000  Uiso   1.00
C480   C     0.84404   0.21314   0.39988   0.00000  Uiso   1.00
C481   C     0.85857   0.53035   0.32463   0.00000  Uiso   1.00
C482   C     0.82753   0.57164   0.29375   0.00000  Uiso   1.00
C483   C     0.80603   0.66729   0.30387   0.00000  Uiso   1.00
H484   H     0.91009   0.56411   0.42401   0.00000  Uiso   1.00
H485   H     0.99974   0.58083   0.40719   0.00000  Uiso   1.00
H486   H     0.87957   0.40726   0.47090   0.00000  Uiso   1.00
H487   H     0.85351   0.71884   0.40503   0.00000  Uiso   1.00
H488   H     0.09507   0.57623   0.37108   0.00000  Uiso   1.00
H489   H     0.84168   0.21027   0.50543   0.00000  Uiso   1.00
H490   H     0.78670   0.86730   0.36652   0.00000  Uiso   1.00
H491   H     0.87869   0.38612   0.28948   0.00000  Uiso   1.00
H492   H     0.96663   0.39307   0.26527   0.00000  Uiso   1.00
H493   H     0.84646   0.21950   0.32899   0.00000  Uiso   1.00
H494   H     0.82039   0.53108   0.26312   0.00000  Uiso   1.00
H495   H     0.06820   0.42384   0.25590   0.00000  Uiso   1.00
H496   H     0.81480   0.05788   0.39025   0.00000  Uiso   1.00
H497   H     0.75983   0.71490   0.25134   0.00000  Uiso   1.00
O498   O     0.14005   0.50779   0.30000   0.00000  Uiso   1.00
O499   O     0.80760   0.02768   0.47626   0.00000  Uiso   1.00
O500   O     0.73548   0.88968   0.29402   0.00000  Uiso   1.00
N501   N     0.07668   0.53943   0.34729   0.00000  Uiso   1.00
N502   N     0.83977   0.19727   0.47290   0.00000  Uiso   1.00
N503   N     0.78837   0.81152   0.34304   0.00000  Uiso   1.00
N504   N     0.06222   0.45743   0.28532   0.00000  Uiso   1.00
N505   N     0.82531   0.11527   0.41092   0.00000  Uiso   1.00
N506   N     0.77391   0.72952   0.28106   0.00000  Uiso   1.00
C507   C     0.60471   0.51579   0.41165   0.00000  Uiso   1.00
C508   C     0.55818   0.52032   0.38633   0.00000  Uiso   1.00
C509   C     0.51362   0.49952   0.40347   0.00000  Uiso   1.00
C510   C     0.47546   0.50797   0.37495   0.00000  Uiso   1.00
C511   C     0.40226   0.51077   0.34233   0.00000  Uiso   1.00
C512   C     0.62755   0.62423   0.40624   0.00000  Uiso   1.00
C513   C     0.64133   0.69078   0.44014   0.00000  Uiso   1.00
C514   C     0.66159   0.78669   0.42838   0.00000  Uiso   1.00
C515   C     0.69613   0.95077   0.42669   0.00000  Uiso   1.00
C516   C     0.63625   0.43845   0.38678   0.00000  Uiso   1.00
C517   C     0.65736   0.34882   0.40430   0.00000  Uiso   1.00
C518   C     0.68495   0.28833   0.37615   0.00000  Uiso   1.00
C519   C     0.73300   0.16397   0.34423   0.00000  Uiso   1.00
C520   C     0.61619   0.56778   0.33050   0.00000  Uiso   1.00
C521   C     0.56441   0.54856   0.34225   0.00000  Uiso   1.00
C522   C     0.52632   0.55704   0.31369   0.00000  Uiso   1.00
C523   C     0.48171   0.53626   0.33079   0.00000  Uiso   1.00
C524   C     0.63379   0.65247   0.36217   0.00000  Uiso   1.00
C525   C     0.65403   0.74830   0.35036   0.00000  Uiso   1.00
C526   C     0.66783   0.81499   0.38422   0.00000  Uiso   1.00
C527   C     0.64249   0.46669   0.34270   0.00000  Uiso   1.00
C528   C     0.67006   0.40634   0.31452   0.00000  Uiso   1.00
C529   C     0.69120   0.31662   0.33200   0.00000  Uiso   1.00
H530   H     0.59985   0.49381   0.44597   0.00000  Uiso   1.00
H531   H     0.50881   0.47768   0.43759   0.00000  Uiso   1.00
H532   H     0.63651   0.66890   0.47424   0.00000  Uiso   1.00
H533   H     0.65253   0.32699   0.43841   0.00000  Uiso   1.00
H534   H     0.41061   0.47229   0.40886   0.00000  Uiso   1.00
H535   H     0.67989   0.87548   0.48615   0.00000  Uiso   1.00
H536   H     0.71367   0.15449   0.41060   0.00000  Uiso   1.00
H537   H     0.62104   0.58976   0.29618   0.00000  Uiso   1.00
H538   H     0.53115   0.57890   0.27958   0.00000  Uiso   1.00
H539   H     0.65885   0.77012   0.31624   0.00000  Uiso   1.00
H540   H     0.67488   0.42821   0.28041   0.00000  Uiso   1.00
H541   H     0.42875   0.55445   0.28062   0.00000  Uiso   1.00
H542   H     0.69803   0.95764   0.35791   0.00000  Uiso   1.00
H543   H     0.73181   0.23665   0.28236   0.00000  Uiso   1.00
O544   O     0.36016   0.50453   0.33652   0.00000  Uiso   1.00
O545   O     0.71345   0.03348   0.43793   0.00000  Uiso   1.00
O546   O     0.75778   0.08756   0.33880   0.00000  Uiso   1.00
N547   N     0.42722   0.49310   0.38095   0.00000  Uiso   1.00
N548   N     0.67897   0.87006   0.45322   0.00000  Uiso   1.00
N549   N     0.71056   0.19601   0.38258   0.00000  Uiso   1.00
N550   N     0.43698   0.53730   0.31195   0.00000  Uiso   1.00
N551   N     0.68873   0.91427   0.38422   0.00000  Uiso   1.00
N552   N     0.72032   0.24022   0.31358   0.00000  Uiso   1.00
C553   C     0.12086   0.31162   0.09837   0.00000  Uiso   1.00
C554   C     0.07141   0.30208   0.11807   0.00000  Uiso   1.00
C555   C     0.02917   0.31997   0.09602   0.00000  Uiso   1.00
C556   C     0.98766   0.30706   0.11985   0.00000  Uiso   1.00
C557   C     0.91076   0.29671   0.14370   0.00000  Uiso   1.00
C558   C     0.14469   0.20491   0.10573   0.00000  Uiso   1.00
C559   C     0.16406   0.14112   0.07330   0.00000  Uiso   1.00
C560   C     0.18424   0.04642   0.08674   0.00000  Uiso   1.00
C561   C     0.22114   0.88526   0.09143   0.00000  Uiso   1.00
C562   C     0.14745   0.39034   0.12717   0.00000  Uiso   1.00
C563   C     0.16916   0.48245   0.11277   0.00000  Uiso   1.00
C564   C     0.19168   0.54386   0.14425   0.00000  Uiso   1.00
C565   C     0.23286   0.67060   0.18223   0.00000  Uiso   1.00
C566   C     0.12227   0.25686   0.17989   0.00000  Uiso   1.00
C567   C     0.07218   0.27233   0.16235   0.00000  Uiso   1.00
C568   C     0.03073   0.25939   0.18622   0.00000  Uiso   1.00
C569   C     0.98843   0.27727   0.16421   0.00000  Uiso   1.00
C570   C     0.14546   0.17517   0.15001   0.00000  Uiso   1.00
C571   C     0.16562   0.08054   0.16349   0.00000  Uiso   1.00
C572   C     0.18501   0.01662   0.13110   0.00000  Uiso   1.00
C573   C     0.14822   0.36060   0.17145   0.00000  Uiso   1.00
C574   C     0.17071   0.42187   0.20296   0.00000  Uiso   1.00
C575   C     0.19245   0.51406   0.18861   0.00000  Uiso   1.00
H576   H     0.12027   0.33477   0.06389   0.00000  Uiso   1.00
H577   H     0.02859   0.34298   0.06175   0.00000  Uiso   1.00
H578   H     0.16347   0.16417   0.03904   0.00000  Uiso   1.00
H579   H     0.16856   0.50544   0.07850   0.00000  Uiso   1.00
H580   H     0.92729   0.33892   0.07890   0.00000  Uiso   1.00
H581   H     0.21169   0.96190   0.03101   0.00000  Uiso   1.00
H582   H     0.22243   0.68155   0.11422   0.00000  Uiso   1.00
H583   H     0.12287   0.23371   0.21436   0.00000  Uiso   1.00
H584   H     0.03133   0.23637   0.22048   0.00000  Uiso   1.00
H585   H     0.16621   0.05755   0.19776   0.00000  Uiso   1.00
H586   H     0.17130   0.39883   0.23723   0.00000  Uiso   1.00
H587   H     0.92951   0.25239   0.20773   0.00000  Uiso   1.00
H588   H     0.21392   0.87537   0.15983   0.00000  Uiso   1.00
H589   H     0.22466   0.59502   0.24305   0.00000  Uiso   1.00
O590   O     0.86813   0.29920   0.14463   0.00000  Uiso   1.00
O591   O     0.24127   0.80458   0.08178   0.00000  Uiso   1.00
O592   O     0.25536   0.74874   0.19095   0.00000  Uiso   1.00
N593   N     0.94037   0.31821   0.10839   0.00000  Uiso   1.00
N594   N     0.20627   0.96571   0.06360   0.00000  Uiso   1.00
N595   N     0.21632   0.63851   0.14140   0.00000  Uiso   1.00
N596   N     0.94157   0.27165   0.17771   0.00000  Uiso   1.00
N597   N     0.20746   0.91915   0.13293   0.00000  Uiso   1.00
N598   N     0.21752   0.59195   0.21072   0.00000  Uiso   1.00
C599   C     0.41981   0.62978   0.12837   0.00000  Uiso   1.00
C600   C     0.46470   0.65335   0.15440   0.00000  Uiso   1.00
C601   C     0.51028   0.62376   0.14262   0.00000  Uiso   1.00
C602   C     0.54661   0.65289   0.17084   0.00000  Uiso   1.00
C603   C     0.61769   0.68093   0.20537   0.00000  Uiso   1.00
C604   C     0.39647   0.73646   0.11972   0.00000  Uiso   1.00
C605   C     0.38467   0.77674   0.07877   0.00000  Uiso   1.00
C606   C     0.36355   0.87582   0.07780   0.00000  Uiso   1.00
C607   C     0.32866   0.03285   0.05850   0.00000  Uiso   1.00
C608   C     0.38693   0.57103   0.15970   0.00000  Uiso   1.00
C609   C     0.36709   0.47222   0.15236   0.00000  Uiso   1.00
C610   C     0.33794   0.43204   0.18505   0.00000  Uiso   1.00
C611   C     0.28823   0.33221   0.22781   0.00000  Uiso   1.00
C612   C     0.40328   0.73412   0.19945   0.00000  Uiso   1.00
C613   C     0.45572   0.71003   0.19301   0.00000  Uiso   1.00
C614   C     0.49199   0.73921   0.22126   0.00000  Uiso   1.00
C615   C     0.53762   0.70967   0.20951   0.00000  Uiso   1.00
C616   C     0.38749   0.79314   0.15832   0.00000  Uiso   1.00
C617   C     0.36638   0.89218   0.15741   0.00000  Uiso   1.00
C618   C     0.35456   0.93260   0.11648   0.00000  Uiso   1.00
C619   C     0.37795   0.62770   0.19831   0.00000  Uiso   1.00
C620   C     0.34881   0.58767   0.23100   0.00000  Uiso   1.00
C621   C     0.32894   0.48882   0.22372   0.00000  Uiso   1.00
H622   H     0.42680   0.58566   0.09831   0.00000  Uiso   1.00
H623   H     0.51721   0.57991   0.11273   0.00000  Uiso   1.00
H624   H     0.39161   0.73286   0.04890   0.00000  Uiso   1.00
H625   H     0.37405   0.42839   0.12248   0.00000  Uiso   1.00
H626   H     0.61350   0.59857   0.14574   0.00000  Uiso   1.00
H627   H     0.34866   0.92105   0.01115   0.00000  Uiso   1.00
H628   H     0.31161   0.27902   0.16631   0.00000  Uiso   1.00
H629   H     0.39629   0.77825   0.22951   0.00000  Uiso   1.00
H630   H     0.48504   0.78307   0.25113   0.00000  Uiso   1.00
H631   H     0.35944   0.93602   0.18730   0.00000  Uiso   1.00
H632   H     0.34187   0.63155   0.26088   0.00000  Uiso   1.00
H633   H     0.58738   0.76347   0.25807   0.00000  Uiso   1.00
H634   H     0.32254   0.08594   0.12348   0.00000  Uiso   1.00
H635   H     0.28550   0.44391   0.27863   0.00000  Uiso   1.00
O636   O     0.65937   0.68075   0.21375   0.00000  Uiso   1.00
O637   O     0.31190   0.10381   0.03718   0.00000  Uiso   1.00
O638   O     0.26331   0.26148   0.24074   0.00000  Uiso   1.00
N639   N     0.59517   0.63670   0.16921   0.00000  Uiso   1.00
N640   N     0.34757   0.93820   0.04338   0.00000  Uiso   1.00
N641   N     0.31292   0.33797   0.18843   0.00000  Uiso   1.00
N642   N     0.58112   0.72543   0.22965   0.00000  Uiso   1.00
N643   N     0.33352   0.02693   0.10382   0.00000  Uiso   1.00
N644   N     0.29887   0.42670   0.24888   0.00000  Uiso   1.00
C645   C     0.09710   0.47667   0.89319   0.00000  Uiso   1.00
C646   C     0.05275   0.49226   0.86539   0.00000  Uiso   1.00
C647   C     0.00739   0.45970   0.87654   0.00000  Uiso   1.00
C648   C     0.97156   0.48140   0.84667   0.00000  Uiso   1.00
C649   C     0.90127   0.49769   0.80954   0.00000  Uiso   1.00
C650   C     0.11803   0.58657   0.90001   0.00000  Uiso   1.00
C651   C     0.12758   0.63330   0.94027   0.00000  Uiso   1.00
C652   C     0.14670   0.73439   0.93954   0.00000  Uiso   1.00
C653   C     0.17781   0.89706   0.95616   0.00000  Uiso   1.00
C654   C     0.13219   0.41727   0.86422   0.00000  Uiso   1.00
C655   C     0.15365   0.32167   0.87439   0.00000  Uiso   1.00
C656   C     0.18471   0.28024   0.84353   0.00000  Uiso   1.00
C657   C     0.23780   0.18006   0.80457   0.00000  Uiso   1.00
C658   C     0.11411   0.57310   0.82030   0.00000  Uiso   1.00
C659   C     0.06199   0.54464   0.82580   0.00000  Uiso   1.00
C660   C     0.02621   0.56639   0.79591   0.00000  Uiso   1.00
C661   C     0.98081   0.53387   0.80701   0.00000  Uiso   1.00
C662   C     0.12727   0.63895   0.86042   0.00000  Uiso   1.00
C663   C     0.14639   0.73999   0.85963   0.00000  Uiso   1.00
C664   C     0.15596   0.78686   0.89988   0.00000  Uiso   1.00
C665   C     0.14143   0.46965   0.82463   0.00000  Uiso   1.00
C666   C     0.17247   0.42836   0.79375   0.00000  Uiso   1.00
C667   C     0.19397   0.33271   0.80387   0.00000  Uiso   1.00
H668   H     0.08991   0.43589   0.92401   0.00000  Uiso   1.00
H669   H     0.00026   0.41917   0.90719   0.00000  Uiso   1.00
H670   H     0.12043   0.59274   0.97090   0.00000  Uiso   1.00
H671   H     0.14649   0.28116   0.90503   0.00000  Uiso   1.00
H672   H     0.90493   0.42377   0.87108   0.00000  Uiso   1.00
H673   H     0.15832   0.78973   0.00543   0.00000  Uiso   1.00
H674   H     0.21330   0.13270   0.86652   0.00000  Uiso   1.00
H675   H     0.12131   0.61388   0.78948   0.00000  Uiso   1.00
H676   H     0.03337   0.60693   0.76527   0.00000  Uiso   1.00
H677   H     0.15354   0.78050   0.82899   0.00000  Uiso   1.00
H678   H     0.17961   0.46892   0.76312   0.00000  Uiso   1.00
H679   H     0.93180   0.57616   0.75590   0.00000  Uiso   1.00
H680   H     0.18520   0.94212   0.89025   0.00000  Uiso   1.00
H681   H     0.24017   0.28510   0.75134   0.00000  Uiso   1.00
O682   O     0.85995   0.49221   0.80000   0.00000  Uiso   1.00
O683   O     0.19240   0.97232   0.97626   0.00000  Uiso   1.00
O684   O     0.26452   0.11032   0.79402   0.00000  Uiso   1.00
N685   N     0.92332   0.46057   0.84729   0.00000  Uiso   1.00
N686   N     0.16023   0.80273   0.97290   0.00000  Uiso   1.00
N687   N     0.21163   0.18848   0.84304   0.00000  Uiso   1.00
N688   N     0.93778   0.54257   0.78532   0.00000  Uiso   1.00
N689   N     0.17469   0.88473   0.91092   0.00000  Uiso   1.00
N690   N     0.22609   0.27048   0.78106   0.00000  Uiso   1.00
C691   C     0.39529   0.48421   0.91165   0.00000  Uiso   1.00
C692   C     0.44182   0.47968   0.88633   0.00000  Uiso   1.00
C693   C     0.48638   0.50048   0.90347   0.00000  Uiso   1.00
C694   C     0.52454   0.49203   0.87495   0.00000  Uiso   1.00
C695   C     0.59774   0.48923   0.84233   0.00000  Uiso   1.00
C696   C     0.37245   0.37577   0.90624   0.00000  Uiso   1.00
C697   C     0.35867   0.30922   0.94014   0.00000  Uiso   1.00
C698   C     0.33841   0.21331   0.92838   0.00000  Uiso   1.00
C699   C     0.30387   0.04923   0.92669   0.00000  Uiso   1.00
C700   C     0.36375   0.56155   0.88678   0.00000  Uiso   1.00
C701   C     0.34264   0.65118   0.90430   0.00000  Uiso   1.00
C702   C     0.31505   0.71167   0.87615   0.00000  Uiso   1.00
C703   C     0.26700   0.83603   0.84423   0.00000  Uiso   1.00
C704   C     0.38381   0.43222   0.83050   0.00000  Uiso   1.00
C705   C     0.43559   0.45144   0.84225   0.00000  Uiso   1.00
C706   C     0.47368   0.44296   0.81369   0.00000  Uiso   1.00
C707   C     0.51829   0.46374   0.83079   0.00000  Uiso   1.00
C708   C     0.36621   0.34753   0.86217   0.00000  Uiso   1.00
C709   C     0.34597   0.25170   0.85036   0.00000  Uiso   1.00
C710   C     0.33217   0.18501   0.88422   0.00000  Uiso   1.00
C711   C     0.35751   0.53331   0.84270   0.00000  Uiso   1.00
C712   C     0.32994   0.59366   0.81452   0.00000  Uiso   1.00
C713   C     0.30880   0.68338   0.83200   0.00000  Uiso   1.00
H714   H     0.40015   0.50619   0.94597   0.00000  Uiso   1.00
H715   H     0.49119   0.52232   0.93759   0.00000  Uiso   1.00
H716   H     0.36349   0.33110   0.97424   0.00000  Uiso   1.00
H717   H     0.34747   0.67301   0.93841   0.00000  Uiso   1.00
H718   H     0.58939   0.52771   0.90886   0.00000  Uiso   1.00
H719   H     0.32011   0.12452   0.98615   0.00000  Uiso   1.00
H720   H     0.28633   0.84551   0.91060   0.00000  Uiso   1.00
H721   H     0.37896   0.41024   0.79618   0.00000  Uiso   1.00
H722   H     0.46885   0.42110   0.77958   0.00000  Uiso   1.00
H723   H     0.34115   0.22988   0.81624   0.00000  Uiso   1.00
H724   H     0.32512   0.57179   0.78041   0.00000  Uiso   1.00
H725   H     0.57125   0.44555   0.78062   0.00000  Uiso   1.00
H726   H     0.30197   0.04236   0.85791   0.00000  Uiso   1.00
H727   H     0.26819   0.76335   0.78236   0.00000  Uiso   1.00
O728   O     0.63984   0.49547   0.83652   0.00000  Uiso   1.00
O729   O     0.28655   0.96652   0.93793   0.00000  Uiso   1.00
O730   O     0.24222   0.91244   0.83880   0.00000  Uiso   1.00
N731   N     0.57278   0.50690   0.88095   0.00000  Uiso   1.00
N732   N     0.32103   0.12994   0.95322   0.00000  Uiso   1.00
N733   N     0.28944   0.80399   0.88258   0.00000  Uiso   1.00
N734   N     0.56302   0.46270   0.81195   0.00000  Uiso   1.00
N735   N     0.31127   0.08573   0.88422   0.00000  Uiso   1.00
N736   N     0.27968   0.75978   0.81358   0.00000  Uiso   1.00
