data_job_02764
_audit_creation_date              2018-12-19
_audit_creation_method            'Materials Studio'
_symmetry_space_group_name_H-M    'P1'
_symmetry_Int_Tables_number       1
_symmetry_cell_setting            triclinic
loop_
_symmetry_equiv_pos_as_xyz
  x,y,z
_cell_length_a                    27.7041
_cell_length_b                    27.7041
_cell_length_c                    16.3916
_cell_angle_alpha                 90.0000
_cell_angle_beta                  90.0000
_cell_angle_gamma                 90.0000
loop_
_atom_site_label
_atom_site_type_symbol
_atom_site_fract_x
_atom_site_fract_y
_atom_site_fract_z
_atom_site_U_iso_or_equiv
_atom_site_adp_type
_atom_site_occupancy
C1     C     0.28794   0.38611   0.72799   0.00000  Uiso   1.00
C2     C     0.29651   0.39362   0.63698   0.00000  Uiso   1.00
C3     C     0.27890   0.43168   0.59067   0.00000  Uiso   1.00
C4     C     0.29076   0.43204   0.50838   0.00000  Uiso   1.00
C5     C     0.29971   0.44923   0.37232   0.00000  Uiso   1.00
C6     C     0.26537   0.33615   0.73642   0.00000  Uiso   1.00
C7     C     0.22159   0.32590   0.77373   0.00000  Uiso   1.00
C8     C     0.20724   0.27789   0.77515   0.00000  Uiso   1.00
C9     C     0.16787   0.20585   0.79352   0.00000  Uiso   1.00
C10    C     0.33782   0.38262   0.76686   0.00000  Uiso   1.00
C11    C     0.35495   0.41142   0.82979   0.00000  Uiso   1.00
C12    C     0.40160   0.40252   0.85686   0.00000  Uiso   1.00
C13    C     0.47473   0.40263   0.92251   0.00000  Uiso   1.00
C14    C     0.34031   0.31908   0.66419   0.00000  Uiso   1.00
C15    C     0.32495   0.35721   0.60232   0.00000  Uiso   1.00
C16    C     0.33684   0.35752   0.52008   0.00000  Uiso   1.00
C17    C     0.31926   0.39557   0.47366   0.00000  Uiso   1.00
C18    C     0.29382   0.29974   0.70176   0.00000  Uiso   1.00
C19    C     0.27953   0.25174   0.70314   0.00000  Uiso   1.00
C20    C     0.23574   0.24141   0.74043   0.00000  Uiso   1.00
C21    C     0.36627   0.34621   0.73221   0.00000  Uiso   1.00
C22    C     0.41290   0.33726   0.75919   0.00000  Uiso   1.00
C23    C     0.43010   0.36605   0.82215   0.00000  Uiso   1.00
H24    H     0.26579   0.41445   0.75498   0.00000  Uiso   1.00
H25    H     0.25688   0.45984   0.61751   0.00000  Uiso   1.00
H26    H     0.19958   0.35408   0.80055   0.00000  Uiso   1.00
H27    H     0.33293   0.43959   0.85659   0.00000  Uiso   1.00
H28    H     0.25954   0.49410   0.44982   0.00000  Uiso   1.00
H29    H     0.13872   0.27109   0.83578   0.00000  Uiso   1.00
H30    H     0.41991   0.45141   0.95397   0.00000  Uiso   1.00
H31    H     0.36246   0.29073   0.63721   0.00000  Uiso   1.00
H32    H     0.35886   0.32934   0.49328   0.00000  Uiso   1.00
H33    H     0.30156   0.22357   0.67631   0.00000  Uiso   1.00
H34    H     0.43490   0.30908   0.73236   0.00000  Uiso   1.00
H35    H     0.34230   0.38818   0.34898   0.00000  Uiso   1.00
H36    H     0.22149   0.16516   0.73495   0.00000  Uiso   1.00
H37    H     0.50268   0.34549   0.85314   0.00000  Uiso   1.00
O38    O     0.29679   0.46876   0.30684   0.00000  Uiso   1.00
O39    O     0.13830   0.17618   0.81322   0.00000  Uiso   1.00
O40    O     0.50721   0.41276   0.96828   0.00000  Uiso   1.00
N41    N     0.27952   0.46388   0.44584   0.00000  Uiso   1.00
N42    N     0.16656   0.25538   0.80668   0.00000  Uiso   1.00
N43    N     0.42945   0.42396   0.91720   0.00000  Uiso   1.00
N44    N     0.32405   0.40688   0.39159   0.00000  Uiso   1.00
N45    N     0.21110   0.19838   0.75243   0.00000  Uiso   1.00
N46    N     0.47398   0.36696   0.86294   0.00000  Uiso   1.00
C47    C     0.78794   0.88611   0.22799   0.00000  Uiso   1.00
C48    C     0.79651   0.89362   0.13698   0.00000  Uiso   1.00
C49    C     0.77890   0.93168   0.09067   0.00000  Uiso   1.00
C50    C     0.79076   0.93204   0.00838   0.00000  Uiso   1.00
C51    C     0.79971   0.94923   0.87232   0.00000  Uiso   1.00
C52    C     0.76537   0.83615   0.23642   0.00000  Uiso   1.00
C53    C     0.72159   0.82590   0.27373   0.00000  Uiso   1.00
C54    C     0.70724   0.77789   0.27515   0.00000  Uiso   1.00
C55    C     0.66787   0.70585   0.29352   0.00000  Uiso   1.00
C56    C     0.83782   0.88262   0.26686   0.00000  Uiso   1.00
C57    C     0.85495   0.91142   0.32979   0.00000  Uiso   1.00
C58    C     0.90160   0.90252   0.35686   0.00000  Uiso   1.00
C59    C     0.97473   0.90263   0.42251   0.00000  Uiso   1.00
C60    C     0.84031   0.81908   0.16419   0.00000  Uiso   1.00
C61    C     0.82495   0.85721   0.10232   0.00000  Uiso   1.00
C62    C     0.83684   0.85752   0.02008   0.00000  Uiso   1.00
C63    C     0.81926   0.89557   0.97366   0.00000  Uiso   1.00
C64    C     0.79382   0.79974   0.20176   0.00000  Uiso   1.00
C65    C     0.77953   0.75174   0.20314   0.00000  Uiso   1.00
C66    C     0.73574   0.74141   0.24043   0.00000  Uiso   1.00
C67    C     0.86627   0.84621   0.23221   0.00000  Uiso   1.00
C68    C     0.91290   0.83726   0.25919   0.00000  Uiso   1.00
C69    C     0.93010   0.86605   0.32215   0.00000  Uiso   1.00
H70    H     0.76579   0.91445   0.25498   0.00000  Uiso   1.00
H71    H     0.75688   0.95984   0.11751   0.00000  Uiso   1.00
H72    H     0.69958   0.85408   0.30055   0.00000  Uiso   1.00
H73    H     0.83293   0.93959   0.35659   0.00000  Uiso   1.00
H74    H     0.75954   0.99410   0.94982   0.00000  Uiso   1.00
H75    H     0.63872   0.77109   0.33578   0.00000  Uiso   1.00
H76    H     0.91991   0.95141   0.45397   0.00000  Uiso   1.00
H77    H     0.86246   0.79073   0.13721   0.00000  Uiso   1.00
H78    H     0.85886   0.82934   0.99328   0.00000  Uiso   1.00
H79    H     0.80156   0.72357   0.17631   0.00000  Uiso   1.00
H80    H     0.93490   0.80908   0.23236   0.00000  Uiso   1.00
H81    H     0.84230   0.88818   0.84898   0.00000  Uiso   1.00
H82    H     0.72149   0.66516   0.23495   0.00000  Uiso   1.00
H83    H     0.00268   0.84549   0.35314   0.00000  Uiso   1.00
O84    O     0.79679   0.96876   0.80684   0.00000  Uiso   1.00
O85    O     0.63830   0.67618   0.31322   0.00000  Uiso   1.00
O86    O     0.00721   0.91276   0.46828   0.00000  Uiso   1.00
N87    N     0.77952   0.96388   0.94584   0.00000  Uiso   1.00
N88    N     0.66656   0.75538   0.30668   0.00000  Uiso   1.00
N89    N     0.92945   0.92396   0.41720   0.00000  Uiso   1.00
N90    N     0.82405   0.90688   0.89159   0.00000  Uiso   1.00
N91    N     0.71110   0.69838   0.25243   0.00000  Uiso   1.00
N92    N     0.97398   0.86696   0.36294   0.00000  Uiso   1.00
C93    C     0.21206   0.11389   0.22799   0.00000  Uiso   1.00
C94    C     0.20349   0.10638   0.13698   0.00000  Uiso   1.00
C95    C     0.22110   0.06832   0.09067   0.00000  Uiso   1.00
C96    C     0.20924   0.06796   0.00838   0.00000  Uiso   1.00
C97    C     0.20029   0.05077   0.87232   0.00000  Uiso   1.00
C98    C     0.23463   0.16385   0.23642   0.00000  Uiso   1.00
C99    C     0.27841   0.17410   0.27373   0.00000  Uiso   1.00
C100   C     0.29276   0.22211   0.27515   0.00000  Uiso   1.00
C101   C     0.33213   0.29415   0.29352   0.00000  Uiso   1.00
C102   C     0.16218   0.11738   0.26686   0.00000  Uiso   1.00
C103   C     0.14505   0.08858   0.32979   0.00000  Uiso   1.00
C104   C     0.09840   0.09748   0.35686   0.00000  Uiso   1.00
C105   C     0.02527   0.09737   0.42251   0.00000  Uiso   1.00
C106   C     0.15969   0.18092   0.16419   0.00000  Uiso   1.00
C107   C     0.17505   0.14279   0.10232   0.00000  Uiso   1.00
C108   C     0.16316   0.14248   0.02008   0.00000  Uiso   1.00
C109   C     0.18074   0.10443   0.97366   0.00000  Uiso   1.00
C110   C     0.20618   0.20026   0.20176   0.00000  Uiso   1.00
C111   C     0.22047   0.24826   0.20314   0.00000  Uiso   1.00
C112   C     0.26426   0.25859   0.24043   0.00000  Uiso   1.00
C113   C     0.13373   0.15379   0.23221   0.00000  Uiso   1.00
C114   C     0.08710   0.16274   0.25919   0.00000  Uiso   1.00
C115   C     0.06990   0.13395   0.32215   0.00000  Uiso   1.00
H116   H     0.23421   0.08555   0.25498   0.00000  Uiso   1.00
H117   H     0.24312   0.04016   0.11751   0.00000  Uiso   1.00
H118   H     0.30042   0.14592   0.30055   0.00000  Uiso   1.00
H119   H     0.16707   0.06041   0.35659   0.00000  Uiso   1.00
H120   H     0.24046   0.00590   0.94982   0.00000  Uiso   1.00
H121   H     0.36128   0.22891   0.33578   0.00000  Uiso   1.00
H122   H     0.08009   0.04859   0.45397   0.00000  Uiso   1.00
H123   H     0.13754   0.20927   0.13721   0.00000  Uiso   1.00
H124   H     0.14114   0.17066   0.99328   0.00000  Uiso   1.00
H125   H     0.19844   0.27643   0.17631   0.00000  Uiso   1.00
H126   H     0.06510   0.19092   0.23236   0.00000  Uiso   1.00
H127   H     0.15770   0.11182   0.84898   0.00000  Uiso   1.00
H128   H     0.27851   0.33484   0.23495   0.00000  Uiso   1.00
H129   H     0.99732   0.15451   0.35314   0.00000  Uiso   1.00
O130   O     0.20321   0.03124   0.80684   0.00000  Uiso   1.00
O131   O     0.36170   0.32382   0.31322   0.00000  Uiso   1.00
O132   O     0.99279   0.08724   0.46828   0.00000  Uiso   1.00
N133   N     0.22048   0.03612   0.94584   0.00000  Uiso   1.00
N134   N     0.33344   0.24462   0.30668   0.00000  Uiso   1.00
N135   N     0.07055   0.07604   0.41720   0.00000  Uiso   1.00
N136   N     0.17595   0.09312   0.89159   0.00000  Uiso   1.00
N137   N     0.28890   0.30162   0.25243   0.00000  Uiso   1.00
N138   N     0.02602   0.13304   0.36294   0.00000  Uiso   1.00
C139   C     0.71206   0.61389   0.72799   0.00000  Uiso   1.00
C140   C     0.70349   0.60638   0.63698   0.00000  Uiso   1.00
C141   C     0.72110   0.56832   0.59067   0.00000  Uiso   1.00
C142   C     0.70924   0.56796   0.50838   0.00000  Uiso   1.00
C143   C     0.70029   0.55077   0.37232   0.00000  Uiso   1.00
C144   C     0.73463   0.66385   0.73642   0.00000  Uiso   1.00
C145   C     0.77841   0.67410   0.77373   0.00000  Uiso   1.00
C146   C     0.79276   0.72211   0.77515   0.00000  Uiso   1.00
C147   C     0.83213   0.79415   0.79352   0.00000  Uiso   1.00
C148   C     0.66218   0.61738   0.76686   0.00000  Uiso   1.00
C149   C     0.64505   0.58858   0.82979   0.00000  Uiso   1.00
C150   C     0.59840   0.59748   0.85686   0.00000  Uiso   1.00
C151   C     0.52527   0.59737   0.92251   0.00000  Uiso   1.00
C152   C     0.65969   0.68092   0.66419   0.00000  Uiso   1.00
C153   C     0.67505   0.64279   0.60232   0.00000  Uiso   1.00
C154   C     0.66316   0.64248   0.52008   0.00000  Uiso   1.00
C155   C     0.68074   0.60443   0.47366   0.00000  Uiso   1.00
C156   C     0.70618   0.70026   0.70176   0.00000  Uiso   1.00
C157   C     0.72047   0.74826   0.70314   0.00000  Uiso   1.00
C158   C     0.76426   0.75859   0.74043   0.00000  Uiso   1.00
C159   C     0.63373   0.65379   0.73221   0.00000  Uiso   1.00
C160   C     0.58710   0.66274   0.75919   0.00000  Uiso   1.00
C161   C     0.56990   0.63395   0.82215   0.00000  Uiso   1.00
H162   H     0.73421   0.58555   0.75498   0.00000  Uiso   1.00
H163   H     0.74312   0.54016   0.61751   0.00000  Uiso   1.00
H164   H     0.80042   0.64592   0.80055   0.00000  Uiso   1.00
H165   H     0.66707   0.56041   0.85659   0.00000  Uiso   1.00
H166   H     0.74046   0.50590   0.44982   0.00000  Uiso   1.00
H167   H     0.86128   0.72891   0.83578   0.00000  Uiso   1.00
H168   H     0.58009   0.54859   0.95397   0.00000  Uiso   1.00
H169   H     0.63754   0.70927   0.63721   0.00000  Uiso   1.00
H170   H     0.64114   0.67066   0.49328   0.00000  Uiso   1.00
H171   H     0.69844   0.77643   0.67631   0.00000  Uiso   1.00
H172   H     0.56510   0.69092   0.73236   0.00000  Uiso   1.00
H173   H     0.65770   0.61182   0.34898   0.00000  Uiso   1.00
H174   H     0.77851   0.83484   0.73495   0.00000  Uiso   1.00
H175   H     0.49732   0.65451   0.85314   0.00000  Uiso   1.00
O176   O     0.70321   0.53124   0.30684   0.00000  Uiso   1.00
O177   O     0.86170   0.82382   0.81322   0.00000  Uiso   1.00
O178   O     0.49279   0.58724   0.96828   0.00000  Uiso   1.00
N179   N     0.72048   0.53612   0.44584   0.00000  Uiso   1.00
N180   N     0.83344   0.74462   0.80668   0.00000  Uiso   1.00
N181   N     0.57055   0.57604   0.91720   0.00000  Uiso   1.00
N182   N     0.67595   0.59312   0.39159   0.00000  Uiso   1.00
N183   N     0.78890   0.80162   0.75243   0.00000  Uiso   1.00
N184   N     0.52602   0.63304   0.86294   0.00000  Uiso   1.00
C185   C     0.61389   0.78794   0.97799   0.00000  Uiso   1.00
C186   C     0.60638   0.79651   0.88698   0.00000  Uiso   1.00
C187   C     0.56832   0.77890   0.84067   0.00000  Uiso   1.00
C188   C     0.56796   0.79076   0.75838   0.00000  Uiso   1.00
C189   C     0.55077   0.79971   0.62232   0.00000  Uiso   1.00
C190   C     0.66385   0.76537   0.98642   0.00000  Uiso   1.00
C191   C     0.67410   0.72159   0.02373   0.00000  Uiso   1.00
C192   C     0.72211   0.70724   0.02515   0.00000  Uiso   1.00
C193   C     0.79415   0.66787   0.04352   0.00000  Uiso   1.00
C194   C     0.61738   0.83782   0.01686   0.00000  Uiso   1.00
C195   C     0.58858   0.85495   0.07979   0.00000  Uiso   1.00
C196   C     0.59748   0.90160   0.10686   0.00000  Uiso   1.00
C197   C     0.59737   0.97473   0.17251   0.00000  Uiso   1.00
C198   C     0.68092   0.84031   0.91419   0.00000  Uiso   1.00
C199   C     0.64279   0.82495   0.85232   0.00000  Uiso   1.00
C200   C     0.64248   0.83684   0.77008   0.00000  Uiso   1.00
C201   C     0.60443   0.81926   0.72366   0.00000  Uiso   1.00
C202   C     0.70026   0.79382   0.95176   0.00000  Uiso   1.00
C203   C     0.74826   0.77953   0.95314   0.00000  Uiso   1.00
C204   C     0.75859   0.73574   0.99043   0.00000  Uiso   1.00
C205   C     0.65379   0.86627   0.98221   0.00000  Uiso   1.00
C206   C     0.66274   0.91290   0.00919   0.00000  Uiso   1.00
C207   C     0.63395   0.93010   0.07215   0.00000  Uiso   1.00
H208   H     0.58555   0.76579   0.00498   0.00000  Uiso   1.00
H209   H     0.54016   0.75688   0.86751   0.00000  Uiso   1.00
H210   H     0.64592   0.69958   0.05055   0.00000  Uiso   1.00
H211   H     0.56041   0.83293   0.10659   0.00000  Uiso   1.00
H212   H     0.50590   0.75954   0.69982   0.00000  Uiso   1.00
H213   H     0.72891   0.63872   0.08578   0.00000  Uiso   1.00
H214   H     0.54859   0.91991   0.20397   0.00000  Uiso   1.00
H215   H     0.70927   0.86246   0.88721   0.00000  Uiso   1.00
H216   H     0.67066   0.85886   0.74328   0.00000  Uiso   1.00
H217   H     0.77643   0.80156   0.92631   0.00000  Uiso   1.00
H218   H     0.69092   0.93490   0.98236   0.00000  Uiso   1.00
H219   H     0.61182   0.84230   0.59898   0.00000  Uiso   1.00
H220   H     0.83484   0.72149   0.98495   0.00000  Uiso   1.00
H221   H     0.65451   0.00268   0.10314   0.00000  Uiso   1.00
O222   O     0.53124   0.79679   0.55684   0.00000  Uiso   1.00
O223   O     0.82382   0.63830   0.06322   0.00000  Uiso   1.00
O224   O     0.58724   0.00721   0.21828   0.00000  Uiso   1.00
N225   N     0.53612   0.77952   0.69584   0.00000  Uiso   1.00
N226   N     0.74462   0.66656   0.05668   0.00000  Uiso   1.00
N227   N     0.57604   0.92945   0.16720   0.00000  Uiso   1.00
N228   N     0.59312   0.82405   0.64159   0.00000  Uiso   1.00
N229   N     0.80162   0.71110   0.00243   0.00000  Uiso   1.00
N230   N     0.63304   0.97398   0.11294   0.00000  Uiso   1.00
C231   C     0.11389   0.28794   0.47799   0.00000  Uiso   1.00
C232   C     0.10638   0.29651   0.38698   0.00000  Uiso   1.00
C233   C     0.06832   0.27890   0.34067   0.00000  Uiso   1.00
C234   C     0.06796   0.29076   0.25838   0.00000  Uiso   1.00
C235   C     0.05077   0.29971   0.12232   0.00000  Uiso   1.00
C236   C     0.16385   0.26537   0.48642   0.00000  Uiso   1.00
C237   C     0.17410   0.22159   0.52373   0.00000  Uiso   1.00
C238   C     0.22211   0.20724   0.52515   0.00000  Uiso   1.00
C239   C     0.29415   0.16787   0.54352   0.00000  Uiso   1.00
C240   C     0.11738   0.33782   0.51686   0.00000  Uiso   1.00
C241   C     0.08858   0.35495   0.57979   0.00000  Uiso   1.00
C242   C     0.09748   0.40160   0.60686   0.00000  Uiso   1.00
C243   C     0.09737   0.47473   0.67251   0.00000  Uiso   1.00
C244   C     0.18092   0.34031   0.41419   0.00000  Uiso   1.00
C245   C     0.14279   0.32495   0.35232   0.00000  Uiso   1.00
C246   C     0.14248   0.33684   0.27008   0.00000  Uiso   1.00
C247   C     0.10443   0.31926   0.22366   0.00000  Uiso   1.00
C248   C     0.20026   0.29382   0.45176   0.00000  Uiso   1.00
C249   C     0.24826   0.27953   0.45314   0.00000  Uiso   1.00
C250   C     0.25859   0.23574   0.49043   0.00000  Uiso   1.00
C251   C     0.15379   0.36627   0.48221   0.00000  Uiso   1.00
C252   C     0.16274   0.41290   0.50919   0.00000  Uiso   1.00
C253   C     0.13395   0.43010   0.57215   0.00000  Uiso   1.00
H254   H     0.08555   0.26579   0.50498   0.00000  Uiso   1.00
H255   H     0.04016   0.25688   0.36751   0.00000  Uiso   1.00
H256   H     0.14592   0.19958   0.55055   0.00000  Uiso   1.00
H257   H     0.06041   0.33293   0.60659   0.00000  Uiso   1.00
H258   H     0.00590   0.25954   0.19982   0.00000  Uiso   1.00
H259   H     0.22891   0.13872   0.58578   0.00000  Uiso   1.00
H260   H     0.04859   0.41991   0.70397   0.00000  Uiso   1.00
H261   H     0.20927   0.36246   0.38721   0.00000  Uiso   1.00
H262   H     0.17066   0.35886   0.24328   0.00000  Uiso   1.00
H263   H     0.27643   0.30156   0.42631   0.00000  Uiso   1.00
H264   H     0.19092   0.43490   0.48236   0.00000  Uiso   1.00
H265   H     0.11182   0.34230   0.09898   0.00000  Uiso   1.00
H266   H     0.33484   0.22149   0.48495   0.00000  Uiso   1.00
H267   H     0.15451   0.50268   0.60314   0.00000  Uiso   1.00
O268   O     0.03124   0.29679   0.05684   0.00000  Uiso   1.00
O269   O     0.32382   0.13830   0.56322   0.00000  Uiso   1.00
O270   O     0.08724   0.50721   0.71828   0.00000  Uiso   1.00
N271   N     0.03612   0.27952   0.19584   0.00000  Uiso   1.00
N272   N     0.24462   0.16656   0.55668   0.00000  Uiso   1.00
N273   N     0.07604   0.42945   0.66720   0.00000  Uiso   1.00
N274   N     0.09312   0.32405   0.14159   0.00000  Uiso   1.00
N275   N     0.30162   0.21110   0.50243   0.00000  Uiso   1.00
N276   N     0.13304   0.47398   0.61294   0.00000  Uiso   1.00
C277   C     0.88611   0.71206   0.47799   0.00000  Uiso   1.00
C278   C     0.89362   0.70349   0.38698   0.00000  Uiso   1.00
C279   C     0.93168   0.72110   0.34067   0.00000  Uiso   1.00
C280   C     0.93204   0.70924   0.25838   0.00000  Uiso   1.00
C281   C     0.94923   0.70029   0.12232   0.00000  Uiso   1.00
C282   C     0.83615   0.73463   0.48642   0.00000  Uiso   1.00
C283   C     0.82590   0.77841   0.52373   0.00000  Uiso   1.00
C284   C     0.77789   0.79276   0.52515   0.00000  Uiso   1.00
C285   C     0.70585   0.83213   0.54352   0.00000  Uiso   1.00
C286   C     0.88262   0.66218   0.51686   0.00000  Uiso   1.00
C287   C     0.91142   0.64505   0.57979   0.00000  Uiso   1.00
C288   C     0.90252   0.59840   0.60686   0.00000  Uiso   1.00
C289   C     0.90263   0.52527   0.67251   0.00000  Uiso   1.00
C290   C     0.81908   0.65969   0.41419   0.00000  Uiso   1.00
C291   C     0.85721   0.67505   0.35232   0.00000  Uiso   1.00
C292   C     0.85752   0.66316   0.27008   0.00000  Uiso   1.00
C293   C     0.89557   0.68074   0.22366   0.00000  Uiso   1.00
C294   C     0.79974   0.70618   0.45176   0.00000  Uiso   1.00
C295   C     0.75174   0.72047   0.45314   0.00000  Uiso   1.00
C296   C     0.74141   0.76426   0.49043   0.00000  Uiso   1.00
C297   C     0.84621   0.63373   0.48221   0.00000  Uiso   1.00
C298   C     0.83726   0.58710   0.50919   0.00000  Uiso   1.00
C299   C     0.86605   0.56990   0.57215   0.00000  Uiso   1.00
H300   H     0.91445   0.73421   0.50498   0.00000  Uiso   1.00
H301   H     0.95984   0.74312   0.36751   0.00000  Uiso   1.00
H302   H     0.85408   0.80042   0.55055   0.00000  Uiso   1.00
H303   H     0.93959   0.66707   0.60659   0.00000  Uiso   1.00
H304   H     0.99410   0.74046   0.19982   0.00000  Uiso   1.00
H305   H     0.77109   0.86128   0.58578   0.00000  Uiso   1.00
H306   H     0.95141   0.58009   0.70397   0.00000  Uiso   1.00
H307   H     0.79073   0.63754   0.38721   0.00000  Uiso   1.00
H308   H     0.82934   0.64114   0.24328   0.00000  Uiso   1.00
H309   H     0.72357   0.69844   0.42631   0.00000  Uiso   1.00
H310   H     0.80908   0.56510   0.48236   0.00000  Uiso   1.00
H311   H     0.88818   0.65770   0.09898   0.00000  Uiso   1.00
H312   H     0.66516   0.77851   0.48495   0.00000  Uiso   1.00
H313   H     0.84549   0.49732   0.60314   0.00000  Uiso   1.00
O314   O     0.96876   0.70321   0.05684   0.00000  Uiso   1.00
O315   O     0.67618   0.86170   0.56322   0.00000  Uiso   1.00
O316   O     0.91276   0.49279   0.71828   0.00000  Uiso   1.00
N317   N     0.96388   0.72048   0.19584   0.00000  Uiso   1.00
N318   N     0.75538   0.83344   0.55668   0.00000  Uiso   1.00
N319   N     0.92396   0.57055   0.66720   0.00000  Uiso   1.00
N320   N     0.90688   0.67595   0.14159   0.00000  Uiso   1.00
N321   N     0.69838   0.78890   0.50243   0.00000  Uiso   1.00
N322   N     0.86696   0.52602   0.61294   0.00000  Uiso   1.00
C323   C     0.38611   0.21206   0.97799   0.00000  Uiso   1.00
C324   C     0.39362   0.20349   0.88698   0.00000  Uiso   1.00
C325   C     0.43168   0.22110   0.84067   0.00000  Uiso   1.00
C326   C     0.43204   0.20924   0.75838   0.00000  Uiso   1.00
C327   C     0.44923   0.20029   0.62232   0.00000  Uiso   1.00
C328   C     0.33615   0.23463   0.98642   0.00000  Uiso   1.00
C329   C     0.32590   0.27841   0.02373   0.00000  Uiso   1.00
C330   C     0.27789   0.29276   0.02515   0.00000  Uiso   1.00
C331   C     0.20585   0.33213   0.04352   0.00000  Uiso   1.00
C332   C     0.38262   0.16218   0.01686   0.00000  Uiso   1.00
C333   C     0.41142   0.14505   0.07979   0.00000  Uiso   1.00
C334   C     0.40252   0.09840   0.10686   0.00000  Uiso   1.00
C335   C     0.40263   0.02527   0.17251   0.00000  Uiso   1.00
C336   C     0.31908   0.15969   0.91419   0.00000  Uiso   1.00
C337   C     0.35721   0.17505   0.85232   0.00000  Uiso   1.00
C338   C     0.35752   0.16316   0.77008   0.00000  Uiso   1.00
C339   C     0.39557   0.18074   0.72366   0.00000  Uiso   1.00
C340   C     0.29974   0.20618   0.95176   0.00000  Uiso   1.00
C341   C     0.25174   0.22047   0.95314   0.00000  Uiso   1.00
C342   C     0.24141   0.26426   0.99043   0.00000  Uiso   1.00
C343   C     0.34621   0.13373   0.98221   0.00000  Uiso   1.00
C344   C     0.33726   0.08710   0.00919   0.00000  Uiso   1.00
C345   C     0.36605   0.06990   0.07215   0.00000  Uiso   1.00
H346   H     0.41445   0.23421   0.00498   0.00000  Uiso   1.00
H347   H     0.45984   0.24312   0.86751   0.00000  Uiso   1.00
H348   H     0.35408   0.30042   0.05055   0.00000  Uiso   1.00
H349   H     0.43959   0.16707   0.10659   0.00000  Uiso   1.00
H350   H     0.49410   0.24046   0.69982   0.00000  Uiso   1.00
H351   H     0.27109   0.36128   0.08578   0.00000  Uiso   1.00
H352   H     0.45141   0.08009   0.20397   0.00000  Uiso   1.00
H353   H     0.29073   0.13754   0.88721   0.00000  Uiso   1.00
H354   H     0.32934   0.14114   0.74328   0.00000  Uiso   1.00
H355   H     0.22357   0.19844   0.92631   0.00000  Uiso   1.00
H356   H     0.30908   0.06510   0.98236   0.00000  Uiso   1.00
H357   H     0.38818   0.15770   0.59898   0.00000  Uiso   1.00
H358   H     0.16516   0.27851   0.98495   0.00000  Uiso   1.00
H359   H     0.34549   0.99732   0.10314   0.00000  Uiso   1.00
O360   O     0.46876   0.20321   0.55684   0.00000  Uiso   1.00
O361   O     0.17618   0.36170   0.06322   0.00000  Uiso   1.00
O362   O     0.41276   0.99279   0.21828   0.00000  Uiso   1.00
N363   N     0.46388   0.22048   0.69584   0.00000  Uiso   1.00
N364   N     0.25538   0.33344   0.05668   0.00000  Uiso   1.00
N365   N     0.42396   0.07055   0.16720   0.00000  Uiso   1.00
N366   N     0.40688   0.17595   0.64159   0.00000  Uiso   1.00
N367   N     0.19838   0.28890   0.00243   0.00000  Uiso   1.00
N368   N     0.36696   0.02602   0.11294   0.00000  Uiso   1.00
C369   C     0.71206   0.11389   0.52201   0.00000  Uiso   1.00
C370   C     0.70349   0.10638   0.61302   0.00000  Uiso   1.00
C371   C     0.72110   0.06832   0.65933   0.00000  Uiso   1.00
C372   C     0.70924   0.06796   0.74162   0.00000  Uiso   1.00
C373   C     0.70029   0.05077   0.87768   0.00000  Uiso   1.00
C374   C     0.73463   0.16385   0.51358   0.00000  Uiso   1.00
C375   C     0.77841   0.17410   0.47627   0.00000  Uiso   1.00
C376   C     0.79276   0.22211   0.47485   0.00000  Uiso   1.00
C377   C     0.83213   0.29415   0.45648   0.00000  Uiso   1.00
C378   C     0.66218   0.11738   0.48314   0.00000  Uiso   1.00
C379   C     0.64505   0.08858   0.42021   0.00000  Uiso   1.00
C380   C     0.59840   0.09748   0.39314   0.00000  Uiso   1.00
C381   C     0.52527   0.09737   0.32749   0.00000  Uiso   1.00
C382   C     0.65969   0.18092   0.58581   0.00000  Uiso   1.00
C383   C     0.67505   0.14279   0.64768   0.00000  Uiso   1.00
C384   C     0.66316   0.14248   0.72992   0.00000  Uiso   1.00
C385   C     0.68074   0.10443   0.77634   0.00000  Uiso   1.00
C386   C     0.70618   0.20026   0.54824   0.00000  Uiso   1.00
C387   C     0.72047   0.24826   0.54686   0.00000  Uiso   1.00
C388   C     0.76426   0.25859   0.50957   0.00000  Uiso   1.00
C389   C     0.63373   0.15379   0.51779   0.00000  Uiso   1.00
C390   C     0.58710   0.16274   0.49081   0.00000  Uiso   1.00
C391   C     0.56990   0.13395   0.42785   0.00000  Uiso   1.00
H392   H     0.73421   0.08555   0.49502   0.00000  Uiso   1.00
H393   H     0.74312   0.04016   0.63249   0.00000  Uiso   1.00
H394   H     0.80042   0.14592   0.44945   0.00000  Uiso   1.00
H395   H     0.66707   0.06041   0.39341   0.00000  Uiso   1.00
H396   H     0.74046   0.00590   0.80018   0.00000  Uiso   1.00
H397   H     0.86128   0.22891   0.41422   0.00000  Uiso   1.00
H398   H     0.58009   0.04859   0.29603   0.00000  Uiso   1.00
H399   H     0.63754   0.20927   0.61279   0.00000  Uiso   1.00
H400   H     0.64114   0.17066   0.75672   0.00000  Uiso   1.00
H401   H     0.69844   0.27643   0.57369   0.00000  Uiso   1.00
H402   H     0.56510   0.19092   0.51764   0.00000  Uiso   1.00
H403   H     0.65770   0.11182   0.90102   0.00000  Uiso   1.00
H404   H     0.77851   0.33484   0.51505   0.00000  Uiso   1.00
H405   H     0.49732   0.15451   0.39686   0.00000  Uiso   1.00
O406   O     0.70321   0.03124   0.94316   0.00000  Uiso   1.00
O407   O     0.86170   0.32382   0.43678   0.00000  Uiso   1.00
O408   O     0.49279   0.08724   0.28172   0.00000  Uiso   1.00
N409   N     0.72048   0.03612   0.80416   0.00000  Uiso   1.00
N410   N     0.83344   0.24462   0.44332   0.00000  Uiso   1.00
N411   N     0.57055   0.07604   0.33280   0.00000  Uiso   1.00
N412   N     0.67595   0.09312   0.85841   0.00000  Uiso   1.00
N413   N     0.78890   0.30162   0.49757   0.00000  Uiso   1.00
N414   N     0.52602   0.13304   0.38706   0.00000  Uiso   1.00
C415   C     0.21206   0.61389   0.02201   0.00000  Uiso   1.00
C416   C     0.20349   0.60638   0.11302   0.00000  Uiso   1.00
C417   C     0.22110   0.56832   0.15933   0.00000  Uiso   1.00
C418   C     0.20924   0.56796   0.24162   0.00000  Uiso   1.00
C419   C     0.20029   0.55077   0.37768   0.00000  Uiso   1.00
C420   C     0.23463   0.66385   0.01358   0.00000  Uiso   1.00
C421   C     0.27841   0.67410   0.97627   0.00000  Uiso   1.00
C422   C     0.29276   0.72211   0.97485   0.00000  Uiso   1.00
C423   C     0.33213   0.79415   0.95648   0.00000  Uiso   1.00
C424   C     0.16218   0.61738   0.98314   0.00000  Uiso   1.00
C425   C     0.14505   0.58858   0.92021   0.00000  Uiso   1.00
C426   C     0.09840   0.59748   0.89314   0.00000  Uiso   1.00
C427   C     0.02527   0.59737   0.82749   0.00000  Uiso   1.00
C428   C     0.15969   0.68092   0.08581   0.00000  Uiso   1.00
C429   C     0.17505   0.64279   0.14768   0.00000  Uiso   1.00
C430   C     0.16316   0.64248   0.22992   0.00000  Uiso   1.00
C431   C     0.18074   0.60443   0.27634   0.00000  Uiso   1.00
C432   C     0.20618   0.70026   0.04824   0.00000  Uiso   1.00
C433   C     0.22047   0.74826   0.04686   0.00000  Uiso   1.00
C434   C     0.26426   0.75859   0.00957   0.00000  Uiso   1.00
C435   C     0.13373   0.65379   0.01779   0.00000  Uiso   1.00
C436   C     0.08710   0.66274   0.99081   0.00000  Uiso   1.00
C437   C     0.06990   0.63395   0.92785   0.00000  Uiso   1.00
H438   H     0.23421   0.58555   0.99502   0.00000  Uiso   1.00
H439   H     0.24312   0.54016   0.13249   0.00000  Uiso   1.00
H440   H     0.30042   0.64592   0.94945   0.00000  Uiso   1.00
H441   H     0.16707   0.56041   0.89341   0.00000  Uiso   1.00
H442   H     0.24046   0.50590   0.30018   0.00000  Uiso   1.00
H443   H     0.36128   0.72891   0.91422   0.00000  Uiso   1.00
H444   H     0.08009   0.54859   0.79603   0.00000  Uiso   1.00
H445   H     0.13754   0.70927   0.11279   0.00000  Uiso   1.00
H446   H     0.14114   0.67066   0.25672   0.00000  Uiso   1.00
H447   H     0.19844   0.77643   0.07369   0.00000  Uiso   1.00
H448   H     0.06510   0.69092   0.01764   0.00000  Uiso   1.00
H449   H     0.15770   0.61182   0.40102   0.00000  Uiso   1.00
H450   H     0.27851   0.83484   0.01505   0.00000  Uiso   1.00
H451   H     0.99732   0.65451   0.89686   0.00000  Uiso   1.00
O452   O     0.20321   0.53124   0.44316   0.00000  Uiso   1.00
O453   O     0.36170   0.82382   0.93678   0.00000  Uiso   1.00
O454   O     0.99279   0.58724   0.78172   0.00000  Uiso   1.00
N455   N     0.22048   0.53612   0.30416   0.00000  Uiso   1.00
N456   N     0.33344   0.74462   0.94332   0.00000  Uiso   1.00
N457   N     0.07055   0.57604   0.83280   0.00000  Uiso   1.00
N458   N     0.17595   0.59312   0.35841   0.00000  Uiso   1.00
N459   N     0.28890   0.80162   0.99757   0.00000  Uiso   1.00
N460   N     0.02602   0.63304   0.88706   0.00000  Uiso   1.00
C461   C     0.78794   0.38611   0.02201   0.00000  Uiso   1.00
C462   C     0.79651   0.39362   0.11302   0.00000  Uiso   1.00
C463   C     0.77890   0.43168   0.15933   0.00000  Uiso   1.00
C464   C     0.79076   0.43204   0.24162   0.00000  Uiso   1.00
C465   C     0.79971   0.44923   0.37768   0.00000  Uiso   1.00
C466   C     0.76537   0.33615   0.01358   0.00000  Uiso   1.00
C467   C     0.72159   0.32590   0.97627   0.00000  Uiso   1.00
C468   C     0.70724   0.27789   0.97485   0.00000  Uiso   1.00
C469   C     0.66787   0.20585   0.95648   0.00000  Uiso   1.00
C470   C     0.83782   0.38262   0.98314   0.00000  Uiso   1.00
C471   C     0.85495   0.41142   0.92021   0.00000  Uiso   1.00
C472   C     0.90160   0.40252   0.89314   0.00000  Uiso   1.00
C473   C     0.97473   0.40263   0.82749   0.00000  Uiso   1.00
C474   C     0.84031   0.31908   0.08581   0.00000  Uiso   1.00
C475   C     0.82495   0.35721   0.14768   0.00000  Uiso   1.00
C476   C     0.83684   0.35752   0.22992   0.00000  Uiso   1.00
C477   C     0.81926   0.39557   0.27634   0.00000  Uiso   1.00
C478   C     0.79382   0.29974   0.04824   0.00000  Uiso   1.00
C479   C     0.77953   0.25174   0.04686   0.00000  Uiso   1.00
C480   C     0.73574   0.24141   0.00957   0.00000  Uiso   1.00
C481   C     0.86627   0.34621   0.01779   0.00000  Uiso   1.00
C482   C     0.91290   0.33726   0.99081   0.00000  Uiso   1.00
C483   C     0.93010   0.36605   0.92785   0.00000  Uiso   1.00
H484   H     0.76579   0.41445   0.99502   0.00000  Uiso   1.00
H485   H     0.75688   0.45984   0.13249   0.00000  Uiso   1.00
H486   H     0.69958   0.35408   0.94945   0.00000  Uiso   1.00
H487   H     0.83293   0.43959   0.89341   0.00000  Uiso   1.00
H488   H     0.75954   0.49410   0.30018   0.00000  Uiso   1.00
H489   H     0.63872   0.27109   0.91422   0.00000  Uiso   1.00
H490   H     0.91991   0.45141   0.79603   0.00000  Uiso   1.00
H491   H     0.86246   0.29073   0.11279   0.00000  Uiso   1.00
H492   H     0.85886   0.32934   0.25672   0.00000  Uiso   1.00
H493   H     0.80156   0.22357   0.07369   0.00000  Uiso   1.00
H494   H     0.93490   0.30908   0.01764   0.00000  Uiso   1.00
H495   H     0.84230   0.38818   0.40102   0.00000  Uiso   1.00
H496   H     0.72149   0.16516   0.01505   0.00000  Uiso   1.00
H497   H     0.00268   0.34549   0.89686   0.00000  Uiso   1.00
O498   O     0.79679   0.46876   0.44316   0.00000  Uiso   1.00
O499   O     0.63830   0.17618   0.93678   0.00000  Uiso   1.00
O500   O     0.00721   0.41276   0.78172   0.00000  Uiso   1.00
N501   N     0.77952   0.46388   0.30416   0.00000  Uiso   1.00
N502   N     0.66656   0.25538   0.94332   0.00000  Uiso   1.00
N503   N     0.92945   0.42396   0.83280   0.00000  Uiso   1.00
N504   N     0.82405   0.40688   0.35841   0.00000  Uiso   1.00
N505   N     0.71110   0.19838   0.99757   0.00000  Uiso   1.00
N506   N     0.97398   0.36696   0.88706   0.00000  Uiso   1.00
C507   C     0.28794   0.88611   0.52201   0.00000  Uiso   1.00
C508   C     0.29651   0.89362   0.61302   0.00000  Uiso   1.00
C509   C     0.27890   0.93168   0.65933   0.00000  Uiso   1.00
C510   C     0.29076   0.93204   0.74162   0.00000  Uiso   1.00
C511   C     0.29971   0.94923   0.87768   0.00000  Uiso   1.00
C512   C     0.26537   0.83615   0.51358   0.00000  Uiso   1.00
C513   C     0.22159   0.82590   0.47627   0.00000  Uiso   1.00
C514   C     0.20724   0.77789   0.47485   0.00000  Uiso   1.00
C515   C     0.16787   0.70585   0.45648   0.00000  Uiso   1.00
C516   C     0.33782   0.88262   0.48314   0.00000  Uiso   1.00
C517   C     0.35495   0.91142   0.42021   0.00000  Uiso   1.00
C518   C     0.40160   0.90252   0.39314   0.00000  Uiso   1.00
C519   C     0.47473   0.90263   0.32749   0.00000  Uiso   1.00
C520   C     0.34031   0.81908   0.58581   0.00000  Uiso   1.00
C521   C     0.32495   0.85721   0.64768   0.00000  Uiso   1.00
C522   C     0.33684   0.85752   0.72992   0.00000  Uiso   1.00
C523   C     0.31926   0.89557   0.77634   0.00000  Uiso   1.00
C524   C     0.29382   0.79974   0.54824   0.00000  Uiso   1.00
C525   C     0.27953   0.75174   0.54686   0.00000  Uiso   1.00
C526   C     0.23574   0.74141   0.50957   0.00000  Uiso   1.00
C527   C     0.36627   0.84621   0.51779   0.00000  Uiso   1.00
C528   C     0.41290   0.83726   0.49081   0.00000  Uiso   1.00
C529   C     0.43010   0.86605   0.42785   0.00000  Uiso   1.00
H530   H     0.26579   0.91445   0.49502   0.00000  Uiso   1.00
H531   H     0.25688   0.95984   0.63249   0.00000  Uiso   1.00
H532   H     0.19958   0.85408   0.44945   0.00000  Uiso   1.00
H533   H     0.33293   0.93959   0.39341   0.00000  Uiso   1.00
H534   H     0.25954   0.99410   0.80018   0.00000  Uiso   1.00
H535   H     0.13872   0.77109   0.41422   0.00000  Uiso   1.00
H536   H     0.41991   0.95141   0.29603   0.00000  Uiso   1.00
H537   H     0.36246   0.79073   0.61279   0.00000  Uiso   1.00
H538   H     0.35886   0.82934   0.75672   0.00000  Uiso   1.00
H539   H     0.30156   0.72357   0.57369   0.00000  Uiso   1.00
H540   H     0.43490   0.80908   0.51764   0.00000  Uiso   1.00
H541   H     0.34230   0.88818   0.90102   0.00000  Uiso   1.00
H542   H     0.22149   0.66516   0.51505   0.00000  Uiso   1.00
H543   H     0.50268   0.84549   0.39686   0.00000  Uiso   1.00
O544   O     0.29679   0.96876   0.94316   0.00000  Uiso   1.00
O545   O     0.13830   0.67618   0.43678   0.00000  Uiso   1.00
O546   O     0.50721   0.91276   0.28172   0.00000  Uiso   1.00
N547   N     0.27952   0.96388   0.80416   0.00000  Uiso   1.00
N548   N     0.16656   0.75538   0.44332   0.00000  Uiso   1.00
N549   N     0.42945   0.92396   0.33280   0.00000  Uiso   1.00
N550   N     0.32405   0.90688   0.85841   0.00000  Uiso   1.00
N551   N     0.21110   0.69838   0.49757   0.00000  Uiso   1.00
N552   N     0.47398   0.86696   0.38706   0.00000  Uiso   1.00
C553   C     0.38611   0.71206   0.27201   0.00000  Uiso   1.00
C554   C     0.39362   0.70349   0.36302   0.00000  Uiso   1.00
C555   C     0.43168   0.72110   0.40933   0.00000  Uiso   1.00
C556   C     0.43204   0.70924   0.49162   0.00000  Uiso   1.00
C557   C     0.44923   0.70029   0.62768   0.00000  Uiso   1.00
C558   C     0.33615   0.73463   0.26358   0.00000  Uiso   1.00
C559   C     0.32590   0.77841   0.22627   0.00000  Uiso   1.00
C560   C     0.27789   0.79276   0.22485   0.00000  Uiso   1.00
C561   C     0.20585   0.83213   0.20648   0.00000  Uiso   1.00
C562   C     0.38262   0.66218   0.23314   0.00000  Uiso   1.00
C563   C     0.41142   0.64505   0.17021   0.00000  Uiso   1.00
C564   C     0.40252   0.59840   0.14314   0.00000  Uiso   1.00
C565   C     0.40263   0.52527   0.07749   0.00000  Uiso   1.00
C566   C     0.31908   0.65969   0.33581   0.00000  Uiso   1.00
C567   C     0.35721   0.67505   0.39768   0.00000  Uiso   1.00
C568   C     0.35752   0.66316   0.47992   0.00000  Uiso   1.00
C569   C     0.39557   0.68074   0.52634   0.00000  Uiso   1.00
C570   C     0.29974   0.70618   0.29824   0.00000  Uiso   1.00
C571   C     0.25174   0.72047   0.29686   0.00000  Uiso   1.00
C572   C     0.24141   0.76426   0.25957   0.00000  Uiso   1.00
C573   C     0.34621   0.63373   0.26779   0.00000  Uiso   1.00
C574   C     0.33726   0.58710   0.24081   0.00000  Uiso   1.00
C575   C     0.36605   0.56990   0.17785   0.00000  Uiso   1.00
H576   H     0.41445   0.73421   0.24502   0.00000  Uiso   1.00
H577   H     0.45984   0.74312   0.38249   0.00000  Uiso   1.00
H578   H     0.35408   0.80042   0.19945   0.00000  Uiso   1.00
H579   H     0.43959   0.66707   0.14341   0.00000  Uiso   1.00
H580   H     0.49410   0.74046   0.55018   0.00000  Uiso   1.00
H581   H     0.27109   0.86128   0.16422   0.00000  Uiso   1.00
H582   H     0.45141   0.58009   0.04603   0.00000  Uiso   1.00
H583   H     0.29073   0.63754   0.36279   0.00000  Uiso   1.00
H584   H     0.32934   0.64114   0.50672   0.00000  Uiso   1.00
H585   H     0.22357   0.69844   0.32369   0.00000  Uiso   1.00
H586   H     0.30908   0.56510   0.26764   0.00000  Uiso   1.00
H587   H     0.38818   0.65770   0.65102   0.00000  Uiso   1.00
H588   H     0.16516   0.77851   0.26505   0.00000  Uiso   1.00
H589   H     0.34549   0.49732   0.14686   0.00000  Uiso   1.00
O590   O     0.46876   0.70321   0.69316   0.00000  Uiso   1.00
O591   O     0.17618   0.86170   0.18678   0.00000  Uiso   1.00
O592   O     0.41276   0.49279   0.03172   0.00000  Uiso   1.00
N593   N     0.46388   0.72048   0.55416   0.00000  Uiso   1.00
N594   N     0.25538   0.83344   0.19332   0.00000  Uiso   1.00
N595   N     0.42396   0.57055   0.08280   0.00000  Uiso   1.00
N596   N     0.40688   0.67595   0.60841   0.00000  Uiso   1.00
N597   N     0.19838   0.78890   0.24757   0.00000  Uiso   1.00
N598   N     0.36696   0.52602   0.13706   0.00000  Uiso   1.00
C599   C     0.88611   0.21206   0.77201   0.00000  Uiso   1.00
C600   C     0.89362   0.20349   0.86302   0.00000  Uiso   1.00
C601   C     0.93168   0.22110   0.90933   0.00000  Uiso   1.00
C602   C     0.93204   0.20924   0.99162   0.00000  Uiso   1.00
C603   C     0.94923   0.20029   0.12768   0.00000  Uiso   1.00
C604   C     0.83615   0.23463   0.76358   0.00000  Uiso   1.00
C605   C     0.82590   0.27841   0.72627   0.00000  Uiso   1.00
C606   C     0.77789   0.29276   0.72485   0.00000  Uiso   1.00
C607   C     0.70585   0.33213   0.70648   0.00000  Uiso   1.00
C608   C     0.88262   0.16218   0.73314   0.00000  Uiso   1.00
C609   C     0.91142   0.14505   0.67021   0.00000  Uiso   1.00
C610   C     0.90252   0.09840   0.64314   0.00000  Uiso   1.00
C611   C     0.90263   0.02527   0.57749   0.00000  Uiso   1.00
C612   C     0.81908   0.15969   0.83581   0.00000  Uiso   1.00
C613   C     0.85721   0.17505   0.89768   0.00000  Uiso   1.00
C614   C     0.85752   0.16316   0.97992   0.00000  Uiso   1.00
C615   C     0.89557   0.18074   0.02634   0.00000  Uiso   1.00
C616   C     0.79974   0.20618   0.79824   0.00000  Uiso   1.00
C617   C     0.75174   0.22047   0.79686   0.00000  Uiso   1.00
C618   C     0.74141   0.26426   0.75957   0.00000  Uiso   1.00
C619   C     0.84621   0.13373   0.76779   0.00000  Uiso   1.00
C620   C     0.83726   0.08710   0.74081   0.00000  Uiso   1.00
C621   C     0.86605   0.06990   0.67785   0.00000  Uiso   1.00
H622   H     0.91445   0.23421   0.74502   0.00000  Uiso   1.00
H623   H     0.95984   0.24312   0.88249   0.00000  Uiso   1.00
H624   H     0.85408   0.30042   0.69945   0.00000  Uiso   1.00
H625   H     0.93959   0.16707   0.64341   0.00000  Uiso   1.00
H626   H     0.99410   0.24046   0.05018   0.00000  Uiso   1.00
H627   H     0.77109   0.36128   0.66422   0.00000  Uiso   1.00
H628   H     0.95141   0.08009   0.54603   0.00000  Uiso   1.00
H629   H     0.79073   0.13754   0.86279   0.00000  Uiso   1.00
H630   H     0.82934   0.14114   0.00672   0.00000  Uiso   1.00
H631   H     0.72357   0.19844   0.82369   0.00000  Uiso   1.00
H632   H     0.80908   0.06510   0.76764   0.00000  Uiso   1.00
H633   H     0.88818   0.15770   0.15102   0.00000  Uiso   1.00
H634   H     0.66516   0.27851   0.76505   0.00000  Uiso   1.00
H635   H     0.84549   0.99732   0.64686   0.00000  Uiso   1.00
O636   O     0.96876   0.20321   0.19316   0.00000  Uiso   1.00
O637   O     0.67618   0.36170   0.68678   0.00000  Uiso   1.00
O638   O     0.91276   0.99279   0.53172   0.00000  Uiso   1.00
N639   N     0.96388   0.22048   0.05416   0.00000  Uiso   1.00
N640   N     0.75538   0.33344   0.69332   0.00000  Uiso   1.00
N641   N     0.92396   0.07055   0.58280   0.00000  Uiso   1.00
N642   N     0.90688   0.17595   0.10841   0.00000  Uiso   1.00
N643   N     0.69838   0.28890   0.74757   0.00000  Uiso   1.00
N644   N     0.86696   0.02602   0.63706   0.00000  Uiso   1.00
C645   C     0.11389   0.78794   0.77201   0.00000  Uiso   1.00
C646   C     0.10638   0.79651   0.86302   0.00000  Uiso   1.00
C647   C     0.06832   0.77890   0.90933   0.00000  Uiso   1.00
C648   C     0.06796   0.79076   0.99162   0.00000  Uiso   1.00
C649   C     0.05077   0.79971   0.12768   0.00000  Uiso   1.00
C650   C     0.16385   0.76537   0.76358   0.00000  Uiso   1.00
C651   C     0.17410   0.72159   0.72627   0.00000  Uiso   1.00
C652   C     0.22211   0.70724   0.72485   0.00000  Uiso   1.00
C653   C     0.29415   0.66787   0.70648   0.00000  Uiso   1.00
C654   C     0.11738   0.83782   0.73314   0.00000  Uiso   1.00
C655   C     0.08858   0.85495   0.67021   0.00000  Uiso   1.00
C656   C     0.09748   0.90160   0.64314   0.00000  Uiso   1.00
C657   C     0.09737   0.97473   0.57749   0.00000  Uiso   1.00
C658   C     0.18092   0.84031   0.83581   0.00000  Uiso   1.00
C659   C     0.14279   0.82495   0.89768   0.00000  Uiso   1.00
C660   C     0.14248   0.83684   0.97992   0.00000  Uiso   1.00
C661   C     0.10443   0.81926   0.02634   0.00000  Uiso   1.00
C662   C     0.20026   0.79382   0.79824   0.00000  Uiso   1.00
C663   C     0.24826   0.77953   0.79686   0.00000  Uiso   1.00
C664   C     0.25859   0.73574   0.75957   0.00000  Uiso   1.00
C665   C     0.15379   0.86627   0.76779   0.00000  Uiso   1.00
C666   C     0.16274   0.91290   0.74081   0.00000  Uiso   1.00
C667   C     0.13395   0.93010   0.67785   0.00000  Uiso   1.00
H668   H     0.08555   0.76579   0.74502   0.00000  Uiso   1.00
H669   H     0.04016   0.75688   0.88249   0.00000  Uiso   1.00
H670   H     0.14592   0.69958   0.69945   0.00000  Uiso   1.00
H671   H     0.06041   0.83293   0.64341   0.00000  Uiso   1.00
H672   H     0.00590   0.75954   0.05018   0.00000  Uiso   1.00
H673   H     0.22891   0.63872   0.66422   0.00000  Uiso   1.00
H674   H     0.04859   0.91991   0.54603   0.00000  Uiso   1.00
H675   H     0.20927   0.86246   0.86279   0.00000  Uiso   1.00
H676   H     0.17066   0.85886   0.00672   0.00000  Uiso   1.00
H677   H     0.27643   0.80156   0.82369   0.00000  Uiso   1.00
H678   H     0.19092   0.93490   0.76764   0.00000  Uiso   1.00
H679   H     0.11182   0.84230   0.15102   0.00000  Uiso   1.00
H680   H     0.33484   0.72149   0.76505   0.00000  Uiso   1.00
H681   H     0.15451   0.00268   0.64686   0.00000  Uiso   1.00
O682   O     0.03124   0.79679   0.19316   0.00000  Uiso   1.00
O683   O     0.32382   0.63830   0.68678   0.00000  Uiso   1.00
O684   O     0.08724   0.00721   0.53172   0.00000  Uiso   1.00
N685   N     0.03612   0.77952   0.05416   0.00000  Uiso   1.00
N686   N     0.24462   0.66656   0.69332   0.00000  Uiso   1.00
N687   N     0.07604   0.92945   0.58280   0.00000  Uiso   1.00
N688   N     0.09312   0.82405   0.10841   0.00000  Uiso   1.00
N689   N     0.30162   0.71110   0.74757   0.00000  Uiso   1.00
N690   N     0.13304   0.97398   0.63706   0.00000  Uiso   1.00
C691   C     0.61389   0.28794   0.27201   0.00000  Uiso   1.00
C692   C     0.60638   0.29651   0.36302   0.00000  Uiso   1.00
C693   C     0.56832   0.27890   0.40933   0.00000  Uiso   1.00
C694   C     0.56796   0.29076   0.49162   0.00000  Uiso   1.00
C695   C     0.55077   0.29971   0.62768   0.00000  Uiso   1.00
C696   C     0.66385   0.26537   0.26358   0.00000  Uiso   1.00
C697   C     0.67410   0.22159   0.22627   0.00000  Uiso   1.00
C698   C     0.72211   0.20724   0.22485   0.00000  Uiso   1.00
C699   C     0.79415   0.16787   0.20648   0.00000  Uiso   1.00
C700   C     0.61738   0.33782   0.23314   0.00000  Uiso   1.00
C701   C     0.58858   0.35495   0.17021   0.00000  Uiso   1.00
C702   C     0.59748   0.40160   0.14314   0.00000  Uiso   1.00
C703   C     0.59737   0.47473   0.07749   0.00000  Uiso   1.00
C704   C     0.68092   0.34031   0.33581   0.00000  Uiso   1.00
C705   C     0.64279   0.32495   0.39768   0.00000  Uiso   1.00
C706   C     0.64248   0.33684   0.47992   0.00000  Uiso   1.00
C707   C     0.60443   0.31926   0.52634   0.00000  Uiso   1.00
C708   C     0.70026   0.29382   0.29824   0.00000  Uiso   1.00
C709   C     0.74826   0.27953   0.29686   0.00000  Uiso   1.00
C710   C     0.75859   0.23574   0.25957   0.00000  Uiso   1.00
C711   C     0.65379   0.36627   0.26779   0.00000  Uiso   1.00
C712   C     0.66274   0.41290   0.24081   0.00000  Uiso   1.00
C713   C     0.63395   0.43010   0.17785   0.00000  Uiso   1.00
H714   H     0.58555   0.26579   0.24502   0.00000  Uiso   1.00
H715   H     0.54016   0.25688   0.38249   0.00000  Uiso   1.00
H716   H     0.64592   0.19958   0.19945   0.00000  Uiso   1.00
H717   H     0.56041   0.33293   0.14341   0.00000  Uiso   1.00
H718   H     0.50590   0.25954   0.55018   0.00000  Uiso   1.00
H719   H     0.72891   0.13872   0.16422   0.00000  Uiso   1.00
H720   H     0.54859   0.41991   0.04603   0.00000  Uiso   1.00
H721   H     0.70927   0.36246   0.36279   0.00000  Uiso   1.00
H722   H     0.67066   0.35886   0.50672   0.00000  Uiso   1.00
H723   H     0.77643   0.30156   0.32369   0.00000  Uiso   1.00
H724   H     0.69092   0.43490   0.26764   0.00000  Uiso   1.00
H725   H     0.61182   0.34230   0.65102   0.00000  Uiso   1.00
H726   H     0.83484   0.22149   0.26505   0.00000  Uiso   1.00
H727   H     0.65451   0.50268   0.14686   0.00000  Uiso   1.00
O728   O     0.53124   0.29679   0.69316   0.00000  Uiso   1.00
O729   O     0.82382   0.13830   0.18678   0.00000  Uiso   1.00
O730   O     0.58724   0.50721   0.03172   0.00000  Uiso   1.00
N731   N     0.53612   0.27952   0.55416   0.00000  Uiso   1.00
N732   N     0.74462   0.16656   0.19332   0.00000  Uiso   1.00
N733   N     0.57604   0.42945   0.08280   0.00000  Uiso   1.00
N734   N     0.59312   0.32405   0.60841   0.00000  Uiso   1.00
N735   N     0.80162   0.21110   0.24757   0.00000  Uiso   1.00
N736   N     0.63304   0.47398   0.13706   0.00000  Uiso   1.00
