data_job_04560
_audit_creation_date              2018-12-19
_audit_creation_method            'Materials Studio'
_symmetry_space_group_name_H-M    'P1'
_symmetry_Int_Tables_number       1
_symmetry_cell_setting            triclinic
loop_
_symmetry_equiv_pos_as_xyz
  x,y,z
_cell_length_a                    15.0437
_cell_length_b                    29.7600
_cell_length_c                    20.8183
_cell_angle_alpha                 90.0000
_cell_angle_beta                  90.0000
_cell_angle_gamma                 90.0000
loop_
_atom_site_label
_atom_site_type_symbol
_atom_site_fract_x
_atom_site_fract_y
_atom_site_fract_z
_atom_site_U_iso_or_equiv
_atom_site_adp_type
_atom_site_occupancy
C1     C     0.72838   0.16253   0.82302   0.00000  Uiso   1.00
C2     C     0.69361   0.20777   0.84651   0.00000  Uiso   1.00
C3     C     0.71484   0.24937   0.82059   0.00000  Uiso   1.00
C4     C     0.67611   0.28679   0.84893   0.00000  Uiso   1.00
C5     C     0.63095   0.35766   0.87745   0.00000  Uiso   1.00
C6     C     0.77206   0.14034   0.88101   0.00000  Uiso   1.00
C7     C     0.85924   0.12525   0.88410   0.00000  Uiso   1.00
C8     C     0.88655   0.10590   0.94149   0.00000  Uiso   1.00
C9     C     0.96317   0.07206   0.02357   0.00000  Uiso   1.00
C10    C     0.64649   0.13432   0.80762   0.00000  Uiso   1.00
C11    C     0.62811   0.11415   0.74900   0.00000  Uiso   1.00
C12    C     0.54971   0.08972   0.74460   0.00000  Uiso   1.00
C13    C     0.43136   0.04653   0.71273   0.00000  Uiso   1.00
C14    C     0.62187   0.15500   0.91944   0.00000  Uiso   1.00
C15    C     0.63575   0.20368   0.89888   0.00000  Uiso   1.00
C16    C     0.59699   0.24105   0.92727   0.00000  Uiso   1.00
C17    C     0.61815   0.28270   0.90140   0.00000  Uiso   1.00
C18    C     0.71421   0.13625   0.93339   0.00000  Uiso   1.00
C19    C     0.74139   0.11692   0.99079   0.00000  Uiso   1.00
C20    C     0.82860   0.10181   0.99396   0.00000  Uiso   1.00
C21    C     0.58863   0.13023   0.85999   0.00000  Uiso   1.00
C22    C     0.51025   0.10583   0.85569   0.00000  Uiso   1.00
C23    C     0.49175   0.08563   0.79707   0.00000  Uiso   1.00
H24    H     0.77343   0.16571   0.78225   0.00000  Uiso   1.00
H25    H     0.75962   0.25252   0.78006   0.00000  Uiso   1.00
H26    H     0.90400   0.12841   0.84356   0.00000  Uiso   1.00
H27    H     0.67289   0.11732   0.70848   0.00000  Uiso   1.00
H28    H     0.71882   0.34696   0.80075   0.00000  Uiso   1.00
H29    H     0.02324   0.08526   0.93464   0.00000  Uiso   1.00
H30    H     0.53591   0.06186   0.64980   0.00000  Uiso   1.00
H31    H     0.57682   0.15182   0.96022   0.00000  Uiso   1.00
H32    H     0.55222   0.23787   0.96780   0.00000  Uiso   1.00
H33    H     0.69660   0.11376   0.03131   0.00000  Uiso   1.00
H34    H     0.46550   0.10267   0.89623   0.00000  Uiso   1.00
H35    H     0.55049   0.33508   0.95313   0.00000  Uiso   1.00
H36    H     0.85491   0.07337   0.08702   0.00000  Uiso   1.00
H37    H     0.36758   0.04998   0.80218   0.00000  Uiso   1.00
O38    O     0.62204   0.39788   0.87872   0.00000  Uiso   1.00
O39    O     0.02142   0.05453   0.05438   0.00000  Uiso   1.00
O40    O     0.38206   0.02384   0.68067   0.00000  Uiso   1.00
N41    N     0.68256   0.33235   0.83556   0.00000  Uiso   1.00
N42    N     0.96719   0.08769   0.96075   0.00000  Uiso   1.00
N43    N     0.51159   0.06580   0.69445   0.00000  Uiso   1.00
N44    N     0.59198   0.32596   0.91756   0.00000  Uiso   1.00
N45    N     0.87661   0.08129   0.04274   0.00000  Uiso   1.00
N46    N     0.42101   0.05941   0.77644   0.00000  Uiso   1.00
C47    C     0.43625   0.10973   0.19436   0.00000  Uiso   1.00
C48    C     0.47263   0.15496   0.17211   0.00000  Uiso   1.00
C49    C     0.45201   0.19644   0.19865   0.00000  Uiso   1.00
C50    C     0.49222   0.23387   0.17144   0.00000  Uiso   1.00
C51    C     0.53974   0.30470   0.14477   0.00000  Uiso   1.00
C52    C     0.39308   0.08841   0.13551   0.00000  Uiso   1.00
C53    C     0.30558   0.07393   0.13129   0.00000  Uiso   1.00
C54    C     0.27884   0.05533   0.07326   0.00000  Uiso   1.00
C55    C     0.20288   0.02280   0.98978   0.00000  Uiso   1.00
C56    C     0.51711   0.08083   0.20997   0.00000  Uiso   1.00
C57    C     0.53388   0.05997   0.26835   0.00000  Uiso   1.00
C58    C     0.61155   0.03498   0.27301   0.00000  Uiso   1.00
C59    C     0.72816   0.99069   0.30515   0.00000  Uiso   1.00
C60    C     0.54435   0.10243   0.09882   0.00000  Uiso   1.00
C61    C     0.53134   0.15099   0.12022   0.00000  Uiso   1.00
C62    C     0.57160   0.18836   0.09295   0.00000  Uiso   1.00
C63    C     0.55104   0.22989   0.11945   0.00000  Uiso   1.00
C64    C     0.45179   0.08444   0.08362   0.00000  Uiso   1.00
C65    C     0.42517   0.06585   0.02558   0.00000  Uiso   1.00
C66    C     0.33765   0.05135   0.02127   0.00000  Uiso   1.00
C67    C     0.57582   0.07686   0.15808   0.00000  Uiso   1.00
C68    C     0.65348   0.05189   0.16265   0.00000  Uiso   1.00
C69    C     0.67037   0.03100   0.22102   0.00000  Uiso   1.00
H70    H     0.39054   0.11282   0.23476   0.00000  Uiso   1.00
H71    H     0.40656   0.19950   0.23881   0.00000  Uiso   1.00
H72    H     0.26016   0.07700   0.17146   0.00000  Uiso   1.00
H73    H     0.48843   0.06305   0.30850   0.00000  Uiso   1.00
H74    H     0.45019   0.29385   0.22041   0.00000  Uiso   1.00
H75    H     0.14151   0.03554   0.07839   0.00000  Uiso   1.00
H76    H     0.62286   0.00612   0.36737   0.00000  Uiso   1.00
H77    H     0.59006   0.09934   0.05841   0.00000  Uiso   1.00
H78    H     0.61703   0.18528   0.05279   0.00000  Uiso   1.00
H79    H     0.47063   0.06278   0.98544   0.00000  Uiso   1.00
H80    H     0.69890   0.04883   0.12248   0.00000  Uiso   1.00
H81    H     0.62101   0.28231   0.06942   0.00000  Uiso   1.00
H82    H     0.31233   0.02400   0.92741   0.00000  Uiso   1.00
H83    H     0.79368   0.99458   0.21639   0.00000  Uiso   1.00
O84    O     0.54973   0.34486   0.14439   0.00000  Uiso   1.00
O85    O     0.14475   0.00596   0.95808   0.00000  Uiso   1.00
O86    O     0.77627   0.96736   0.33721   0.00000  Uiso   1.00
N87    N     0.48671   0.27934   0.18565   0.00000  Uiso   1.00
N88    N     0.19810   0.03784   0.05287   0.00000  Uiso   1.00
N89    N     0.64811   0.01032   0.32304   0.00000  Uiso   1.00
N90    N     0.57863   0.27313   0.10441   0.00000  Uiso   1.00
N91    N     0.29002   0.03163   0.97163   0.00000  Uiso   1.00
N92    N     0.74003   0.00411   0.24180   0.00000  Uiso   1.00
C93    C     0.72838   0.66253   0.32302   0.00000  Uiso   1.00
C94    C     0.69361   0.70777   0.34651   0.00000  Uiso   1.00
C95    C     0.71484   0.74937   0.32059   0.00000  Uiso   1.00
C96    C     0.67611   0.78679   0.34893   0.00000  Uiso   1.00
C97    C     0.63095   0.85766   0.37745   0.00000  Uiso   1.00
C98    C     0.77206   0.64034   0.38101   0.00000  Uiso   1.00
C99    C     0.85924   0.62525   0.38410   0.00000  Uiso   1.00
C100   C     0.88655   0.60590   0.44149   0.00000  Uiso   1.00
C101   C     0.96317   0.57206   0.52357   0.00000  Uiso   1.00
C102   C     0.64649   0.63432   0.30762   0.00000  Uiso   1.00
C103   C     0.62811   0.61415   0.24900   0.00000  Uiso   1.00
C104   C     0.54971   0.58972   0.24460   0.00000  Uiso   1.00
C105   C     0.43136   0.54653   0.21273   0.00000  Uiso   1.00
C106   C     0.62187   0.65500   0.41944   0.00000  Uiso   1.00
C107   C     0.63575   0.70368   0.39888   0.00000  Uiso   1.00
C108   C     0.59699   0.74105   0.42727   0.00000  Uiso   1.00
C109   C     0.61815   0.78270   0.40140   0.00000  Uiso   1.00
C110   C     0.71421   0.63625   0.43339   0.00000  Uiso   1.00
C111   C     0.74139   0.61692   0.49079   0.00000  Uiso   1.00
C112   C     0.82860   0.60181   0.49396   0.00000  Uiso   1.00
C113   C     0.58863   0.63023   0.35999   0.00000  Uiso   1.00
C114   C     0.51025   0.60583   0.35569   0.00000  Uiso   1.00
C115   C     0.49175   0.58563   0.29707   0.00000  Uiso   1.00
H116   H     0.77343   0.66571   0.28225   0.00000  Uiso   1.00
H117   H     0.75962   0.75252   0.28006   0.00000  Uiso   1.00
H118   H     0.90400   0.62841   0.34356   0.00000  Uiso   1.00
H119   H     0.67289   0.61732   0.20848   0.00000  Uiso   1.00
H120   H     0.71882   0.84696   0.30075   0.00000  Uiso   1.00
H121   H     0.02324   0.58526   0.43464   0.00000  Uiso   1.00
H122   H     0.53591   0.56186   0.14980   0.00000  Uiso   1.00
H123   H     0.57682   0.65182   0.46022   0.00000  Uiso   1.00
H124   H     0.55222   0.73787   0.46780   0.00000  Uiso   1.00
H125   H     0.69660   0.61376   0.53131   0.00000  Uiso   1.00
H126   H     0.46550   0.60267   0.39623   0.00000  Uiso   1.00
H127   H     0.55049   0.83508   0.45313   0.00000  Uiso   1.00
H128   H     0.85491   0.57337   0.58702   0.00000  Uiso   1.00
H129   H     0.36758   0.54998   0.30218   0.00000  Uiso   1.00
O130   O     0.62204   0.89788   0.37872   0.00000  Uiso   1.00
O131   O     0.02142   0.55453   0.55438   0.00000  Uiso   1.00
O132   O     0.38206   0.52384   0.18067   0.00000  Uiso   1.00
N133   N     0.68256   0.83235   0.33556   0.00000  Uiso   1.00
N134   N     0.96719   0.58769   0.46075   0.00000  Uiso   1.00
N135   N     0.51159   0.56580   0.19445   0.00000  Uiso   1.00
N136   N     0.59198   0.82596   0.41756   0.00000  Uiso   1.00
N137   N     0.87661   0.58129   0.54274   0.00000  Uiso   1.00
N138   N     0.42101   0.55941   0.27644   0.00000  Uiso   1.00
C139   C     0.43625   0.60973   0.69436   0.00000  Uiso   1.00
C140   C     0.47263   0.65496   0.67211   0.00000  Uiso   1.00
C141   C     0.45201   0.69644   0.69865   0.00000  Uiso   1.00
C142   C     0.49222   0.73387   0.67144   0.00000  Uiso   1.00
C143   C     0.53974   0.80470   0.64477   0.00000  Uiso   1.00
C144   C     0.39308   0.58841   0.63551   0.00000  Uiso   1.00
C145   C     0.30558   0.57393   0.63129   0.00000  Uiso   1.00
C146   C     0.27884   0.55533   0.57326   0.00000  Uiso   1.00
C147   C     0.20288   0.52280   0.48978   0.00000  Uiso   1.00
C148   C     0.51711   0.58083   0.70997   0.00000  Uiso   1.00
C149   C     0.53388   0.55997   0.76835   0.00000  Uiso   1.00
C150   C     0.61155   0.53498   0.77301   0.00000  Uiso   1.00
C151   C     0.72816   0.49069   0.80515   0.00000  Uiso   1.00
C152   C     0.54435   0.60243   0.59882   0.00000  Uiso   1.00
C153   C     0.53134   0.65099   0.62022   0.00000  Uiso   1.00
C154   C     0.57160   0.68836   0.59295   0.00000  Uiso   1.00
C155   C     0.55104   0.72989   0.61945   0.00000  Uiso   1.00
C156   C     0.45179   0.58444   0.58362   0.00000  Uiso   1.00
C157   C     0.42517   0.56585   0.52558   0.00000  Uiso   1.00
C158   C     0.33765   0.55135   0.52127   0.00000  Uiso   1.00
C159   C     0.57582   0.57686   0.65808   0.00000  Uiso   1.00
C160   C     0.65348   0.55189   0.66265   0.00000  Uiso   1.00
C161   C     0.67037   0.53100   0.72102   0.00000  Uiso   1.00
H162   H     0.39054   0.61282   0.73476   0.00000  Uiso   1.00
H163   H     0.40656   0.69950   0.73881   0.00000  Uiso   1.00
H164   H     0.26016   0.57700   0.67146   0.00000  Uiso   1.00
H165   H     0.48843   0.56305   0.80850   0.00000  Uiso   1.00
H166   H     0.45019   0.79385   0.72041   0.00000  Uiso   1.00
H167   H     0.14151   0.53554   0.57839   0.00000  Uiso   1.00
H168   H     0.62286   0.50612   0.86737   0.00000  Uiso   1.00
H169   H     0.59006   0.59934   0.55841   0.00000  Uiso   1.00
H170   H     0.61703   0.68528   0.55279   0.00000  Uiso   1.00
H171   H     0.47063   0.56278   0.48544   0.00000  Uiso   1.00
H172   H     0.69890   0.54883   0.62248   0.00000  Uiso   1.00
H173   H     0.62101   0.78231   0.56942   0.00000  Uiso   1.00
H174   H     0.31233   0.52400   0.42741   0.00000  Uiso   1.00
H175   H     0.79368   0.49458   0.71639   0.00000  Uiso   1.00
O176   O     0.54973   0.84486   0.64439   0.00000  Uiso   1.00
O177   O     0.14475   0.50596   0.45808   0.00000  Uiso   1.00
O178   O     0.77627   0.46736   0.83721   0.00000  Uiso   1.00
N179   N     0.48671   0.77934   0.68565   0.00000  Uiso   1.00
N180   N     0.19810   0.53784   0.55287   0.00000  Uiso   1.00
N181   N     0.64811   0.51032   0.82304   0.00000  Uiso   1.00
N182   N     0.57863   0.77313   0.60441   0.00000  Uiso   1.00
N183   N     0.29002   0.53163   0.47163   0.00000  Uiso   1.00
N184   N     0.74003   0.50411   0.74180   0.00000  Uiso   1.00
C185   C     0.27162   0.83747   0.82302   0.00000  Uiso   1.00
C186   C     0.30639   0.79223   0.84651   0.00000  Uiso   1.00
C187   C     0.28516   0.75063   0.82059   0.00000  Uiso   1.00
C188   C     0.32389   0.71321   0.84893   0.00000  Uiso   1.00
C189   C     0.36905   0.64234   0.87745   0.00000  Uiso   1.00
C190   C     0.22794   0.85966   0.88101   0.00000  Uiso   1.00
C191   C     0.14076   0.87475   0.88410   0.00000  Uiso   1.00
C192   C     0.11345   0.89410   0.94149   0.00000  Uiso   1.00
C193   C     0.03683   0.92794   0.02357   0.00000  Uiso   1.00
C194   C     0.35351   0.86568   0.80762   0.00000  Uiso   1.00
C195   C     0.37189   0.88585   0.74900   0.00000  Uiso   1.00
C196   C     0.45029   0.91028   0.74460   0.00000  Uiso   1.00
C197   C     0.56864   0.95347   0.71273   0.00000  Uiso   1.00
C198   C     0.37813   0.84500   0.91944   0.00000  Uiso   1.00
C199   C     0.36425   0.79632   0.89888   0.00000  Uiso   1.00
C200   C     0.40301   0.75895   0.92727   0.00000  Uiso   1.00
C201   C     0.38185   0.71730   0.90140   0.00000  Uiso   1.00
C202   C     0.28579   0.86375   0.93339   0.00000  Uiso   1.00
C203   C     0.25861   0.88308   0.99079   0.00000  Uiso   1.00
C204   C     0.17140   0.89819   0.99396   0.00000  Uiso   1.00
C205   C     0.41137   0.86977   0.85999   0.00000  Uiso   1.00
C206   C     0.48975   0.89417   0.85569   0.00000  Uiso   1.00
C207   C     0.50825   0.91437   0.79707   0.00000  Uiso   1.00
H208   H     0.22657   0.83429   0.78225   0.00000  Uiso   1.00
H209   H     0.24038   0.74748   0.78006   0.00000  Uiso   1.00
H210   H     0.09600   0.87159   0.84356   0.00000  Uiso   1.00
H211   H     0.32711   0.88268   0.70848   0.00000  Uiso   1.00
H212   H     0.28118   0.65304   0.80075   0.00000  Uiso   1.00
H213   H     0.97676   0.91474   0.93464   0.00000  Uiso   1.00
H214   H     0.46409   0.93814   0.64980   0.00000  Uiso   1.00
H215   H     0.42318   0.84818   0.96022   0.00000  Uiso   1.00
H216   H     0.44778   0.76213   0.96780   0.00000  Uiso   1.00
H217   H     0.30340   0.88624   0.03131   0.00000  Uiso   1.00
H218   H     0.53450   0.89733   0.89623   0.00000  Uiso   1.00
H219   H     0.44951   0.66492   0.95313   0.00000  Uiso   1.00
H220   H     0.14509   0.92663   0.08702   0.00000  Uiso   1.00
H221   H     0.63242   0.95002   0.80218   0.00000  Uiso   1.00
O222   O     0.37796   0.60212   0.87872   0.00000  Uiso   1.00
O223   O     0.97858   0.94547   0.05438   0.00000  Uiso   1.00
O224   O     0.61794   0.97616   0.68067   0.00000  Uiso   1.00
N225   N     0.31744   0.66765   0.83556   0.00000  Uiso   1.00
N226   N     0.03281   0.91231   0.96075   0.00000  Uiso   1.00
N227   N     0.48841   0.93420   0.69445   0.00000  Uiso   1.00
N228   N     0.40802   0.67404   0.91756   0.00000  Uiso   1.00
N229   N     0.12339   0.91871   0.04274   0.00000  Uiso   1.00
N230   N     0.57899   0.94059   0.77644   0.00000  Uiso   1.00
C231   C     0.56375   0.89027   0.19436   0.00000  Uiso   1.00
C232   C     0.52737   0.84504   0.17211   0.00000  Uiso   1.00
C233   C     0.54799   0.80356   0.19865   0.00000  Uiso   1.00
C234   C     0.50778   0.76613   0.17144   0.00000  Uiso   1.00
C235   C     0.46026   0.69530   0.14477   0.00000  Uiso   1.00
C236   C     0.60692   0.91159   0.13551   0.00000  Uiso   1.00
C237   C     0.69442   0.92607   0.13129   0.00000  Uiso   1.00
C238   C     0.72116   0.94467   0.07326   0.00000  Uiso   1.00
C239   C     0.79712   0.97720   0.98978   0.00000  Uiso   1.00
C240   C     0.48289   0.91917   0.20997   0.00000  Uiso   1.00
C241   C     0.46612   0.94003   0.26835   0.00000  Uiso   1.00
C242   C     0.38845   0.96502   0.27301   0.00000  Uiso   1.00
C243   C     0.27184   0.00931   0.30515   0.00000  Uiso   1.00
C244   C     0.45565   0.89757   0.09882   0.00000  Uiso   1.00
C245   C     0.46866   0.84901   0.12022   0.00000  Uiso   1.00
C246   C     0.42840   0.81164   0.09295   0.00000  Uiso   1.00
C247   C     0.44896   0.77011   0.11945   0.00000  Uiso   1.00
C248   C     0.54821   0.91556   0.08362   0.00000  Uiso   1.00
C249   C     0.57483   0.93415   0.02558   0.00000  Uiso   1.00
C250   C     0.66235   0.94865   0.02127   0.00000  Uiso   1.00
C251   C     0.42418   0.92314   0.15808   0.00000  Uiso   1.00
C252   C     0.34652   0.94811   0.16265   0.00000  Uiso   1.00
C253   C     0.32963   0.96900   0.22102   0.00000  Uiso   1.00
H254   H     0.60946   0.88718   0.23476   0.00000  Uiso   1.00
H255   H     0.59344   0.80050   0.23881   0.00000  Uiso   1.00
H256   H     0.73984   0.92300   0.17146   0.00000  Uiso   1.00
H257   H     0.51157   0.93695   0.30850   0.00000  Uiso   1.00
H258   H     0.54981   0.70615   0.22041   0.00000  Uiso   1.00
H259   H     0.85849   0.96446   0.07839   0.00000  Uiso   1.00
H260   H     0.37714   0.99388   0.36737   0.00000  Uiso   1.00
H261   H     0.40994   0.90066   0.05841   0.00000  Uiso   1.00
H262   H     0.38297   0.81472   0.05279   0.00000  Uiso   1.00
H263   H     0.52937   0.93722   0.98544   0.00000  Uiso   1.00
H264   H     0.30110   0.95117   0.12248   0.00000  Uiso   1.00
H265   H     0.37899   0.71769   0.06942   0.00000  Uiso   1.00
H266   H     0.68767   0.97600   0.92741   0.00000  Uiso   1.00
H267   H     0.20632   0.00542   0.21639   0.00000  Uiso   1.00
O268   O     0.45027   0.65514   0.14439   0.00000  Uiso   1.00
O269   O     0.85525   0.99404   0.95808   0.00000  Uiso   1.00
O270   O     0.22373   0.03264   0.33721   0.00000  Uiso   1.00
N271   N     0.51329   0.72066   0.18565   0.00000  Uiso   1.00
N272   N     0.80190   0.96216   0.05287   0.00000  Uiso   1.00
N273   N     0.35189   0.98968   0.32304   0.00000  Uiso   1.00
N274   N     0.42137   0.72687   0.10441   0.00000  Uiso   1.00
N275   N     0.70998   0.96837   0.97163   0.00000  Uiso   1.00
N276   N     0.25997   0.99589   0.24180   0.00000  Uiso   1.00
C277   C     0.27162   0.33747   0.32302   0.00000  Uiso   1.00
C278   C     0.30639   0.29223   0.34651   0.00000  Uiso   1.00
C279   C     0.28516   0.25063   0.32059   0.00000  Uiso   1.00
C280   C     0.32389   0.21321   0.34893   0.00000  Uiso   1.00
C281   C     0.36905   0.14234   0.37745   0.00000  Uiso   1.00
C282   C     0.22794   0.35966   0.38101   0.00000  Uiso   1.00
C283   C     0.14076   0.37475   0.38410   0.00000  Uiso   1.00
C284   C     0.11345   0.39410   0.44149   0.00000  Uiso   1.00
C285   C     0.03683   0.42794   0.52357   0.00000  Uiso   1.00
C286   C     0.35351   0.36568   0.30762   0.00000  Uiso   1.00
C287   C     0.37189   0.38585   0.24900   0.00000  Uiso   1.00
C288   C     0.45029   0.41028   0.24460   0.00000  Uiso   1.00
C289   C     0.56864   0.45347   0.21273   0.00000  Uiso   1.00
C290   C     0.37813   0.34500   0.41944   0.00000  Uiso   1.00
C291   C     0.36425   0.29632   0.39888   0.00000  Uiso   1.00
C292   C     0.40301   0.25895   0.42727   0.00000  Uiso   1.00
C293   C     0.38185   0.21730   0.40140   0.00000  Uiso   1.00
C294   C     0.28579   0.36375   0.43339   0.00000  Uiso   1.00
C295   C     0.25861   0.38308   0.49079   0.00000  Uiso   1.00
C296   C     0.17140   0.39819   0.49396   0.00000  Uiso   1.00
C297   C     0.41137   0.36977   0.35999   0.00000  Uiso   1.00
C298   C     0.48975   0.39417   0.35569   0.00000  Uiso   1.00
C299   C     0.50825   0.41437   0.29707   0.00000  Uiso   1.00
H300   H     0.22657   0.33429   0.28225   0.00000  Uiso   1.00
H301   H     0.24038   0.24748   0.28006   0.00000  Uiso   1.00
H302   H     0.09600   0.37159   0.34356   0.00000  Uiso   1.00
H303   H     0.32711   0.38268   0.20848   0.00000  Uiso   1.00
H304   H     0.28118   0.15304   0.30075   0.00000  Uiso   1.00
H305   H     0.97676   0.41474   0.43464   0.00000  Uiso   1.00
H306   H     0.46409   0.43814   0.14980   0.00000  Uiso   1.00
H307   H     0.42318   0.34818   0.46022   0.00000  Uiso   1.00
H308   H     0.44778   0.26213   0.46780   0.00000  Uiso   1.00
H309   H     0.30340   0.38624   0.53131   0.00000  Uiso   1.00
H310   H     0.53450   0.39733   0.39623   0.00000  Uiso   1.00
H311   H     0.44951   0.16492   0.45313   0.00000  Uiso   1.00
H312   H     0.14509   0.42663   0.58702   0.00000  Uiso   1.00
H313   H     0.63242   0.45002   0.30218   0.00000  Uiso   1.00
O314   O     0.37796   0.10212   0.37872   0.00000  Uiso   1.00
O315   O     0.97858   0.44547   0.55438   0.00000  Uiso   1.00
O316   O     0.61794   0.47616   0.18067   0.00000  Uiso   1.00
N317   N     0.31744   0.16765   0.33556   0.00000  Uiso   1.00
N318   N     0.03281   0.41231   0.46075   0.00000  Uiso   1.00
N319   N     0.48841   0.43420   0.19445   0.00000  Uiso   1.00
N320   N     0.40802   0.17404   0.41756   0.00000  Uiso   1.00
N321   N     0.12339   0.41871   0.54274   0.00000  Uiso   1.00
N322   N     0.57899   0.44059   0.27644   0.00000  Uiso   1.00
C323   C     0.56375   0.39027   0.69436   0.00000  Uiso   1.00
C324   C     0.52737   0.34504   0.67211   0.00000  Uiso   1.00
C325   C     0.54799   0.30356   0.69865   0.00000  Uiso   1.00
C326   C     0.50778   0.26613   0.67144   0.00000  Uiso   1.00
C327   C     0.46026   0.19530   0.64477   0.00000  Uiso   1.00
C328   C     0.60692   0.41159   0.63551   0.00000  Uiso   1.00
C329   C     0.69442   0.42607   0.63129   0.00000  Uiso   1.00
C330   C     0.72116   0.44467   0.57326   0.00000  Uiso   1.00
C331   C     0.79712   0.47720   0.48978   0.00000  Uiso   1.00
C332   C     0.48289   0.41917   0.70997   0.00000  Uiso   1.00
C333   C     0.46612   0.44003   0.76835   0.00000  Uiso   1.00
C334   C     0.38845   0.46502   0.77301   0.00000  Uiso   1.00
C335   C     0.27184   0.50931   0.80515   0.00000  Uiso   1.00
C336   C     0.45565   0.39757   0.59882   0.00000  Uiso   1.00
C337   C     0.46866   0.34901   0.62022   0.00000  Uiso   1.00
C338   C     0.42840   0.31164   0.59295   0.00000  Uiso   1.00
C339   C     0.44896   0.27011   0.61945   0.00000  Uiso   1.00
C340   C     0.54821   0.41556   0.58362   0.00000  Uiso   1.00
C341   C     0.57483   0.43415   0.52558   0.00000  Uiso   1.00
C342   C     0.66235   0.44865   0.52127   0.00000  Uiso   1.00
C343   C     0.42418   0.42314   0.65808   0.00000  Uiso   1.00
C344   C     0.34652   0.44811   0.66265   0.00000  Uiso   1.00
C345   C     0.32963   0.46900   0.72102   0.00000  Uiso   1.00
H346   H     0.60946   0.38718   0.73476   0.00000  Uiso   1.00
H347   H     0.59344   0.30050   0.73881   0.00000  Uiso   1.00
H348   H     0.73984   0.42300   0.67146   0.00000  Uiso   1.00
H349   H     0.51157   0.43695   0.80850   0.00000  Uiso   1.00
H350   H     0.54981   0.20615   0.72041   0.00000  Uiso   1.00
H351   H     0.85849   0.46446   0.57839   0.00000  Uiso   1.00
H352   H     0.37714   0.49388   0.86737   0.00000  Uiso   1.00
H353   H     0.40994   0.40066   0.55841   0.00000  Uiso   1.00
H354   H     0.38297   0.31472   0.55279   0.00000  Uiso   1.00
H355   H     0.52937   0.43722   0.48544   0.00000  Uiso   1.00
H356   H     0.30110   0.45117   0.62248   0.00000  Uiso   1.00
H357   H     0.37899   0.21769   0.56942   0.00000  Uiso   1.00
H358   H     0.68767   0.47600   0.42741   0.00000  Uiso   1.00
H359   H     0.20632   0.50542   0.71639   0.00000  Uiso   1.00
O360   O     0.45027   0.15514   0.64439   0.00000  Uiso   1.00
O361   O     0.85525   0.49404   0.45808   0.00000  Uiso   1.00
O362   O     0.22373   0.53264   0.83721   0.00000  Uiso   1.00
N363   N     0.51329   0.22066   0.68565   0.00000  Uiso   1.00
N364   N     0.80190   0.46216   0.55287   0.00000  Uiso   1.00
N365   N     0.35189   0.48968   0.82304   0.00000  Uiso   1.00
N366   N     0.42137   0.22687   0.60441   0.00000  Uiso   1.00
N367   N     0.70998   0.46837   0.47163   0.00000  Uiso   1.00
N368   N     0.25997   0.49589   0.74180   0.00000  Uiso   1.00
C369   C     0.22838   0.33747   0.82302   0.00000  Uiso   1.00
C370   C     0.19361   0.29223   0.84651   0.00000  Uiso   1.00
C371   C     0.21484   0.25063   0.82059   0.00000  Uiso   1.00
C372   C     0.17611   0.21321   0.84893   0.00000  Uiso   1.00
C373   C     0.13095   0.14234   0.87745   0.00000  Uiso   1.00
C374   C     0.27206   0.35966   0.88101   0.00000  Uiso   1.00
C375   C     0.35924   0.37475   0.88410   0.00000  Uiso   1.00
C376   C     0.38655   0.39410   0.94149   0.00000  Uiso   1.00
C377   C     0.46317   0.42794   0.02357   0.00000  Uiso   1.00
C378   C     0.14649   0.36568   0.80762   0.00000  Uiso   1.00
C379   C     0.12811   0.38585   0.74900   0.00000  Uiso   1.00
C380   C     0.04971   0.41028   0.74460   0.00000  Uiso   1.00
C381   C     0.93136   0.45347   0.71273   0.00000  Uiso   1.00
C382   C     0.12187   0.34500   0.91944   0.00000  Uiso   1.00
C383   C     0.13575   0.29632   0.89888   0.00000  Uiso   1.00
C384   C     0.09699   0.25895   0.92727   0.00000  Uiso   1.00
C385   C     0.11815   0.21730   0.90140   0.00000  Uiso   1.00
C386   C     0.21421   0.36375   0.93339   0.00000  Uiso   1.00
C387   C     0.24139   0.38308   0.99079   0.00000  Uiso   1.00
C388   C     0.32860   0.39819   0.99396   0.00000  Uiso   1.00
C389   C     0.08863   0.36977   0.85999   0.00000  Uiso   1.00
C390   C     0.01025   0.39417   0.85569   0.00000  Uiso   1.00
C391   C     0.99175   0.41437   0.79707   0.00000  Uiso   1.00
H392   H     0.27343   0.33429   0.78225   0.00000  Uiso   1.00
H393   H     0.25962   0.24748   0.78006   0.00000  Uiso   1.00
H394   H     0.40400   0.37159   0.84356   0.00000  Uiso   1.00
H395   H     0.17289   0.38268   0.70848   0.00000  Uiso   1.00
H396   H     0.21882   0.15304   0.80075   0.00000  Uiso   1.00
H397   H     0.52324   0.41474   0.93464   0.00000  Uiso   1.00
H398   H     0.03591   0.43814   0.64980   0.00000  Uiso   1.00
H399   H     0.07682   0.34818   0.96022   0.00000  Uiso   1.00
H400   H     0.05222   0.26213   0.96780   0.00000  Uiso   1.00
H401   H     0.19660   0.38624   0.03131   0.00000  Uiso   1.00
H402   H     0.96550   0.39733   0.89623   0.00000  Uiso   1.00
H403   H     0.05049   0.16492   0.95313   0.00000  Uiso   1.00
H404   H     0.35491   0.42663   0.08702   0.00000  Uiso   1.00
H405   H     0.86758   0.45002   0.80218   0.00000  Uiso   1.00
O406   O     0.12204   0.10212   0.87872   0.00000  Uiso   1.00
O407   O     0.52142   0.44547   0.05438   0.00000  Uiso   1.00
O408   O     0.88206   0.47616   0.68067   0.00000  Uiso   1.00
N409   N     0.18256   0.16765   0.83556   0.00000  Uiso   1.00
N410   N     0.46719   0.41231   0.96075   0.00000  Uiso   1.00
N411   N     0.01159   0.43420   0.69445   0.00000  Uiso   1.00
N412   N     0.09198   0.17404   0.91756   0.00000  Uiso   1.00
N413   N     0.37661   0.41871   0.04274   0.00000  Uiso   1.00
N414   N     0.92101   0.44059   0.77644   0.00000  Uiso   1.00
C415   C     0.93625   0.39027   0.19436   0.00000  Uiso   1.00
C416   C     0.97263   0.34504   0.17211   0.00000  Uiso   1.00
C417   C     0.95201   0.30356   0.19865   0.00000  Uiso   1.00
C418   C     0.99222   0.26613   0.17144   0.00000  Uiso   1.00
C419   C     0.03974   0.19530   0.14477   0.00000  Uiso   1.00
C420   C     0.89308   0.41159   0.13551   0.00000  Uiso   1.00
C421   C     0.80558   0.42607   0.13129   0.00000  Uiso   1.00
C422   C     0.77884   0.44467   0.07326   0.00000  Uiso   1.00
C423   C     0.70288   0.47720   0.98978   0.00000  Uiso   1.00
C424   C     0.01711   0.41917   0.20997   0.00000  Uiso   1.00
C425   C     0.03388   0.44003   0.26835   0.00000  Uiso   1.00
C426   C     0.11155   0.46502   0.27301   0.00000  Uiso   1.00
C427   C     0.22816   0.50931   0.30515   0.00000  Uiso   1.00
C428   C     0.04435   0.39757   0.09882   0.00000  Uiso   1.00
C429   C     0.03134   0.34901   0.12022   0.00000  Uiso   1.00
C430   C     0.07160   0.31164   0.09295   0.00000  Uiso   1.00
C431   C     0.05104   0.27011   0.11945   0.00000  Uiso   1.00
C432   C     0.95179   0.41556   0.08362   0.00000  Uiso   1.00
C433   C     0.92517   0.43415   0.02558   0.00000  Uiso   1.00
C434   C     0.83765   0.44865   0.02127   0.00000  Uiso   1.00
C435   C     0.07582   0.42314   0.15808   0.00000  Uiso   1.00
C436   C     0.15348   0.44811   0.16265   0.00000  Uiso   1.00
C437   C     0.17037   0.46900   0.22102   0.00000  Uiso   1.00
H438   H     0.89054   0.38718   0.23476   0.00000  Uiso   1.00
H439   H     0.90656   0.30050   0.23881   0.00000  Uiso   1.00
H440   H     0.76016   0.42300   0.17146   0.00000  Uiso   1.00
H441   H     0.98843   0.43695   0.30850   0.00000  Uiso   1.00
H442   H     0.95019   0.20615   0.22041   0.00000  Uiso   1.00
H443   H     0.64151   0.46446   0.07839   0.00000  Uiso   1.00
H444   H     0.12286   0.49388   0.36737   0.00000  Uiso   1.00
H445   H     0.09006   0.40066   0.05841   0.00000  Uiso   1.00
H446   H     0.11703   0.31472   0.05279   0.00000  Uiso   1.00
H447   H     0.97063   0.43722   0.98544   0.00000  Uiso   1.00
H448   H     0.19890   0.45117   0.12248   0.00000  Uiso   1.00
H449   H     0.12101   0.21769   0.06942   0.00000  Uiso   1.00
H450   H     0.81233   0.47600   0.92741   0.00000  Uiso   1.00
H451   H     0.29368   0.50542   0.21639   0.00000  Uiso   1.00
O452   O     0.04973   0.15514   0.14439   0.00000  Uiso   1.00
O453   O     0.64475   0.49404   0.95808   0.00000  Uiso   1.00
O454   O     0.27627   0.53264   0.33721   0.00000  Uiso   1.00
N455   N     0.98671   0.22066   0.18565   0.00000  Uiso   1.00
N456   N     0.69810   0.46216   0.05287   0.00000  Uiso   1.00
N457   N     0.14811   0.48968   0.32304   0.00000  Uiso   1.00
N458   N     0.07863   0.22687   0.10441   0.00000  Uiso   1.00
N459   N     0.79002   0.46837   0.97163   0.00000  Uiso   1.00
N460   N     0.24003   0.49589   0.24180   0.00000  Uiso   1.00
C461   C     0.22838   0.83747   0.32302   0.00000  Uiso   1.00
C462   C     0.19361   0.79223   0.34651   0.00000  Uiso   1.00
C463   C     0.21484   0.75063   0.32059   0.00000  Uiso   1.00
C464   C     0.17611   0.71321   0.34893   0.00000  Uiso   1.00
C465   C     0.13095   0.64234   0.37745   0.00000  Uiso   1.00
C466   C     0.27206   0.85966   0.38101   0.00000  Uiso   1.00
C467   C     0.35924   0.87475   0.38410   0.00000  Uiso   1.00
C468   C     0.38655   0.89410   0.44149   0.00000  Uiso   1.00
C469   C     0.46317   0.92794   0.52357   0.00000  Uiso   1.00
C470   C     0.14649   0.86568   0.30762   0.00000  Uiso   1.00
C471   C     0.12811   0.88585   0.24900   0.00000  Uiso   1.00
C472   C     0.04971   0.91028   0.24460   0.00000  Uiso   1.00
C473   C     0.93136   0.95347   0.21273   0.00000  Uiso   1.00
C474   C     0.12187   0.84500   0.41944   0.00000  Uiso   1.00
C475   C     0.13575   0.79632   0.39888   0.00000  Uiso   1.00
C476   C     0.09699   0.75895   0.42727   0.00000  Uiso   1.00
C477   C     0.11815   0.71730   0.40140   0.00000  Uiso   1.00
C478   C     0.21421   0.86375   0.43339   0.00000  Uiso   1.00
C479   C     0.24139   0.88308   0.49079   0.00000  Uiso   1.00
C480   C     0.32860   0.89819   0.49396   0.00000  Uiso   1.00
C481   C     0.08863   0.86977   0.35999   0.00000  Uiso   1.00
C482   C     0.01025   0.89417   0.35569   0.00000  Uiso   1.00
C483   C     0.99175   0.91437   0.29707   0.00000  Uiso   1.00
H484   H     0.27343   0.83429   0.28225   0.00000  Uiso   1.00
H485   H     0.25962   0.74748   0.28006   0.00000  Uiso   1.00
H486   H     0.40400   0.87159   0.34356   0.00000  Uiso   1.00
H487   H     0.17289   0.88268   0.20848   0.00000  Uiso   1.00
H488   H     0.21882   0.65304   0.30075   0.00000  Uiso   1.00
H489   H     0.52324   0.91474   0.43464   0.00000  Uiso   1.00
H490   H     0.03591   0.93814   0.14980   0.00000  Uiso   1.00
H491   H     0.07682   0.84818   0.46022   0.00000  Uiso   1.00
H492   H     0.05222   0.76213   0.46780   0.00000  Uiso   1.00
H493   H     0.19660   0.88624   0.53131   0.00000  Uiso   1.00
H494   H     0.96550   0.89733   0.39623   0.00000  Uiso   1.00
H495   H     0.05049   0.66492   0.45313   0.00000  Uiso   1.00
H496   H     0.35491   0.92663   0.58702   0.00000  Uiso   1.00
H497   H     0.86758   0.95002   0.30218   0.00000  Uiso   1.00
O498   O     0.12204   0.60212   0.37872   0.00000  Uiso   1.00
O499   O     0.52142   0.94547   0.55438   0.00000  Uiso   1.00
O500   O     0.88206   0.97616   0.18067   0.00000  Uiso   1.00
N501   N     0.18256   0.66765   0.33556   0.00000  Uiso   1.00
N502   N     0.46719   0.91231   0.46075   0.00000  Uiso   1.00
N503   N     0.01159   0.93420   0.19445   0.00000  Uiso   1.00
N504   N     0.09198   0.67404   0.41756   0.00000  Uiso   1.00
N505   N     0.37661   0.91871   0.54274   0.00000  Uiso   1.00
N506   N     0.92101   0.94059   0.27644   0.00000  Uiso   1.00
C507   C     0.93625   0.89027   0.69436   0.00000  Uiso   1.00
C508   C     0.97263   0.84504   0.67211   0.00000  Uiso   1.00
C509   C     0.95201   0.80356   0.69865   0.00000  Uiso   1.00
C510   C     0.99222   0.76613   0.67144   0.00000  Uiso   1.00
C511   C     0.03974   0.69530   0.64477   0.00000  Uiso   1.00
C512   C     0.89308   0.91159   0.63551   0.00000  Uiso   1.00
C513   C     0.80558   0.92607   0.63129   0.00000  Uiso   1.00
C514   C     0.77884   0.94467   0.57326   0.00000  Uiso   1.00
C515   C     0.70288   0.97720   0.48978   0.00000  Uiso   1.00
C516   C     0.01711   0.91917   0.70997   0.00000  Uiso   1.00
C517   C     0.03388   0.94003   0.76835   0.00000  Uiso   1.00
C518   C     0.11155   0.96502   0.77301   0.00000  Uiso   1.00
C519   C     0.22816   0.00931   0.80515   0.00000  Uiso   1.00
C520   C     0.04435   0.89757   0.59882   0.00000  Uiso   1.00
C521   C     0.03134   0.84901   0.62022   0.00000  Uiso   1.00
C522   C     0.07160   0.81164   0.59295   0.00000  Uiso   1.00
C523   C     0.05104   0.77011   0.61945   0.00000  Uiso   1.00
C524   C     0.95179   0.91556   0.58362   0.00000  Uiso   1.00
C525   C     0.92517   0.93415   0.52558   0.00000  Uiso   1.00
C526   C     0.83765   0.94865   0.52127   0.00000  Uiso   1.00
C527   C     0.07582   0.92314   0.65808   0.00000  Uiso   1.00
C528   C     0.15348   0.94811   0.66265   0.00000  Uiso   1.00
C529   C     0.17037   0.96900   0.72102   0.00000  Uiso   1.00
H530   H     0.89054   0.88718   0.73476   0.00000  Uiso   1.00
H531   H     0.90656   0.80050   0.73881   0.00000  Uiso   1.00
H532   H     0.76016   0.92300   0.67146   0.00000  Uiso   1.00
H533   H     0.98843   0.93695   0.80850   0.00000  Uiso   1.00
H534   H     0.95019   0.70615   0.72041   0.00000  Uiso   1.00
H535   H     0.64151   0.96446   0.57839   0.00000  Uiso   1.00
H536   H     0.12286   0.99388   0.86737   0.00000  Uiso   1.00
H537   H     0.09006   0.90066   0.55841   0.00000  Uiso   1.00
H538   H     0.11703   0.81472   0.55279   0.00000  Uiso   1.00
H539   H     0.97063   0.93722   0.48544   0.00000  Uiso   1.00
H540   H     0.19890   0.95117   0.62248   0.00000  Uiso   1.00
H541   H     0.12101   0.71769   0.56942   0.00000  Uiso   1.00
H542   H     0.81233   0.97600   0.42741   0.00000  Uiso   1.00
H543   H     0.29368   0.00542   0.71639   0.00000  Uiso   1.00
O544   O     0.04973   0.65514   0.64439   0.00000  Uiso   1.00
O545   O     0.64475   0.99404   0.45808   0.00000  Uiso   1.00
O546   O     0.27627   0.03264   0.83721   0.00000  Uiso   1.00
N547   N     0.98671   0.72066   0.68565   0.00000  Uiso   1.00
N548   N     0.69810   0.96216   0.55287   0.00000  Uiso   1.00
N549   N     0.14811   0.98968   0.82304   0.00000  Uiso   1.00
N550   N     0.07863   0.72687   0.60441   0.00000  Uiso   1.00
N551   N     0.79002   0.96837   0.47163   0.00000  Uiso   1.00
N552   N     0.24003   0.99589   0.74180   0.00000  Uiso   1.00
C553   C     0.77162   0.66253   0.82302   0.00000  Uiso   1.00
C554   C     0.80639   0.70777   0.84651   0.00000  Uiso   1.00
C555   C     0.78516   0.74937   0.82059   0.00000  Uiso   1.00
C556   C     0.82389   0.78679   0.84893   0.00000  Uiso   1.00
C557   C     0.86905   0.85766   0.87745   0.00000  Uiso   1.00
C558   C     0.72794   0.64034   0.88101   0.00000  Uiso   1.00
C559   C     0.64076   0.62525   0.88410   0.00000  Uiso   1.00
C560   C     0.61345   0.60590   0.94149   0.00000  Uiso   1.00
C561   C     0.53683   0.57206   0.02357   0.00000  Uiso   1.00
C562   C     0.85351   0.63432   0.80762   0.00000  Uiso   1.00
C563   C     0.87189   0.61415   0.74900   0.00000  Uiso   1.00
C564   C     0.95029   0.58972   0.74460   0.00000  Uiso   1.00
C565   C     0.06864   0.54653   0.71273   0.00000  Uiso   1.00
C566   C     0.87813   0.65500   0.91944   0.00000  Uiso   1.00
C567   C     0.86425   0.70368   0.89888   0.00000  Uiso   1.00
C568   C     0.90301   0.74105   0.92727   0.00000  Uiso   1.00
C569   C     0.88185   0.78270   0.90140   0.00000  Uiso   1.00
C570   C     0.78579   0.63625   0.93339   0.00000  Uiso   1.00
C571   C     0.75861   0.61692   0.99079   0.00000  Uiso   1.00
C572   C     0.67140   0.60181   0.99396   0.00000  Uiso   1.00
C573   C     0.91137   0.63023   0.85999   0.00000  Uiso   1.00
C574   C     0.98975   0.60583   0.85569   0.00000  Uiso   1.00
C575   C     0.00825   0.58563   0.79707   0.00000  Uiso   1.00
H576   H     0.72657   0.66571   0.78225   0.00000  Uiso   1.00
H577   H     0.74038   0.75252   0.78006   0.00000  Uiso   1.00
H578   H     0.59600   0.62841   0.84356   0.00000  Uiso   1.00
H579   H     0.82711   0.61732   0.70848   0.00000  Uiso   1.00
H580   H     0.78118   0.84696   0.80075   0.00000  Uiso   1.00
H581   H     0.47676   0.58526   0.93464   0.00000  Uiso   1.00
H582   H     0.96409   0.56186   0.64980   0.00000  Uiso   1.00
H583   H     0.92318   0.65182   0.96022   0.00000  Uiso   1.00
H584   H     0.94778   0.73787   0.96780   0.00000  Uiso   1.00
H585   H     0.80340   0.61376   0.03131   0.00000  Uiso   1.00
H586   H     0.03450   0.60267   0.89623   0.00000  Uiso   1.00
H587   H     0.94951   0.83508   0.95313   0.00000  Uiso   1.00
H588   H     0.64509   0.57337   0.08702   0.00000  Uiso   1.00
H589   H     0.13242   0.54998   0.80218   0.00000  Uiso   1.00
O590   O     0.87796   0.89788   0.87872   0.00000  Uiso   1.00
O591   O     0.47858   0.55453   0.05438   0.00000  Uiso   1.00
O592   O     0.11794   0.52384   0.68067   0.00000  Uiso   1.00
N593   N     0.81744   0.83235   0.83556   0.00000  Uiso   1.00
N594   N     0.53281   0.58769   0.96075   0.00000  Uiso   1.00
N595   N     0.98841   0.56580   0.69445   0.00000  Uiso   1.00
N596   N     0.90802   0.82596   0.91756   0.00000  Uiso   1.00
N597   N     0.62339   0.58129   0.04274   0.00000  Uiso   1.00
N598   N     0.07899   0.55941   0.77644   0.00000  Uiso   1.00
C599   C     0.06375   0.60973   0.19436   0.00000  Uiso   1.00
C600   C     0.02737   0.65496   0.17211   0.00000  Uiso   1.00
C601   C     0.04799   0.69644   0.19865   0.00000  Uiso   1.00
C602   C     0.00778   0.73387   0.17144   0.00000  Uiso   1.00
C603   C     0.96026   0.80470   0.14477   0.00000  Uiso   1.00
C604   C     0.10692   0.58841   0.13551   0.00000  Uiso   1.00
C605   C     0.19442   0.57393   0.13129   0.00000  Uiso   1.00
C606   C     0.22116   0.55533   0.07326   0.00000  Uiso   1.00
C607   C     0.29712   0.52280   0.98978   0.00000  Uiso   1.00
C608   C     0.98289   0.58083   0.20997   0.00000  Uiso   1.00
C609   C     0.96612   0.55997   0.26835   0.00000  Uiso   1.00
C610   C     0.88845   0.53498   0.27301   0.00000  Uiso   1.00
C611   C     0.77184   0.49069   0.30515   0.00000  Uiso   1.00
C612   C     0.95565   0.60243   0.09882   0.00000  Uiso   1.00
C613   C     0.96866   0.65099   0.12022   0.00000  Uiso   1.00
C614   C     0.92840   0.68836   0.09295   0.00000  Uiso   1.00
C615   C     0.94896   0.72989   0.11945   0.00000  Uiso   1.00
C616   C     0.04821   0.58444   0.08362   0.00000  Uiso   1.00
C617   C     0.07483   0.56585   0.02558   0.00000  Uiso   1.00
C618   C     0.16235   0.55135   0.02127   0.00000  Uiso   1.00
C619   C     0.92418   0.57686   0.15808   0.00000  Uiso   1.00
C620   C     0.84652   0.55189   0.16265   0.00000  Uiso   1.00
C621   C     0.82963   0.53100   0.22102   0.00000  Uiso   1.00
H622   H     0.10946   0.61282   0.23476   0.00000  Uiso   1.00
H623   H     0.09344   0.69950   0.23881   0.00000  Uiso   1.00
H624   H     0.23984   0.57700   0.17146   0.00000  Uiso   1.00
H625   H     0.01157   0.56305   0.30850   0.00000  Uiso   1.00
H626   H     0.04981   0.79385   0.22041   0.00000  Uiso   1.00
H627   H     0.35849   0.53554   0.07839   0.00000  Uiso   1.00
H628   H     0.87714   0.50612   0.36737   0.00000  Uiso   1.00
H629   H     0.90994   0.59934   0.05841   0.00000  Uiso   1.00
H630   H     0.88297   0.68528   0.05279   0.00000  Uiso   1.00
H631   H     0.02937   0.56278   0.98544   0.00000  Uiso   1.00
H632   H     0.80110   0.54883   0.12248   0.00000  Uiso   1.00
H633   H     0.87899   0.78231   0.06942   0.00000  Uiso   1.00
H634   H     0.18767   0.52400   0.92741   0.00000  Uiso   1.00
H635   H     0.70632   0.49458   0.21639   0.00000  Uiso   1.00
O636   O     0.95027   0.84486   0.14439   0.00000  Uiso   1.00
O637   O     0.35525   0.50596   0.95808   0.00000  Uiso   1.00
O638   O     0.72373   0.46736   0.33721   0.00000  Uiso   1.00
N639   N     0.01329   0.77934   0.18565   0.00000  Uiso   1.00
N640   N     0.30190   0.53784   0.05287   0.00000  Uiso   1.00
N641   N     0.85189   0.51032   0.32304   0.00000  Uiso   1.00
N642   N     0.92137   0.77313   0.10441   0.00000  Uiso   1.00
N643   N     0.20998   0.53163   0.97163   0.00000  Uiso   1.00
N644   N     0.75997   0.50411   0.24180   0.00000  Uiso   1.00
C645   C     0.77162   0.16253   0.32302   0.00000  Uiso   1.00
C646   C     0.80639   0.20777   0.34651   0.00000  Uiso   1.00
C647   C     0.78516   0.24937   0.32059   0.00000  Uiso   1.00
C648   C     0.82389   0.28679   0.34893   0.00000  Uiso   1.00
C649   C     0.86905   0.35766   0.37745   0.00000  Uiso   1.00
C650   C     0.72794   0.14034   0.38101   0.00000  Uiso   1.00
C651   C     0.64076   0.12525   0.38410   0.00000  Uiso   1.00
C652   C     0.61345   0.10590   0.44149   0.00000  Uiso   1.00
C653   C     0.53683   0.07206   0.52357   0.00000  Uiso   1.00
C654   C     0.85351   0.13432   0.30762   0.00000  Uiso   1.00
C655   C     0.87189   0.11415   0.24900   0.00000  Uiso   1.00
C656   C     0.95029   0.08972   0.24460   0.00000  Uiso   1.00
C657   C     0.06864   0.04653   0.21273   0.00000  Uiso   1.00
C658   C     0.87813   0.15500   0.41944   0.00000  Uiso   1.00
C659   C     0.86425   0.20368   0.39888   0.00000  Uiso   1.00
C660   C     0.90301   0.24105   0.42727   0.00000  Uiso   1.00
C661   C     0.88185   0.28270   0.40140   0.00000  Uiso   1.00
C662   C     0.78579   0.13625   0.43339   0.00000  Uiso   1.00
C663   C     0.75861   0.11692   0.49079   0.00000  Uiso   1.00
C664   C     0.67140   0.10181   0.49396   0.00000  Uiso   1.00
C665   C     0.91137   0.13023   0.35999   0.00000  Uiso   1.00
C666   C     0.98975   0.10583   0.35569   0.00000  Uiso   1.00
C667   C     0.00825   0.08563   0.29707   0.00000  Uiso   1.00
H668   H     0.72657   0.16571   0.28225   0.00000  Uiso   1.00
H669   H     0.74038   0.25252   0.28006   0.00000  Uiso   1.00
H670   H     0.59600   0.12841   0.34356   0.00000  Uiso   1.00
H671   H     0.82711   0.11732   0.20848   0.00000  Uiso   1.00
H672   H     0.78118   0.34696   0.30075   0.00000  Uiso   1.00
H673   H     0.47676   0.08526   0.43464   0.00000  Uiso   1.00
H674   H     0.96409   0.06186   0.14980   0.00000  Uiso   1.00
H675   H     0.92318   0.15182   0.46022   0.00000  Uiso   1.00
H676   H     0.94778   0.23787   0.46780   0.00000  Uiso   1.00
H677   H     0.80340   0.11376   0.53131   0.00000  Uiso   1.00
H678   H     0.03450   0.10267   0.39623   0.00000  Uiso   1.00
H679   H     0.94951   0.33508   0.45313   0.00000  Uiso   1.00
H680   H     0.64509   0.07337   0.58702   0.00000  Uiso   1.00
H681   H     0.13242   0.04998   0.30218   0.00000  Uiso   1.00
O682   O     0.87796   0.39788   0.37872   0.00000  Uiso   1.00
O683   O     0.47858   0.05453   0.55438   0.00000  Uiso   1.00
O684   O     0.11794   0.02384   0.18067   0.00000  Uiso   1.00
N685   N     0.81744   0.33235   0.33556   0.00000  Uiso   1.00
N686   N     0.53281   0.08769   0.46075   0.00000  Uiso   1.00
N687   N     0.98841   0.06580   0.19445   0.00000  Uiso   1.00
N688   N     0.90802   0.32596   0.41756   0.00000  Uiso   1.00
N689   N     0.62339   0.08129   0.54274   0.00000  Uiso   1.00
N690   N     0.07899   0.05941   0.27644   0.00000  Uiso   1.00
C691   C     0.06375   0.10973   0.69436   0.00000  Uiso   1.00
C692   C     0.02737   0.15496   0.67211   0.00000  Uiso   1.00
C693   C     0.04799   0.19644   0.69865   0.00000  Uiso   1.00
C694   C     0.00778   0.23387   0.67144   0.00000  Uiso   1.00
C695   C     0.96026   0.30470   0.64477   0.00000  Uiso   1.00
C696   C     0.10692   0.08841   0.63551   0.00000  Uiso   1.00
C697   C     0.19442   0.07393   0.63129   0.00000  Uiso   1.00
C698   C     0.22116   0.05533   0.57326   0.00000  Uiso   1.00
C699   C     0.29712   0.02280   0.48978   0.00000  Uiso   1.00
C700   C     0.98289   0.08083   0.70997   0.00000  Uiso   1.00
C701   C     0.96612   0.05997   0.76835   0.00000  Uiso   1.00
C702   C     0.88845   0.03498   0.77301   0.00000  Uiso   1.00
C703   C     0.77184   0.99069   0.80515   0.00000  Uiso   1.00
C704   C     0.95565   0.10243   0.59882   0.00000  Uiso   1.00
C705   C     0.96866   0.15099   0.62022   0.00000  Uiso   1.00
C706   C     0.92840   0.18836   0.59295   0.00000  Uiso   1.00
C707   C     0.94896   0.22989   0.61945   0.00000  Uiso   1.00
C708   C     0.04821   0.08444   0.58362   0.00000  Uiso   1.00
C709   C     0.07483   0.06585   0.52558   0.00000  Uiso   1.00
C710   C     0.16235   0.05135   0.52127   0.00000  Uiso   1.00
C711   C     0.92418   0.07686   0.65808   0.00000  Uiso   1.00
C712   C     0.84652   0.05189   0.66265   0.00000  Uiso   1.00
C713   C     0.82963   0.03100   0.72102   0.00000  Uiso   1.00
H714   H     0.10946   0.11282   0.73476   0.00000  Uiso   1.00
H715   H     0.09344   0.19950   0.73881   0.00000  Uiso   1.00
H716   H     0.23984   0.07700   0.67146   0.00000  Uiso   1.00
H717   H     0.01157   0.06305   0.80850   0.00000  Uiso   1.00
H718   H     0.04981   0.29385   0.72041   0.00000  Uiso   1.00
H719   H     0.35849   0.03554   0.57839   0.00000  Uiso   1.00
H720   H     0.87714   0.00612   0.86737   0.00000  Uiso   1.00
H721   H     0.90994   0.09934   0.55841   0.00000  Uiso   1.00
H722   H     0.88297   0.18528   0.55279   0.00000  Uiso   1.00
H723   H     0.02937   0.06278   0.48544   0.00000  Uiso   1.00
H724   H     0.80110   0.04883   0.62248   0.00000  Uiso   1.00
H725   H     0.87899   0.28231   0.56942   0.00000  Uiso   1.00
H726   H     0.18767   0.02400   0.42741   0.00000  Uiso   1.00
H727   H     0.70632   0.99458   0.71639   0.00000  Uiso   1.00
O728   O     0.95027   0.34486   0.64439   0.00000  Uiso   1.00
O729   O     0.35525   0.00596   0.45808   0.00000  Uiso   1.00
O730   O     0.72373   0.96736   0.83721   0.00000  Uiso   1.00
N731   N     0.01329   0.27934   0.68565   0.00000  Uiso   1.00
N732   N     0.30190   0.03784   0.55287   0.00000  Uiso   1.00
N733   N     0.85189   0.01032   0.82304   0.00000  Uiso   1.00
N734   N     0.92137   0.27313   0.60441   0.00000  Uiso   1.00
N735   N     0.20998   0.03163   0.47163   0.00000  Uiso   1.00
N736   N     0.75997   0.00411   0.74180   0.00000  Uiso   1.00
