data_job_05529
_audit_creation_date              2018-12-19
_audit_creation_method            'Materials Studio'
_symmetry_space_group_name_H-M    'P1'
_symmetry_Int_Tables_number       1
_symmetry_cell_setting            triclinic
loop_
_symmetry_equiv_pos_as_xyz
  x,y,z
_cell_length_a                    45.3023
_cell_length_b                    21.6480
_cell_length_c                    13.5242
_cell_angle_alpha                 90.0000
_cell_angle_beta                  90.0000
_cell_angle_gamma                 90.0000
loop_
_atom_site_label
_atom_site_type_symbol
_atom_site_fract_x
_atom_site_fract_y
_atom_site_fract_z
_atom_site_U_iso_or_equiv
_atom_site_adp_type
_atom_site_occupancy
C1     C     0.42931   0.26830   0.51926   0.00000  Uiso   1.00
C2     C     0.39641   0.25505   0.50853   0.00000  Uiso   1.00
C3     C     0.38262   0.23260   0.42424   0.00000  Uiso   1.00
C4     C     0.35232   0.22358   0.42932   0.00000  Uiso   1.00
C5     C     0.30364   0.20105   0.39952   0.00000  Uiso   1.00
C6     C     0.43171   0.33580   0.55046   0.00000  Uiso   1.00
C7     C     0.44761   0.38125   0.50143   0.00000  Uiso   1.00
C8     C     0.44702   0.44020   0.54182   0.00000  Uiso   1.00
C9     C     0.45317   0.54305   0.57716   0.00000  Uiso   1.00
C10    C     0.43974   0.23043   0.60767   0.00000  Uiso   1.00
C11    C     0.46240   0.18728   0.60675   0.00000  Uiso   1.00
C12    C     0.46858   0.15752   0.69530   0.00000  Uiso   1.00
C13    C     0.48721   0.09675   0.81946   0.00000  Uiso   1.00
C14    C     0.40002   0.29219   0.67816   0.00000  Uiso   1.00
C15    C     0.38050   0.26803   0.59484   0.00000  Uiso   1.00
C16    C     0.35021   0.25903   0.60005   0.00000  Uiso   1.00
C17    C     0.33637   0.23657   0.51578   0.00000  Uiso   1.00
C18    C     0.41580   0.34878   0.63677   0.00000  Uiso   1.00
C19    C     0.41519   0.40768   0.67724   0.00000  Uiso   1.00
C20    C     0.43108   0.45320   0.62828   0.00000  Uiso   1.00
C21    C     0.42383   0.24340   0.69398   0.00000  Uiso   1.00
C22    C     0.42998   0.21371   0.78256   0.00000  Uiso   1.00
C23    C     0.45264   0.17052   0.78177   0.00000  Uiso   1.00
H24    H     0.44170   0.25820   0.45206   0.00000  Uiso   1.00
H25    H     0.39494   0.22257   0.35746   0.00000  Uiso   1.00
H26    H     0.45992   0.37119   0.43465   0.00000  Uiso   1.00
H27    H     0.47471   0.17725   0.53994   0.00000  Uiso   1.00
H28    H     0.33608   0.18881   0.29063   0.00000  Uiso   1.00
H29    H     0.47310   0.50218   0.45340   0.00000  Uiso   1.00
H30    H     0.50429   0.09322   0.67544   0.00000  Uiso   1.00
H31    H     0.38763   0.30229   0.74536   0.00000  Uiso   1.00
H32    H     0.33790   0.26908   0.66685   0.00000  Uiso   1.00
H33    H     0.40288   0.41770   0.74404   0.00000  Uiso   1.00
H34    H     0.41766   0.22376   0.84933   0.00000  Uiso   1.00
H35    H     0.28978   0.22656   0.54174   0.00000  Uiso   1.00
H36    H     0.42680   0.53994   0.70451   0.00000  Uiso   1.00
H37    H     0.45798   0.13097   0.92655   0.00000  Uiso   1.00
O38    O     0.28119   0.18506   0.35924   0.00000  Uiso   1.00
O39    O     0.46096   0.59619   0.57279   0.00000  Uiso   1.00
O40    O     0.50187   0.05963   0.86410   0.00000  Uiso   1.00
N41    N     0.33201   0.20224   0.36051   0.00000  Uiso   1.00
N42    N     0.46011   0.49523   0.51268   0.00000  Uiso   1.00
N43    N     0.48927   0.11289   0.72027   0.00000  Uiso   1.00
N44    N     0.30709   0.22255   0.49563   0.00000  Uiso   1.00
N45    N     0.43520   0.51554   0.64780   0.00000  Uiso   1.00
N46    N     0.46436   0.13320   0.85540   0.00000  Uiso   1.00
C47    C     0.42931   0.76830   0.01926   0.00000  Uiso   1.00
C48    C     0.39641   0.75505   0.00853   0.00000  Uiso   1.00
C49    C     0.38262   0.73260   0.92424   0.00000  Uiso   1.00
C50    C     0.35232   0.72358   0.92932   0.00000  Uiso   1.00
C51    C     0.30364   0.70105   0.89952   0.00000  Uiso   1.00
C52    C     0.43171   0.83580   0.05046   0.00000  Uiso   1.00
C53    C     0.44761   0.88125   0.00143   0.00000  Uiso   1.00
C54    C     0.44702   0.94020   0.04182   0.00000  Uiso   1.00
C55    C     0.45317   0.04305   0.07716   0.00000  Uiso   1.00
C56    C     0.43974   0.73043   0.10767   0.00000  Uiso   1.00
C57    C     0.46240   0.68728   0.10675   0.00000  Uiso   1.00
C58    C     0.46858   0.65752   0.19530   0.00000  Uiso   1.00
C59    C     0.48721   0.59675   0.31946   0.00000  Uiso   1.00
C60    C     0.40002   0.79219   0.17816   0.00000  Uiso   1.00
C61    C     0.38050   0.76803   0.09484   0.00000  Uiso   1.00
C62    C     0.35021   0.75903   0.10005   0.00000  Uiso   1.00
C63    C     0.33637   0.73657   0.01578   0.00000  Uiso   1.00
C64    C     0.41580   0.84878   0.13677   0.00000  Uiso   1.00
C65    C     0.41519   0.90768   0.17724   0.00000  Uiso   1.00
C66    C     0.43108   0.95320   0.12828   0.00000  Uiso   1.00
C67    C     0.42383   0.74340   0.19398   0.00000  Uiso   1.00
C68    C     0.42998   0.71371   0.28256   0.00000  Uiso   1.00
C69    C     0.45264   0.67052   0.28177   0.00000  Uiso   1.00
H70    H     0.44170   0.75820   0.95206   0.00000  Uiso   1.00
H71    H     0.39494   0.72257   0.85746   0.00000  Uiso   1.00
H72    H     0.45992   0.87119   0.93465   0.00000  Uiso   1.00
H73    H     0.47471   0.67725   0.03994   0.00000  Uiso   1.00
H74    H     0.33608   0.68881   0.79063   0.00000  Uiso   1.00
H75    H     0.47310   0.00218   0.95340   0.00000  Uiso   1.00
H76    H     0.50429   0.59322   0.17544   0.00000  Uiso   1.00
H77    H     0.38763   0.80229   0.24536   0.00000  Uiso   1.00
H78    H     0.33790   0.76908   0.16685   0.00000  Uiso   1.00
H79    H     0.40288   0.91770   0.24404   0.00000  Uiso   1.00
H80    H     0.41766   0.72376   0.34933   0.00000  Uiso   1.00
H81    H     0.28978   0.72656   0.04174   0.00000  Uiso   1.00
H82    H     0.42680   0.03994   0.20451   0.00000  Uiso   1.00
H83    H     0.45798   0.63097   0.42655   0.00000  Uiso   1.00
O84    O     0.28119   0.68506   0.85924   0.00000  Uiso   1.00
O85    O     0.46096   0.09619   0.07279   0.00000  Uiso   1.00
O86    O     0.50187   0.55963   0.36410   0.00000  Uiso   1.00
N87    N     0.33201   0.70224   0.86051   0.00000  Uiso   1.00
N88    N     0.46011   0.99523   0.01268   0.00000  Uiso   1.00
N89    N     0.48927   0.61289   0.22027   0.00000  Uiso   1.00
N90    N     0.30709   0.72255   0.99563   0.00000  Uiso   1.00
N91    N     0.43520   0.01554   0.14780   0.00000  Uiso   1.00
N92    N     0.46436   0.63320   0.35540   0.00000  Uiso   1.00
C93    C     0.92931   0.26830   0.01926   0.00000  Uiso   1.00
C94    C     0.89641   0.25505   0.00853   0.00000  Uiso   1.00
C95    C     0.88262   0.23260   0.92424   0.00000  Uiso   1.00
C96    C     0.85232   0.22358   0.92932   0.00000  Uiso   1.00
C97    C     0.80364   0.20105   0.89952   0.00000  Uiso   1.00
C98    C     0.93171   0.33580   0.05046   0.00000  Uiso   1.00
C99    C     0.94761   0.38125   0.00143   0.00000  Uiso   1.00
C100   C     0.94702   0.44020   0.04182   0.00000  Uiso   1.00
C101   C     0.95317   0.54305   0.07716   0.00000  Uiso   1.00
C102   C     0.93974   0.23043   0.10767   0.00000  Uiso   1.00
C103   C     0.96240   0.18728   0.10675   0.00000  Uiso   1.00
C104   C     0.96858   0.15752   0.19530   0.00000  Uiso   1.00
C105   C     0.98721   0.09675   0.31946   0.00000  Uiso   1.00
C106   C     0.90002   0.29219   0.17816   0.00000  Uiso   1.00
C107   C     0.88050   0.26803   0.09484   0.00000  Uiso   1.00
C108   C     0.85021   0.25903   0.10005   0.00000  Uiso   1.00
C109   C     0.83637   0.23657   0.01578   0.00000  Uiso   1.00
C110   C     0.91580   0.34878   0.13677   0.00000  Uiso   1.00
C111   C     0.91519   0.40768   0.17724   0.00000  Uiso   1.00
C112   C     0.93108   0.45320   0.12828   0.00000  Uiso   1.00
C113   C     0.92383   0.24340   0.19398   0.00000  Uiso   1.00
C114   C     0.92998   0.21371   0.28256   0.00000  Uiso   1.00
C115   C     0.95264   0.17052   0.28177   0.00000  Uiso   1.00
H116   H     0.94170   0.25820   0.95206   0.00000  Uiso   1.00
H117   H     0.89494   0.22257   0.85746   0.00000  Uiso   1.00
H118   H     0.95992   0.37119   0.93465   0.00000  Uiso   1.00
H119   H     0.97471   0.17725   0.03994   0.00000  Uiso   1.00
H120   H     0.83608   0.18881   0.79063   0.00000  Uiso   1.00
H121   H     0.97310   0.50218   0.95340   0.00000  Uiso   1.00
H122   H     0.00429   0.09322   0.17544   0.00000  Uiso   1.00
H123   H     0.88763   0.30229   0.24536   0.00000  Uiso   1.00
H124   H     0.83790   0.26908   0.16685   0.00000  Uiso   1.00
H125   H     0.90288   0.41770   0.24404   0.00000  Uiso   1.00
H126   H     0.91766   0.22376   0.34933   0.00000  Uiso   1.00
H127   H     0.78978   0.22656   0.04174   0.00000  Uiso   1.00
H128   H     0.92680   0.53994   0.20451   0.00000  Uiso   1.00
H129   H     0.95798   0.13097   0.42655   0.00000  Uiso   1.00
O130   O     0.78119   0.18506   0.85924   0.00000  Uiso   1.00
O131   O     0.96096   0.59619   0.07279   0.00000  Uiso   1.00
O132   O     0.00187   0.05963   0.36410   0.00000  Uiso   1.00
N133   N     0.83201   0.20224   0.86051   0.00000  Uiso   1.00
N134   N     0.96011   0.49523   0.01268   0.00000  Uiso   1.00
N135   N     0.98927   0.11289   0.22027   0.00000  Uiso   1.00
N136   N     0.80709   0.22255   0.99563   0.00000  Uiso   1.00
N137   N     0.93520   0.51554   0.14780   0.00000  Uiso   1.00
N138   N     0.96436   0.13320   0.35540   0.00000  Uiso   1.00
C139   C     0.92931   0.76830   0.51926   0.00000  Uiso   1.00
C140   C     0.89641   0.75505   0.50853   0.00000  Uiso   1.00
C141   C     0.88262   0.73260   0.42424   0.00000  Uiso   1.00
C142   C     0.85232   0.72358   0.42932   0.00000  Uiso   1.00
C143   C     0.80364   0.70105   0.39952   0.00000  Uiso   1.00
C144   C     0.93171   0.83580   0.55046   0.00000  Uiso   1.00
C145   C     0.94761   0.88125   0.50143   0.00000  Uiso   1.00
C146   C     0.94702   0.94020   0.54182   0.00000  Uiso   1.00
C147   C     0.95317   0.04305   0.57716   0.00000  Uiso   1.00
C148   C     0.93974   0.73043   0.60767   0.00000  Uiso   1.00
C149   C     0.96240   0.68728   0.60675   0.00000  Uiso   1.00
C150   C     0.96858   0.65752   0.69530   0.00000  Uiso   1.00
C151   C     0.98721   0.59675   0.81946   0.00000  Uiso   1.00
C152   C     0.90002   0.79219   0.67816   0.00000  Uiso   1.00
C153   C     0.88050   0.76803   0.59484   0.00000  Uiso   1.00
C154   C     0.85021   0.75903   0.60005   0.00000  Uiso   1.00
C155   C     0.83637   0.73657   0.51578   0.00000  Uiso   1.00
C156   C     0.91580   0.84878   0.63677   0.00000  Uiso   1.00
C157   C     0.91519   0.90768   0.67724   0.00000  Uiso   1.00
C158   C     0.93108   0.95320   0.62828   0.00000  Uiso   1.00
C159   C     0.92383   0.74340   0.69398   0.00000  Uiso   1.00
C160   C     0.92998   0.71371   0.78256   0.00000  Uiso   1.00
C161   C     0.95264   0.67052   0.78177   0.00000  Uiso   1.00
H162   H     0.94170   0.75820   0.45206   0.00000  Uiso   1.00
H163   H     0.89494   0.72257   0.35746   0.00000  Uiso   1.00
H164   H     0.95992   0.87119   0.43465   0.00000  Uiso   1.00
H165   H     0.97471   0.67725   0.53994   0.00000  Uiso   1.00
H166   H     0.83608   0.68881   0.29063   0.00000  Uiso   1.00
H167   H     0.97310   0.00218   0.45340   0.00000  Uiso   1.00
H168   H     0.00429   0.59322   0.67544   0.00000  Uiso   1.00
H169   H     0.88763   0.80229   0.74536   0.00000  Uiso   1.00
H170   H     0.83790   0.76908   0.66685   0.00000  Uiso   1.00
H171   H     0.90288   0.91770   0.74404   0.00000  Uiso   1.00
H172   H     0.91766   0.72376   0.84933   0.00000  Uiso   1.00
H173   H     0.78978   0.72656   0.54174   0.00000  Uiso   1.00
H174   H     0.92680   0.03994   0.70451   0.00000  Uiso   1.00
H175   H     0.95798   0.63097   0.92655   0.00000  Uiso   1.00
O176   O     0.78119   0.68506   0.35924   0.00000  Uiso   1.00
O177   O     0.96096   0.09619   0.57279   0.00000  Uiso   1.00
O178   O     0.00187   0.55963   0.86410   0.00000  Uiso   1.00
N179   N     0.83201   0.70224   0.36051   0.00000  Uiso   1.00
N180   N     0.96011   0.99523   0.51268   0.00000  Uiso   1.00
N181   N     0.98927   0.61289   0.72027   0.00000  Uiso   1.00
N182   N     0.80709   0.72255   0.49563   0.00000  Uiso   1.00
N183   N     0.93520   0.01554   0.64780   0.00000  Uiso   1.00
N184   N     0.96436   0.63320   0.85540   0.00000  Uiso   1.00
C185   C     0.57069   0.73170   0.51926   0.00000  Uiso   1.00
C186   C     0.60359   0.74495   0.50853   0.00000  Uiso   1.00
C187   C     0.61738   0.76740   0.42424   0.00000  Uiso   1.00
C188   C     0.64768   0.77642   0.42932   0.00000  Uiso   1.00
C189   C     0.69636   0.79895   0.39952   0.00000  Uiso   1.00
C190   C     0.56829   0.66420   0.55046   0.00000  Uiso   1.00
C191   C     0.55239   0.61875   0.50143   0.00000  Uiso   1.00
C192   C     0.55298   0.55980   0.54182   0.00000  Uiso   1.00
C193   C     0.54683   0.45695   0.57716   0.00000  Uiso   1.00
C194   C     0.56026   0.76957   0.60767   0.00000  Uiso   1.00
C195   C     0.53760   0.81272   0.60675   0.00000  Uiso   1.00
C196   C     0.53142   0.84248   0.69530   0.00000  Uiso   1.00
C197   C     0.51279   0.90325   0.81946   0.00000  Uiso   1.00
C198   C     0.59998   0.70781   0.67816   0.00000  Uiso   1.00
C199   C     0.61950   0.73197   0.59484   0.00000  Uiso   1.00
C200   C     0.64979   0.74097   0.60005   0.00000  Uiso   1.00
C201   C     0.66363   0.76343   0.51578   0.00000  Uiso   1.00
C202   C     0.58420   0.65122   0.63677   0.00000  Uiso   1.00
C203   C     0.58481   0.59232   0.67724   0.00000  Uiso   1.00
C204   C     0.56892   0.54680   0.62828   0.00000  Uiso   1.00
C205   C     0.57617   0.75660   0.69398   0.00000  Uiso   1.00
C206   C     0.57002   0.78629   0.78256   0.00000  Uiso   1.00
C207   C     0.54736   0.82948   0.78177   0.00000  Uiso   1.00
H208   H     0.55830   0.74180   0.45206   0.00000  Uiso   1.00
H209   H     0.60506   0.77743   0.35746   0.00000  Uiso   1.00
H210   H     0.54008   0.62881   0.43465   0.00000  Uiso   1.00
H211   H     0.52529   0.82275   0.53994   0.00000  Uiso   1.00
H212   H     0.66392   0.81119   0.29063   0.00000  Uiso   1.00
H213   H     0.52690   0.49782   0.45340   0.00000  Uiso   1.00
H214   H     0.49571   0.90678   0.67544   0.00000  Uiso   1.00
H215   H     0.61237   0.69771   0.74536   0.00000  Uiso   1.00
H216   H     0.66210   0.73092   0.66685   0.00000  Uiso   1.00
H217   H     0.59712   0.58230   0.74404   0.00000  Uiso   1.00
H218   H     0.58234   0.77624   0.84933   0.00000  Uiso   1.00
H219   H     0.71022   0.77344   0.54174   0.00000  Uiso   1.00
H220   H     0.57320   0.46006   0.70451   0.00000  Uiso   1.00
H221   H     0.54202   0.86903   0.92655   0.00000  Uiso   1.00
O222   O     0.71881   0.81494   0.35924   0.00000  Uiso   1.00
O223   O     0.53904   0.40381   0.57279   0.00000  Uiso   1.00
O224   O     0.49813   0.94037   0.86410   0.00000  Uiso   1.00
N225   N     0.66799   0.79776   0.36051   0.00000  Uiso   1.00
N226   N     0.53989   0.50477   0.51268   0.00000  Uiso   1.00
N227   N     0.51073   0.88711   0.72027   0.00000  Uiso   1.00
N228   N     0.69291   0.77745   0.49563   0.00000  Uiso   1.00
N229   N     0.56480   0.48446   0.64780   0.00000  Uiso   1.00
N230   N     0.53564   0.86680   0.85540   0.00000  Uiso   1.00
C231   C     0.57069   0.23170   0.01926   0.00000  Uiso   1.00
C232   C     0.60359   0.24495   0.00853   0.00000  Uiso   1.00
C233   C     0.61738   0.26740   0.92424   0.00000  Uiso   1.00
C234   C     0.64768   0.27642   0.92932   0.00000  Uiso   1.00
C235   C     0.69636   0.29895   0.89952   0.00000  Uiso   1.00
C236   C     0.56829   0.16420   0.05046   0.00000  Uiso   1.00
C237   C     0.55239   0.11875   0.00143   0.00000  Uiso   1.00
C238   C     0.55298   0.05980   0.04182   0.00000  Uiso   1.00
C239   C     0.54683   0.95695   0.07716   0.00000  Uiso   1.00
C240   C     0.56026   0.26957   0.10767   0.00000  Uiso   1.00
C241   C     0.53760   0.31272   0.10675   0.00000  Uiso   1.00
C242   C     0.53142   0.34248   0.19530   0.00000  Uiso   1.00
C243   C     0.51279   0.40325   0.31946   0.00000  Uiso   1.00
C244   C     0.59998   0.20781   0.17816   0.00000  Uiso   1.00
C245   C     0.61950   0.23197   0.09484   0.00000  Uiso   1.00
C246   C     0.64979   0.24097   0.10005   0.00000  Uiso   1.00
C247   C     0.66363   0.26343   0.01578   0.00000  Uiso   1.00
C248   C     0.58420   0.15122   0.13677   0.00000  Uiso   1.00
C249   C     0.58481   0.09232   0.17724   0.00000  Uiso   1.00
C250   C     0.56892   0.04680   0.12828   0.00000  Uiso   1.00
C251   C     0.57617   0.25660   0.19398   0.00000  Uiso   1.00
C252   C     0.57002   0.28629   0.28256   0.00000  Uiso   1.00
C253   C     0.54736   0.32948   0.28177   0.00000  Uiso   1.00
H254   H     0.55830   0.24180   0.95206   0.00000  Uiso   1.00
H255   H     0.60506   0.27743   0.85746   0.00000  Uiso   1.00
H256   H     0.54008   0.12881   0.93465   0.00000  Uiso   1.00
H257   H     0.52529   0.32275   0.03994   0.00000  Uiso   1.00
H258   H     0.66392   0.31119   0.79063   0.00000  Uiso   1.00
H259   H     0.52690   0.99782   0.95340   0.00000  Uiso   1.00
H260   H     0.49571   0.40678   0.17544   0.00000  Uiso   1.00
H261   H     0.61237   0.19771   0.24536   0.00000  Uiso   1.00
H262   H     0.66210   0.23092   0.16685   0.00000  Uiso   1.00
H263   H     0.59712   0.08230   0.24404   0.00000  Uiso   1.00
H264   H     0.58234   0.27624   0.34933   0.00000  Uiso   1.00
H265   H     0.71022   0.27344   0.04174   0.00000  Uiso   1.00
H266   H     0.57320   0.96006   0.20451   0.00000  Uiso   1.00
H267   H     0.54202   0.36903   0.42655   0.00000  Uiso   1.00
O268   O     0.71881   0.31494   0.85924   0.00000  Uiso   1.00
O269   O     0.53904   0.90381   0.07279   0.00000  Uiso   1.00
O270   O     0.49813   0.44037   0.36410   0.00000  Uiso   1.00
N271   N     0.66799   0.29776   0.86051   0.00000  Uiso   1.00
N272   N     0.53989   0.00477   0.01268   0.00000  Uiso   1.00
N273   N     0.51073   0.38711   0.22027   0.00000  Uiso   1.00
N274   N     0.69291   0.27745   0.99563   0.00000  Uiso   1.00
N275   N     0.56480   0.98446   0.14780   0.00000  Uiso   1.00
N276   N     0.53564   0.36680   0.35540   0.00000  Uiso   1.00
C277   C     0.07069   0.73170   0.01926   0.00000  Uiso   1.00
C278   C     0.10359   0.74495   0.00853   0.00000  Uiso   1.00
C279   C     0.11738   0.76740   0.92424   0.00000  Uiso   1.00
C280   C     0.14768   0.77642   0.92932   0.00000  Uiso   1.00
C281   C     0.19636   0.79895   0.89952   0.00000  Uiso   1.00
C282   C     0.06829   0.66420   0.05046   0.00000  Uiso   1.00
C283   C     0.05239   0.61875   0.00143   0.00000  Uiso   1.00
C284   C     0.05298   0.55980   0.04182   0.00000  Uiso   1.00
C285   C     0.04683   0.45695   0.07716   0.00000  Uiso   1.00
C286   C     0.06026   0.76957   0.10767   0.00000  Uiso   1.00
C287   C     0.03760   0.81272   0.10675   0.00000  Uiso   1.00
C288   C     0.03142   0.84248   0.19530   0.00000  Uiso   1.00
C289   C     0.01279   0.90325   0.31946   0.00000  Uiso   1.00
C290   C     0.09998   0.70781   0.17816   0.00000  Uiso   1.00
C291   C     0.11950   0.73197   0.09484   0.00000  Uiso   1.00
C292   C     0.14979   0.74097   0.10005   0.00000  Uiso   1.00
C293   C     0.16363   0.76343   0.01578   0.00000  Uiso   1.00
C294   C     0.08420   0.65122   0.13677   0.00000  Uiso   1.00
C295   C     0.08481   0.59232   0.17724   0.00000  Uiso   1.00
C296   C     0.06892   0.54680   0.12828   0.00000  Uiso   1.00
C297   C     0.07617   0.75660   0.19398   0.00000  Uiso   1.00
C298   C     0.07002   0.78629   0.28256   0.00000  Uiso   1.00
C299   C     0.04736   0.82948   0.28177   0.00000  Uiso   1.00
H300   H     0.05830   0.74180   0.95206   0.00000  Uiso   1.00
H301   H     0.10506   0.77743   0.85746   0.00000  Uiso   1.00
H302   H     0.04008   0.62881   0.93465   0.00000  Uiso   1.00
H303   H     0.02529   0.82275   0.03994   0.00000  Uiso   1.00
H304   H     0.16392   0.81119   0.79063   0.00000  Uiso   1.00
H305   H     0.02690   0.49782   0.95340   0.00000  Uiso   1.00
H306   H     0.99571   0.90678   0.17544   0.00000  Uiso   1.00
H307   H     0.11237   0.69771   0.24536   0.00000  Uiso   1.00
H308   H     0.16210   0.73092   0.16685   0.00000  Uiso   1.00
H309   H     0.09712   0.58230   0.24404   0.00000  Uiso   1.00
H310   H     0.08234   0.77624   0.34933   0.00000  Uiso   1.00
H311   H     0.21022   0.77344   0.04174   0.00000  Uiso   1.00
H312   H     0.07320   0.46006   0.20451   0.00000  Uiso   1.00
H313   H     0.04202   0.86903   0.42655   0.00000  Uiso   1.00
O314   O     0.21881   0.81494   0.85924   0.00000  Uiso   1.00
O315   O     0.03904   0.40381   0.07279   0.00000  Uiso   1.00
O316   O     0.99813   0.94037   0.36410   0.00000  Uiso   1.00
N317   N     0.16799   0.79776   0.86051   0.00000  Uiso   1.00
N318   N     0.03989   0.50477   0.01268   0.00000  Uiso   1.00
N319   N     0.01073   0.88711   0.22027   0.00000  Uiso   1.00
N320   N     0.19291   0.77745   0.99563   0.00000  Uiso   1.00
N321   N     0.06480   0.48446   0.14780   0.00000  Uiso   1.00
N322   N     0.03564   0.86680   0.35540   0.00000  Uiso   1.00
C323   C     0.07069   0.23170   0.51926   0.00000  Uiso   1.00
C324   C     0.10359   0.24495   0.50853   0.00000  Uiso   1.00
C325   C     0.11738   0.26740   0.42424   0.00000  Uiso   1.00
C326   C     0.14768   0.27642   0.42932   0.00000  Uiso   1.00
C327   C     0.19636   0.29895   0.39952   0.00000  Uiso   1.00
C328   C     0.06829   0.16420   0.55046   0.00000  Uiso   1.00
C329   C     0.05239   0.11875   0.50143   0.00000  Uiso   1.00
C330   C     0.05298   0.05980   0.54182   0.00000  Uiso   1.00
C331   C     0.04683   0.95695   0.57716   0.00000  Uiso   1.00
C332   C     0.06026   0.26957   0.60767   0.00000  Uiso   1.00
C333   C     0.03760   0.31272   0.60675   0.00000  Uiso   1.00
C334   C     0.03142   0.34248   0.69530   0.00000  Uiso   1.00
C335   C     0.01279   0.40325   0.81946   0.00000  Uiso   1.00
C336   C     0.09998   0.20781   0.67816   0.00000  Uiso   1.00
C337   C     0.11950   0.23197   0.59484   0.00000  Uiso   1.00
C338   C     0.14979   0.24097   0.60005   0.00000  Uiso   1.00
C339   C     0.16363   0.26343   0.51578   0.00000  Uiso   1.00
C340   C     0.08420   0.15122   0.63677   0.00000  Uiso   1.00
C341   C     0.08481   0.09232   0.67724   0.00000  Uiso   1.00
C342   C     0.06892   0.04680   0.62828   0.00000  Uiso   1.00
C343   C     0.07617   0.25660   0.69398   0.00000  Uiso   1.00
C344   C     0.07002   0.28629   0.78256   0.00000  Uiso   1.00
C345   C     0.04736   0.32948   0.78177   0.00000  Uiso   1.00
H346   H     0.05830   0.24180   0.45206   0.00000  Uiso   1.00
H347   H     0.10506   0.27743   0.35746   0.00000  Uiso   1.00
H348   H     0.04008   0.12881   0.43465   0.00000  Uiso   1.00
H349   H     0.02529   0.32275   0.53994   0.00000  Uiso   1.00
H350   H     0.16392   0.31119   0.29063   0.00000  Uiso   1.00
H351   H     0.02690   0.99782   0.45340   0.00000  Uiso   1.00
H352   H     0.99571   0.40678   0.67544   0.00000  Uiso   1.00
H353   H     0.11237   0.19771   0.74536   0.00000  Uiso   1.00
H354   H     0.16210   0.23092   0.66685   0.00000  Uiso   1.00
H355   H     0.09712   0.08230   0.74404   0.00000  Uiso   1.00
H356   H     0.08234   0.27624   0.84933   0.00000  Uiso   1.00
H357   H     0.21022   0.27344   0.54174   0.00000  Uiso   1.00
H358   H     0.07320   0.96006   0.70451   0.00000  Uiso   1.00
H359   H     0.04202   0.36903   0.92655   0.00000  Uiso   1.00
O360   O     0.21881   0.31494   0.35924   0.00000  Uiso   1.00
O361   O     0.03904   0.90381   0.57279   0.00000  Uiso   1.00
O362   O     0.99813   0.44037   0.86410   0.00000  Uiso   1.00
N363   N     0.16799   0.29776   0.36051   0.00000  Uiso   1.00
N364   N     0.03989   0.00477   0.51268   0.00000  Uiso   1.00
N365   N     0.01073   0.38711   0.72027   0.00000  Uiso   1.00
N366   N     0.19291   0.27745   0.49563   0.00000  Uiso   1.00
N367   N     0.06480   0.98446   0.64780   0.00000  Uiso   1.00
N368   N     0.03564   0.36680   0.85540   0.00000  Uiso   1.00
C369   C     0.67931   0.98170   0.76926   0.00000  Uiso   1.00
C370   C     0.64641   0.99495   0.75853   0.00000  Uiso   1.00
C371   C     0.63262   0.01740   0.67424   0.00000  Uiso   1.00
C372   C     0.60232   0.02642   0.67932   0.00000  Uiso   1.00
C373   C     0.55364   0.04895   0.64952   0.00000  Uiso   1.00
C374   C     0.68171   0.91420   0.80046   0.00000  Uiso   1.00
C375   C     0.69761   0.86875   0.75143   0.00000  Uiso   1.00
C376   C     0.69702   0.80980   0.79182   0.00000  Uiso   1.00
C377   C     0.70317   0.70695   0.82716   0.00000  Uiso   1.00
C378   C     0.68974   0.01957   0.85767   0.00000  Uiso   1.00
C379   C     0.71240   0.06272   0.85675   0.00000  Uiso   1.00
C380   C     0.71858   0.09248   0.94530   0.00000  Uiso   1.00
C381   C     0.73721   0.15325   0.06946   0.00000  Uiso   1.00
C382   C     0.65002   0.95781   0.92816   0.00000  Uiso   1.00
C383   C     0.63050   0.98197   0.84484   0.00000  Uiso   1.00
C384   C     0.60021   0.99097   0.85005   0.00000  Uiso   1.00
C385   C     0.58637   0.01343   0.76578   0.00000  Uiso   1.00
C386   C     0.66580   0.90122   0.88677   0.00000  Uiso   1.00
C387   C     0.66519   0.84232   0.92724   0.00000  Uiso   1.00
C388   C     0.68108   0.79680   0.87828   0.00000  Uiso   1.00
C389   C     0.67383   0.00660   0.94398   0.00000  Uiso   1.00
C390   C     0.67998   0.03629   0.03256   0.00000  Uiso   1.00
C391   C     0.70264   0.07948   0.03177   0.00000  Uiso   1.00
H392   H     0.69170   0.99180   0.70206   0.00000  Uiso   1.00
H393   H     0.64494   0.02743   0.60746   0.00000  Uiso   1.00
H394   H     0.70992   0.87881   0.68465   0.00000  Uiso   1.00
H395   H     0.72471   0.07275   0.78994   0.00000  Uiso   1.00
H396   H     0.58608   0.06119   0.54063   0.00000  Uiso   1.00
H397   H     0.72310   0.74782   0.70340   0.00000  Uiso   1.00
H398   H     0.75429   0.15678   0.92544   0.00000  Uiso   1.00
H399   H     0.63763   0.94771   0.99536   0.00000  Uiso   1.00
H400   H     0.58790   0.98092   0.91685   0.00000  Uiso   1.00
H401   H     0.65288   0.83230   0.99404   0.00000  Uiso   1.00
H402   H     0.66766   0.02624   0.09933   0.00000  Uiso   1.00
H403   H     0.53978   0.02344   0.79174   0.00000  Uiso   1.00
H404   H     0.67680   0.71006   0.95451   0.00000  Uiso   1.00
H405   H     0.70798   0.11903   0.17655   0.00000  Uiso   1.00
O406   O     0.53119   0.06494   0.60924   0.00000  Uiso   1.00
O407   O     0.71096   0.65381   0.82279   0.00000  Uiso   1.00
O408   O     0.75187   0.19037   0.11410   0.00000  Uiso   1.00
N409   N     0.58201   0.04776   0.61051   0.00000  Uiso   1.00
N410   N     0.71011   0.75477   0.76268   0.00000  Uiso   1.00
N411   N     0.73927   0.13711   0.97027   0.00000  Uiso   1.00
N412   N     0.55709   0.02745   0.74563   0.00000  Uiso   1.00
N413   N     0.68520   0.73446   0.89780   0.00000  Uiso   1.00
N414   N     0.71436   0.11680   0.10540   0.00000  Uiso   1.00
C415   C     0.67931   0.48170   0.26926   0.00000  Uiso   1.00
C416   C     0.64641   0.49495   0.25853   0.00000  Uiso   1.00
C417   C     0.63262   0.51740   0.17424   0.00000  Uiso   1.00
C418   C     0.60232   0.52642   0.17932   0.00000  Uiso   1.00
C419   C     0.55364   0.54895   0.14952   0.00000  Uiso   1.00
C420   C     0.68171   0.41420   0.30046   0.00000  Uiso   1.00
C421   C     0.69761   0.36875   0.25143   0.00000  Uiso   1.00
C422   C     0.69702   0.30980   0.29182   0.00000  Uiso   1.00
C423   C     0.70317   0.20695   0.32716   0.00000  Uiso   1.00
C424   C     0.68974   0.51957   0.35767   0.00000  Uiso   1.00
C425   C     0.71240   0.56272   0.35675   0.00000  Uiso   1.00
C426   C     0.71858   0.59248   0.44530   0.00000  Uiso   1.00
C427   C     0.73721   0.65325   0.56946   0.00000  Uiso   1.00
C428   C     0.65002   0.45781   0.42816   0.00000  Uiso   1.00
C429   C     0.63050   0.48197   0.34484   0.00000  Uiso   1.00
C430   C     0.60021   0.49097   0.35005   0.00000  Uiso   1.00
C431   C     0.58637   0.51343   0.26578   0.00000  Uiso   1.00
C432   C     0.66580   0.40122   0.38677   0.00000  Uiso   1.00
C433   C     0.66519   0.34232   0.42724   0.00000  Uiso   1.00
C434   C     0.68108   0.29680   0.37828   0.00000  Uiso   1.00
C435   C     0.67383   0.50660   0.44398   0.00000  Uiso   1.00
C436   C     0.67998   0.53629   0.53256   0.00000  Uiso   1.00
C437   C     0.70264   0.57948   0.53177   0.00000  Uiso   1.00
H438   H     0.69170   0.49180   0.20206   0.00000  Uiso   1.00
H439   H     0.64494   0.52743   0.10746   0.00000  Uiso   1.00
H440   H     0.70992   0.37881   0.18465   0.00000  Uiso   1.00
H441   H     0.72471   0.57275   0.28994   0.00000  Uiso   1.00
H442   H     0.58608   0.56119   0.04063   0.00000  Uiso   1.00
H443   H     0.72310   0.24782   0.20340   0.00000  Uiso   1.00
H444   H     0.75429   0.65678   0.42544   0.00000  Uiso   1.00
H445   H     0.63763   0.44771   0.49536   0.00000  Uiso   1.00
H446   H     0.58790   0.48092   0.41685   0.00000  Uiso   1.00
H447   H     0.65288   0.33230   0.49404   0.00000  Uiso   1.00
H448   H     0.66766   0.52624   0.59933   0.00000  Uiso   1.00
H449   H     0.53978   0.52344   0.29174   0.00000  Uiso   1.00
H450   H     0.67680   0.21006   0.45451   0.00000  Uiso   1.00
H451   H     0.70798   0.61903   0.67655   0.00000  Uiso   1.00
O452   O     0.53119   0.56494   0.10924   0.00000  Uiso   1.00
O453   O     0.71096   0.15381   0.32279   0.00000  Uiso   1.00
O454   O     0.75187   0.69037   0.61410   0.00000  Uiso   1.00
N455   N     0.58201   0.54776   0.11051   0.00000  Uiso   1.00
N456   N     0.71011   0.25477   0.26268   0.00000  Uiso   1.00
N457   N     0.73927   0.63711   0.47027   0.00000  Uiso   1.00
N458   N     0.55709   0.52745   0.24563   0.00000  Uiso   1.00
N459   N     0.68520   0.23446   0.39780   0.00000  Uiso   1.00
N460   N     0.71436   0.61680   0.60540   0.00000  Uiso   1.00
C461   C     0.17931   0.98170   0.26926   0.00000  Uiso   1.00
C462   C     0.14641   0.99495   0.25853   0.00000  Uiso   1.00
C463   C     0.13262   0.01740   0.17424   0.00000  Uiso   1.00
C464   C     0.10232   0.02642   0.17932   0.00000  Uiso   1.00
C465   C     0.05364   0.04895   0.14952   0.00000  Uiso   1.00
C466   C     0.18171   0.91420   0.30046   0.00000  Uiso   1.00
C467   C     0.19761   0.86875   0.25143   0.00000  Uiso   1.00
C468   C     0.19702   0.80980   0.29182   0.00000  Uiso   1.00
C469   C     0.20317   0.70695   0.32716   0.00000  Uiso   1.00
C470   C     0.18974   0.01957   0.35767   0.00000  Uiso   1.00
C471   C     0.21240   0.06272   0.35675   0.00000  Uiso   1.00
C472   C     0.21858   0.09248   0.44530   0.00000  Uiso   1.00
C473   C     0.23721   0.15325   0.56946   0.00000  Uiso   1.00
C474   C     0.15002   0.95781   0.42816   0.00000  Uiso   1.00
C475   C     0.13050   0.98197   0.34484   0.00000  Uiso   1.00
C476   C     0.10021   0.99097   0.35005   0.00000  Uiso   1.00
C477   C     0.08637   0.01343   0.26578   0.00000  Uiso   1.00
C478   C     0.16580   0.90122   0.38677   0.00000  Uiso   1.00
C479   C     0.16519   0.84232   0.42724   0.00000  Uiso   1.00
C480   C     0.18108   0.79680   0.37828   0.00000  Uiso   1.00
C481   C     0.17383   0.00660   0.44398   0.00000  Uiso   1.00
C482   C     0.17998   0.03629   0.53256   0.00000  Uiso   1.00
C483   C     0.20264   0.07948   0.53177   0.00000  Uiso   1.00
H484   H     0.19170   0.99180   0.20206   0.00000  Uiso   1.00
H485   H     0.14494   0.02743   0.10746   0.00000  Uiso   1.00
H486   H     0.20992   0.87881   0.18465   0.00000  Uiso   1.00
H487   H     0.22471   0.07275   0.28994   0.00000  Uiso   1.00
H488   H     0.08608   0.06119   0.04063   0.00000  Uiso   1.00
H489   H     0.22310   0.74782   0.20340   0.00000  Uiso   1.00
H490   H     0.25429   0.15678   0.42544   0.00000  Uiso   1.00
H491   H     0.13763   0.94771   0.49536   0.00000  Uiso   1.00
H492   H     0.08790   0.98092   0.41685   0.00000  Uiso   1.00
H493   H     0.15288   0.83230   0.49404   0.00000  Uiso   1.00
H494   H     0.16766   0.02624   0.59933   0.00000  Uiso   1.00
H495   H     0.03978   0.02344   0.29174   0.00000  Uiso   1.00
H496   H     0.17680   0.71006   0.45451   0.00000  Uiso   1.00
H497   H     0.20798   0.11903   0.67655   0.00000  Uiso   1.00
O498   O     0.03119   0.06494   0.10924   0.00000  Uiso   1.00
O499   O     0.21096   0.65381   0.32279   0.00000  Uiso   1.00
O500   O     0.25187   0.19037   0.61410   0.00000  Uiso   1.00
N501   N     0.08201   0.04776   0.11051   0.00000  Uiso   1.00
N502   N     0.21011   0.75477   0.26268   0.00000  Uiso   1.00
N503   N     0.23927   0.13711   0.47027   0.00000  Uiso   1.00
N504   N     0.05709   0.02745   0.24563   0.00000  Uiso   1.00
N505   N     0.18520   0.73446   0.39780   0.00000  Uiso   1.00
N506   N     0.21436   0.11680   0.60540   0.00000  Uiso   1.00
C507   C     0.17931   0.48170   0.76926   0.00000  Uiso   1.00
C508   C     0.14641   0.49495   0.75853   0.00000  Uiso   1.00
C509   C     0.13262   0.51740   0.67424   0.00000  Uiso   1.00
C510   C     0.10232   0.52642   0.67932   0.00000  Uiso   1.00
C511   C     0.05364   0.54895   0.64952   0.00000  Uiso   1.00
C512   C     0.18171   0.41420   0.80046   0.00000  Uiso   1.00
C513   C     0.19761   0.36875   0.75143   0.00000  Uiso   1.00
C514   C     0.19702   0.30980   0.79182   0.00000  Uiso   1.00
C515   C     0.20317   0.20695   0.82716   0.00000  Uiso   1.00
C516   C     0.18974   0.51957   0.85767   0.00000  Uiso   1.00
C517   C     0.21240   0.56272   0.85675   0.00000  Uiso   1.00
C518   C     0.21858   0.59248   0.94530   0.00000  Uiso   1.00
C519   C     0.23721   0.65325   0.06946   0.00000  Uiso   1.00
C520   C     0.15002   0.45781   0.92816   0.00000  Uiso   1.00
C521   C     0.13050   0.48197   0.84484   0.00000  Uiso   1.00
C522   C     0.10021   0.49097   0.85005   0.00000  Uiso   1.00
C523   C     0.08637   0.51343   0.76578   0.00000  Uiso   1.00
C524   C     0.16580   0.40122   0.88677   0.00000  Uiso   1.00
C525   C     0.16519   0.34232   0.92724   0.00000  Uiso   1.00
C526   C     0.18108   0.29680   0.87828   0.00000  Uiso   1.00
C527   C     0.17383   0.50660   0.94398   0.00000  Uiso   1.00
C528   C     0.17998   0.53629   0.03256   0.00000  Uiso   1.00
C529   C     0.20264   0.57948   0.03177   0.00000  Uiso   1.00
H530   H     0.19170   0.49180   0.70206   0.00000  Uiso   1.00
H531   H     0.14494   0.52743   0.60746   0.00000  Uiso   1.00
H532   H     0.20992   0.37881   0.68465   0.00000  Uiso   1.00
H533   H     0.22471   0.57275   0.78994   0.00000  Uiso   1.00
H534   H     0.08608   0.56119   0.54063   0.00000  Uiso   1.00
H535   H     0.22310   0.24782   0.70340   0.00000  Uiso   1.00
H536   H     0.25429   0.65678   0.92544   0.00000  Uiso   1.00
H537   H     0.13763   0.44771   0.99536   0.00000  Uiso   1.00
H538   H     0.08790   0.48092   0.91685   0.00000  Uiso   1.00
H539   H     0.15288   0.33230   0.99404   0.00000  Uiso   1.00
H540   H     0.16766   0.52624   0.09933   0.00000  Uiso   1.00
H541   H     0.03978   0.52344   0.79174   0.00000  Uiso   1.00
H542   H     0.17680   0.21006   0.95451   0.00000  Uiso   1.00
H543   H     0.20798   0.61903   0.17655   0.00000  Uiso   1.00
O544   O     0.03119   0.56494   0.60924   0.00000  Uiso   1.00
O545   O     0.21096   0.15381   0.82279   0.00000  Uiso   1.00
O546   O     0.25187   0.69037   0.11410   0.00000  Uiso   1.00
N547   N     0.08201   0.54776   0.61051   0.00000  Uiso   1.00
N548   N     0.21011   0.25477   0.76268   0.00000  Uiso   1.00
N549   N     0.23927   0.63711   0.97027   0.00000  Uiso   1.00
N550   N     0.05709   0.52745   0.74563   0.00000  Uiso   1.00
N551   N     0.18520   0.23446   0.89780   0.00000  Uiso   1.00
N552   N     0.21436   0.61680   0.10540   0.00000  Uiso   1.00
C553   C     0.82069   0.51830   0.76926   0.00000  Uiso   1.00
C554   C     0.85359   0.50505   0.75853   0.00000  Uiso   1.00
C555   C     0.86738   0.48260   0.67424   0.00000  Uiso   1.00
C556   C     0.89768   0.47358   0.67932   0.00000  Uiso   1.00
C557   C     0.94636   0.45105   0.64952   0.00000  Uiso   1.00
C558   C     0.81829   0.58580   0.80046   0.00000  Uiso   1.00
C559   C     0.80239   0.63125   0.75143   0.00000  Uiso   1.00
C560   C     0.80298   0.69020   0.79182   0.00000  Uiso   1.00
C561   C     0.79683   0.79305   0.82716   0.00000  Uiso   1.00
C562   C     0.81026   0.48043   0.85767   0.00000  Uiso   1.00
C563   C     0.78760   0.43728   0.85675   0.00000  Uiso   1.00
C564   C     0.78142   0.40752   0.94530   0.00000  Uiso   1.00
C565   C     0.76279   0.34675   0.06946   0.00000  Uiso   1.00
C566   C     0.84998   0.54219   0.92816   0.00000  Uiso   1.00
C567   C     0.86950   0.51803   0.84484   0.00000  Uiso   1.00
C568   C     0.89979   0.50903   0.85005   0.00000  Uiso   1.00
C569   C     0.91363   0.48657   0.76578   0.00000  Uiso   1.00
C570   C     0.83420   0.59878   0.88677   0.00000  Uiso   1.00
C571   C     0.83481   0.65768   0.92724   0.00000  Uiso   1.00
C572   C     0.81892   0.70320   0.87828   0.00000  Uiso   1.00
C573   C     0.82617   0.49340   0.94398   0.00000  Uiso   1.00
C574   C     0.82002   0.46371   0.03256   0.00000  Uiso   1.00
C575   C     0.79736   0.42052   0.03177   0.00000  Uiso   1.00
H576   H     0.80830   0.50820   0.70206   0.00000  Uiso   1.00
H577   H     0.85506   0.47257   0.60746   0.00000  Uiso   1.00
H578   H     0.79008   0.62119   0.68465   0.00000  Uiso   1.00
H579   H     0.77529   0.42725   0.78994   0.00000  Uiso   1.00
H580   H     0.91392   0.43881   0.54063   0.00000  Uiso   1.00
H581   H     0.77690   0.75218   0.70340   0.00000  Uiso   1.00
H582   H     0.74571   0.34322   0.92544   0.00000  Uiso   1.00
H583   H     0.86237   0.55229   0.99536   0.00000  Uiso   1.00
H584   H     0.91210   0.51908   0.91685   0.00000  Uiso   1.00
H585   H     0.84712   0.66770   0.99404   0.00000  Uiso   1.00
H586   H     0.83234   0.47376   0.09933   0.00000  Uiso   1.00
H587   H     0.96022   0.47656   0.79174   0.00000  Uiso   1.00
H588   H     0.82320   0.78994   0.95451   0.00000  Uiso   1.00
H589   H     0.79202   0.38097   0.17655   0.00000  Uiso   1.00
O590   O     0.96881   0.43506   0.60924   0.00000  Uiso   1.00
O591   O     0.78904   0.84619   0.82279   0.00000  Uiso   1.00
O592   O     0.74813   0.30963   0.11410   0.00000  Uiso   1.00
N593   N     0.91799   0.45224   0.61051   0.00000  Uiso   1.00
N594   N     0.78989   0.74523   0.76268   0.00000  Uiso   1.00
N595   N     0.76073   0.36289   0.97027   0.00000  Uiso   1.00
N596   N     0.94291   0.47255   0.74563   0.00000  Uiso   1.00
N597   N     0.81480   0.76554   0.89780   0.00000  Uiso   1.00
N598   N     0.78564   0.38320   0.10540   0.00000  Uiso   1.00
C599   C     0.82069   0.01830   0.26926   0.00000  Uiso   1.00
C600   C     0.85359   0.00505   0.25853   0.00000  Uiso   1.00
C601   C     0.86738   0.98260   0.17424   0.00000  Uiso   1.00
C602   C     0.89768   0.97358   0.17932   0.00000  Uiso   1.00
C603   C     0.94636   0.95105   0.14952   0.00000  Uiso   1.00
C604   C     0.81829   0.08580   0.30046   0.00000  Uiso   1.00
C605   C     0.80239   0.13125   0.25143   0.00000  Uiso   1.00
C606   C     0.80298   0.19020   0.29182   0.00000  Uiso   1.00
C607   C     0.79683   0.29305   0.32716   0.00000  Uiso   1.00
C608   C     0.81026   0.98043   0.35767   0.00000  Uiso   1.00
C609   C     0.78760   0.93728   0.35675   0.00000  Uiso   1.00
C610   C     0.78142   0.90752   0.44530   0.00000  Uiso   1.00
C611   C     0.76279   0.84675   0.56946   0.00000  Uiso   1.00
C612   C     0.84998   0.04219   0.42816   0.00000  Uiso   1.00
C613   C     0.86950   0.01803   0.34484   0.00000  Uiso   1.00
C614   C     0.89979   0.00903   0.35005   0.00000  Uiso   1.00
C615   C     0.91363   0.98657   0.26578   0.00000  Uiso   1.00
C616   C     0.83420   0.09878   0.38677   0.00000  Uiso   1.00
C617   C     0.83481   0.15768   0.42724   0.00000  Uiso   1.00
C618   C     0.81892   0.20320   0.37828   0.00000  Uiso   1.00
C619   C     0.82617   0.99340   0.44398   0.00000  Uiso   1.00
C620   C     0.82002   0.96371   0.53256   0.00000  Uiso   1.00
C621   C     0.79736   0.92052   0.53177   0.00000  Uiso   1.00
H622   H     0.80830   0.00820   0.20206   0.00000  Uiso   1.00
H623   H     0.85506   0.97257   0.10746   0.00000  Uiso   1.00
H624   H     0.79008   0.12119   0.18465   0.00000  Uiso   1.00
H625   H     0.77529   0.92725   0.28994   0.00000  Uiso   1.00
H626   H     0.91392   0.93881   0.04063   0.00000  Uiso   1.00
H627   H     0.77690   0.25218   0.20340   0.00000  Uiso   1.00
H628   H     0.74571   0.84322   0.42544   0.00000  Uiso   1.00
H629   H     0.86237   0.05229   0.49536   0.00000  Uiso   1.00
H630   H     0.91210   0.01908   0.41685   0.00000  Uiso   1.00
H631   H     0.84712   0.16770   0.49404   0.00000  Uiso   1.00
H632   H     0.83234   0.97376   0.59933   0.00000  Uiso   1.00
H633   H     0.96022   0.97656   0.29174   0.00000  Uiso   1.00
H634   H     0.82320   0.28994   0.45451   0.00000  Uiso   1.00
H635   H     0.79202   0.88097   0.67655   0.00000  Uiso   1.00
O636   O     0.96881   0.93506   0.10924   0.00000  Uiso   1.00
O637   O     0.78904   0.34619   0.32279   0.00000  Uiso   1.00
O638   O     0.74813   0.80963   0.61410   0.00000  Uiso   1.00
N639   N     0.91799   0.95224   0.11051   0.00000  Uiso   1.00
N640   N     0.78989   0.24523   0.26268   0.00000  Uiso   1.00
N641   N     0.76073   0.86289   0.47027   0.00000  Uiso   1.00
N642   N     0.94291   0.97255   0.24563   0.00000  Uiso   1.00
N643   N     0.81480   0.26554   0.39780   0.00000  Uiso   1.00
N644   N     0.78564   0.88320   0.60540   0.00000  Uiso   1.00
C645   C     0.32069   0.51830   0.26926   0.00000  Uiso   1.00
C646   C     0.35359   0.50505   0.25853   0.00000  Uiso   1.00
C647   C     0.36738   0.48260   0.17424   0.00000  Uiso   1.00
C648   C     0.39768   0.47358   0.17932   0.00000  Uiso   1.00
C649   C     0.44636   0.45105   0.14952   0.00000  Uiso   1.00
C650   C     0.31829   0.58580   0.30046   0.00000  Uiso   1.00
C651   C     0.30239   0.63125   0.25143   0.00000  Uiso   1.00
C652   C     0.30298   0.69020   0.29182   0.00000  Uiso   1.00
C653   C     0.29683   0.79305   0.32716   0.00000  Uiso   1.00
C654   C     0.31026   0.48043   0.35767   0.00000  Uiso   1.00
C655   C     0.28760   0.43728   0.35675   0.00000  Uiso   1.00
C656   C     0.28142   0.40752   0.44530   0.00000  Uiso   1.00
C657   C     0.26279   0.34675   0.56946   0.00000  Uiso   1.00
C658   C     0.34998   0.54219   0.42816   0.00000  Uiso   1.00
C659   C     0.36950   0.51803   0.34484   0.00000  Uiso   1.00
C660   C     0.39979   0.50903   0.35005   0.00000  Uiso   1.00
C661   C     0.41363   0.48657   0.26578   0.00000  Uiso   1.00
C662   C     0.33420   0.59878   0.38677   0.00000  Uiso   1.00
C663   C     0.33481   0.65768   0.42724   0.00000  Uiso   1.00
C664   C     0.31892   0.70320   0.37828   0.00000  Uiso   1.00
C665   C     0.32617   0.49340   0.44398   0.00000  Uiso   1.00
C666   C     0.32002   0.46371   0.53256   0.00000  Uiso   1.00
C667   C     0.29736   0.42052   0.53177   0.00000  Uiso   1.00
H668   H     0.30830   0.50820   0.20206   0.00000  Uiso   1.00
H669   H     0.35506   0.47257   0.10746   0.00000  Uiso   1.00
H670   H     0.29008   0.62119   0.18465   0.00000  Uiso   1.00
H671   H     0.27529   0.42725   0.28994   0.00000  Uiso   1.00
H672   H     0.41392   0.43881   0.04063   0.00000  Uiso   1.00
H673   H     0.27690   0.75218   0.20340   0.00000  Uiso   1.00
H674   H     0.24571   0.34322   0.42544   0.00000  Uiso   1.00
H675   H     0.36237   0.55229   0.49536   0.00000  Uiso   1.00
H676   H     0.41210   0.51908   0.41685   0.00000  Uiso   1.00
H677   H     0.34712   0.66770   0.49404   0.00000  Uiso   1.00
H678   H     0.33234   0.47376   0.59933   0.00000  Uiso   1.00
H679   H     0.46022   0.47656   0.29174   0.00000  Uiso   1.00
H680   H     0.32320   0.78994   0.45451   0.00000  Uiso   1.00
H681   H     0.29202   0.38097   0.67655   0.00000  Uiso   1.00
O682   O     0.46881   0.43506   0.10924   0.00000  Uiso   1.00
O683   O     0.28904   0.84619   0.32279   0.00000  Uiso   1.00
O684   O     0.24813   0.30963   0.61410   0.00000  Uiso   1.00
N685   N     0.41799   0.45224   0.11051   0.00000  Uiso   1.00
N686   N     0.28989   0.74523   0.26268   0.00000  Uiso   1.00
N687   N     0.26073   0.36289   0.47027   0.00000  Uiso   1.00
N688   N     0.44291   0.47255   0.24563   0.00000  Uiso   1.00
N689   N     0.31480   0.76554   0.39780   0.00000  Uiso   1.00
N690   N     0.28564   0.38320   0.60540   0.00000  Uiso   1.00
C691   C     0.32069   0.01830   0.76926   0.00000  Uiso   1.00
C692   C     0.35359   0.00505   0.75853   0.00000  Uiso   1.00
C693   C     0.36738   0.98260   0.67424   0.00000  Uiso   1.00
C694   C     0.39768   0.97358   0.67932   0.00000  Uiso   1.00
C695   C     0.44636   0.95105   0.64952   0.00000  Uiso   1.00
C696   C     0.31829   0.08580   0.80046   0.00000  Uiso   1.00
C697   C     0.30239   0.13125   0.75143   0.00000  Uiso   1.00
C698   C     0.30298   0.19020   0.79182   0.00000  Uiso   1.00
C699   C     0.29683   0.29305   0.82716   0.00000  Uiso   1.00
C700   C     0.31026   0.98043   0.85767   0.00000  Uiso   1.00
C701   C     0.28760   0.93728   0.85675   0.00000  Uiso   1.00
C702   C     0.28142   0.90752   0.94530   0.00000  Uiso   1.00
C703   C     0.26279   0.84675   0.06946   0.00000  Uiso   1.00
C704   C     0.34998   0.04219   0.92816   0.00000  Uiso   1.00
C705   C     0.36950   0.01803   0.84484   0.00000  Uiso   1.00
C706   C     0.39979   0.00903   0.85005   0.00000  Uiso   1.00
C707   C     0.41363   0.98657   0.76578   0.00000  Uiso   1.00
C708   C     0.33420   0.09878   0.88677   0.00000  Uiso   1.00
C709   C     0.33481   0.15768   0.92724   0.00000  Uiso   1.00
C710   C     0.31892   0.20320   0.87828   0.00000  Uiso   1.00
C711   C     0.32617   0.99340   0.94398   0.00000  Uiso   1.00
C712   C     0.32002   0.96371   0.03256   0.00000  Uiso   1.00
C713   C     0.29736   0.92052   0.03177   0.00000  Uiso   1.00
H714   H     0.30830   0.00820   0.70206   0.00000  Uiso   1.00
H715   H     0.35506   0.97257   0.60746   0.00000  Uiso   1.00
H716   H     0.29008   0.12119   0.68465   0.00000  Uiso   1.00
H717   H     0.27529   0.92725   0.78994   0.00000  Uiso   1.00
H718   H     0.41392   0.93881   0.54063   0.00000  Uiso   1.00
H719   H     0.27690   0.25218   0.70340   0.00000  Uiso   1.00
H720   H     0.24571   0.84322   0.92544   0.00000  Uiso   1.00
H721   H     0.36237   0.05229   0.99536   0.00000  Uiso   1.00
H722   H     0.41210   0.01908   0.91685   0.00000  Uiso   1.00
H723   H     0.34712   0.16770   0.99404   0.00000  Uiso   1.00
H724   H     0.33234   0.97376   0.09933   0.00000  Uiso   1.00
H725   H     0.46022   0.97656   0.79174   0.00000  Uiso   1.00
H726   H     0.32320   0.28994   0.95451   0.00000  Uiso   1.00
H727   H     0.29202   0.88097   0.17655   0.00000  Uiso   1.00
O728   O     0.46881   0.93506   0.60924   0.00000  Uiso   1.00
O729   O     0.28904   0.34619   0.82279   0.00000  Uiso   1.00
O730   O     0.24813   0.80963   0.11410   0.00000  Uiso   1.00
N731   N     0.41799   0.95224   0.61051   0.00000  Uiso   1.00
N732   N     0.28989   0.24523   0.76268   0.00000  Uiso   1.00
N733   N     0.26073   0.86289   0.97027   0.00000  Uiso   1.00
N734   N     0.44291   0.97255   0.74563   0.00000  Uiso   1.00
N735   N     0.31480   0.26554   0.89780   0.00000  Uiso   1.00
N736   N     0.28564   0.88320   0.10540   0.00000  Uiso   1.00
