data_job_05511
_audit_creation_date              2018-12-19
_audit_creation_method            'Materials Studio'
_symmetry_space_group_name_H-M    'P1'
_symmetry_Int_Tables_number       1
_symmetry_cell_setting            triclinic
loop_
_symmetry_equiv_pos_as_xyz
  x,y,z
_cell_length_a                    26.7030
_cell_length_b                    26.7030
_cell_length_c                    13.9303
_cell_angle_alpha                 90.0000
_cell_angle_beta                  90.0000
_cell_angle_gamma                 90.0000
loop_
_atom_site_label
_atom_site_type_symbol
_atom_site_fract_x
_atom_site_fract_y
_atom_site_fract_z
_atom_site_U_iso_or_equiv
_atom_site_adp_type
_atom_site_occupancy
C1     C     0.21730   0.10784   0.72514   0.00000  Uiso   1.00
C2     C     0.18281   0.06479   0.75346   0.00000  Uiso   1.00
C3     C     0.17324   0.04886   0.84649   0.00000  Uiso   1.00
C4     C     0.14057   0.00881   0.85737   0.00000  Uiso   1.00
C5     C     0.09042   0.94549   0.91342   0.00000  Uiso   1.00
C6     C     0.25560   0.08568   0.65592   0.00000  Uiso   1.00
C7     C     0.30723   0.08732   0.66694   0.00000  Uiso   1.00
C8     C     0.33583   0.06487   0.59569   0.00000  Uiso   1.00
C9     C     0.39869   0.03401   0.50028   0.00000  Uiso   1.00
C10    C     0.18540   0.14372   0.66588   0.00000  Uiso   1.00
C11    C     0.17801   0.19417   0.68525   0.00000  Uiso   1.00
C12    C     0.14752   0.22058   0.62238   0.00000  Uiso   1.00
C13    C     0.10138   0.27984   0.54243   0.00000  Uiso   1.00
C14    C     0.17629   0.06506   0.57901   0.00000  Uiso   1.00
C15    C     0.16054   0.04156   0.67409   0.00000  Uiso   1.00
C16    C     0.12787   0.00153   0.68482   0.00000  Uiso   1.00
C17    C     0.11825   0.98553   0.77785   0.00000  Uiso   1.00
C18    C     0.23333   0.06245   0.57655   0.00000  Uiso   1.00
C19    C     0.26186   0.03999   0.50527   0.00000  Uiso   1.00
C20    C     0.31352   0.04159   0.51618   0.00000  Uiso   1.00
C21    C     0.16312   0.12049   0.58651   0.00000  Uiso   1.00
C22    C     0.13264   0.14684   0.52359   0.00000  Uiso   1.00
C23    C     0.12521   0.19731   0.54286   0.00000  Uiso   1.00
H24    H     0.23465   0.12593   0.78692   0.00000  Uiso   1.00
H25    H     0.19049   0.06684   0.90790   0.00000  Uiso   1.00
H26    H     0.32446   0.10531   0.72836   0.00000  Uiso   1.00
H27    H     0.19526   0.21214   0.74668   0.00000  Uiso   1.00
H28    H     0.13172   0.99108   0.00701   0.00000  Uiso   1.00
H29    H     0.41420   0.07220   0.62844   0.00000  Uiso   1.00
H30    H     0.14176   0.29746   0.66707   0.00000  Uiso   1.00
H31    H     0.15895   0.04697   0.51721   0.00000  Uiso   1.00
H32    H     0.11064   0.98355   0.62339   0.00000  Uiso   1.00
H33    H     0.24461   0.02202   0.44386   0.00000  Uiso   1.00
H34    H     0.11541   0.12884   0.46217   0.00000  Uiso   1.00
H35    H     0.06691   0.92347   0.77610   0.00000  Uiso   1.00
H36    H     0.34939   0.00460   0.39752   0.00000  Uiso   1.00
H37    H     0.07695   0.22986   0.43615   0.00000  Uiso   1.00
O38    O     0.06891   0.91697   0.96626   0.00000  Uiso   1.00
O39    O     0.43951   0.02341   0.46959   0.00000  Uiso   1.00
O40    O     0.08208   0.31895   0.52027   0.00000  Uiso   1.00
N41    N     0.12309   0.98388   0.93810   0.00000  Uiso   1.00
N42    N     0.38719   0.05971   0.58416   0.00000  Uiso   1.00
N43    N     0.13250   0.27032   0.62026   0.00000  Uiso   1.00
N44    N     0.08822   0.94750   0.81384   0.00000  Uiso   1.00
N45    N     0.35232   0.02334   0.45991   0.00000  Uiso   1.00
N46    N     0.09762   0.23394   0.49600   0.00000  Uiso   1.00
C47    C     0.71730   0.60784   0.22514   0.00000  Uiso   1.00
C48    C     0.68281   0.56479   0.25346   0.00000  Uiso   1.00
C49    C     0.67324   0.54886   0.34649   0.00000  Uiso   1.00
C50    C     0.64057   0.50881   0.35737   0.00000  Uiso   1.00
C51    C     0.59042   0.44549   0.41342   0.00000  Uiso   1.00
C52    C     0.75560   0.58568   0.15592   0.00000  Uiso   1.00
C53    C     0.80723   0.58732   0.16694   0.00000  Uiso   1.00
C54    C     0.83583   0.56487   0.09569   0.00000  Uiso   1.00
C55    C     0.89869   0.53401   0.00028   0.00000  Uiso   1.00
C56    C     0.68540   0.64372   0.16588   0.00000  Uiso   1.00
C57    C     0.67801   0.69417   0.18525   0.00000  Uiso   1.00
C58    C     0.64752   0.72058   0.12238   0.00000  Uiso   1.00
C59    C     0.60138   0.77984   0.04243   0.00000  Uiso   1.00
C60    C     0.67629   0.56506   0.07901   0.00000  Uiso   1.00
C61    C     0.66054   0.54156   0.17409   0.00000  Uiso   1.00
C62    C     0.62787   0.50153   0.18482   0.00000  Uiso   1.00
C63    C     0.61825   0.48553   0.27785   0.00000  Uiso   1.00
C64    C     0.73333   0.56245   0.07655   0.00000  Uiso   1.00
C65    C     0.76186   0.53999   0.00527   0.00000  Uiso   1.00
C66    C     0.81352   0.54159   0.01618   0.00000  Uiso   1.00
C67    C     0.66312   0.62049   0.08651   0.00000  Uiso   1.00
C68    C     0.63264   0.64684   0.02359   0.00000  Uiso   1.00
C69    C     0.62521   0.69731   0.04286   0.00000  Uiso   1.00
H70    H     0.73465   0.62593   0.28692   0.00000  Uiso   1.00
H71    H     0.69049   0.56684   0.40790   0.00000  Uiso   1.00
H72    H     0.82446   0.60531   0.22836   0.00000  Uiso   1.00
H73    H     0.69526   0.71214   0.24668   0.00000  Uiso   1.00
H74    H     0.63172   0.49108   0.50701   0.00000  Uiso   1.00
H75    H     0.91420   0.57220   0.12844   0.00000  Uiso   1.00
H76    H     0.64176   0.79746   0.16707   0.00000  Uiso   1.00
H77    H     0.65895   0.54697   0.01721   0.00000  Uiso   1.00
H78    H     0.61064   0.48355   0.12339   0.00000  Uiso   1.00
H79    H     0.74461   0.52202   0.94386   0.00000  Uiso   1.00
H80    H     0.61541   0.62884   0.96217   0.00000  Uiso   1.00
H81    H     0.56691   0.42347   0.27610   0.00000  Uiso   1.00
H82    H     0.84939   0.50460   0.89752   0.00000  Uiso   1.00
H83    H     0.57695   0.72986   0.93615   0.00000  Uiso   1.00
O84    O     0.56891   0.41697   0.46626   0.00000  Uiso   1.00
O85    O     0.93951   0.52341   0.96959   0.00000  Uiso   1.00
O86    O     0.58208   0.81895   0.02027   0.00000  Uiso   1.00
N87    N     0.62309   0.48388   0.43810   0.00000  Uiso   1.00
N88    N     0.88719   0.55971   0.08416   0.00000  Uiso   1.00
N89    N     0.63250   0.77032   0.12026   0.00000  Uiso   1.00
N90    N     0.58822   0.44750   0.31384   0.00000  Uiso   1.00
N91    N     0.85232   0.52334   0.95991   0.00000  Uiso   1.00
N92    N     0.59762   0.73394   0.99600   0.00000  Uiso   1.00
C93    C     0.28270   0.39216   0.22514   0.00000  Uiso   1.00
C94    C     0.31719   0.43521   0.25346   0.00000  Uiso   1.00
C95    C     0.32676   0.45114   0.34649   0.00000  Uiso   1.00
C96    C     0.35943   0.49119   0.35737   0.00000  Uiso   1.00
C97    C     0.40958   0.55451   0.41342   0.00000  Uiso   1.00
C98    C     0.24440   0.41432   0.15592   0.00000  Uiso   1.00
C99    C     0.19277   0.41268   0.16694   0.00000  Uiso   1.00
C100   C     0.16417   0.43513   0.09569   0.00000  Uiso   1.00
C101   C     0.10131   0.46599   0.00028   0.00000  Uiso   1.00
C102   C     0.31460   0.35628   0.16588   0.00000  Uiso   1.00
C103   C     0.32199   0.30583   0.18525   0.00000  Uiso   1.00
C104   C     0.35248   0.27942   0.12238   0.00000  Uiso   1.00
C105   C     0.39862   0.22016   0.04243   0.00000  Uiso   1.00
C106   C     0.32371   0.43494   0.07901   0.00000  Uiso   1.00
C107   C     0.33946   0.45844   0.17409   0.00000  Uiso   1.00
C108   C     0.37213   0.49847   0.18482   0.00000  Uiso   1.00
C109   C     0.38175   0.51447   0.27785   0.00000  Uiso   1.00
C110   C     0.26667   0.43755   0.07655   0.00000  Uiso   1.00
C111   C     0.23814   0.46001   0.00527   0.00000  Uiso   1.00
C112   C     0.18648   0.45841   0.01618   0.00000  Uiso   1.00
C113   C     0.33688   0.37951   0.08651   0.00000  Uiso   1.00
C114   C     0.36736   0.35316   0.02359   0.00000  Uiso   1.00
C115   C     0.37479   0.30269   0.04286   0.00000  Uiso   1.00
H116   H     0.26535   0.37407   0.28692   0.00000  Uiso   1.00
H117   H     0.30951   0.43316   0.40790   0.00000  Uiso   1.00
H118   H     0.17554   0.39469   0.22836   0.00000  Uiso   1.00
H119   H     0.30474   0.28786   0.24668   0.00000  Uiso   1.00
H120   H     0.36828   0.50892   0.50701   0.00000  Uiso   1.00
H121   H     0.08580   0.42780   0.12844   0.00000  Uiso   1.00
H122   H     0.35824   0.20254   0.16707   0.00000  Uiso   1.00
H123   H     0.34105   0.45303   0.01721   0.00000  Uiso   1.00
H124   H     0.38936   0.51645   0.12339   0.00000  Uiso   1.00
H125   H     0.25539   0.47798   0.94386   0.00000  Uiso   1.00
H126   H     0.38459   0.37116   0.96217   0.00000  Uiso   1.00
H127   H     0.43309   0.57653   0.27610   0.00000  Uiso   1.00
H128   H     0.15061   0.49540   0.89752   0.00000  Uiso   1.00
H129   H     0.42305   0.27014   0.93615   0.00000  Uiso   1.00
O130   O     0.43109   0.58303   0.46626   0.00000  Uiso   1.00
O131   O     0.06049   0.47659   0.96959   0.00000  Uiso   1.00
O132   O     0.41792   0.18105   0.02027   0.00000  Uiso   1.00
N133   N     0.37691   0.51612   0.43810   0.00000  Uiso   1.00
N134   N     0.11281   0.44029   0.08416   0.00000  Uiso   1.00
N135   N     0.36750   0.22968   0.12026   0.00000  Uiso   1.00
N136   N     0.41178   0.55250   0.31384   0.00000  Uiso   1.00
N137   N     0.14768   0.47666   0.95991   0.00000  Uiso   1.00
N138   N     0.40238   0.26606   0.99600   0.00000  Uiso   1.00
C139   C     0.78270   0.89216   0.72514   0.00000  Uiso   1.00
C140   C     0.81719   0.93521   0.75346   0.00000  Uiso   1.00
C141   C     0.82676   0.95114   0.84649   0.00000  Uiso   1.00
C142   C     0.85943   0.99119   0.85737   0.00000  Uiso   1.00
C143   C     0.90958   0.05451   0.91342   0.00000  Uiso   1.00
C144   C     0.74440   0.91432   0.65592   0.00000  Uiso   1.00
C145   C     0.69277   0.91268   0.66694   0.00000  Uiso   1.00
C146   C     0.66417   0.93513   0.59569   0.00000  Uiso   1.00
C147   C     0.60131   0.96599   0.50028   0.00000  Uiso   1.00
C148   C     0.81460   0.85628   0.66588   0.00000  Uiso   1.00
C149   C     0.82199   0.80583   0.68525   0.00000  Uiso   1.00
C150   C     0.85248   0.77942   0.62238   0.00000  Uiso   1.00
C151   C     0.89862   0.72016   0.54243   0.00000  Uiso   1.00
C152   C     0.82371   0.93494   0.57901   0.00000  Uiso   1.00
C153   C     0.83946   0.95844   0.67409   0.00000  Uiso   1.00
C154   C     0.87213   0.99847   0.68482   0.00000  Uiso   1.00
C155   C     0.88175   0.01447   0.77785   0.00000  Uiso   1.00
C156   C     0.76667   0.93755   0.57655   0.00000  Uiso   1.00
C157   C     0.73814   0.96001   0.50527   0.00000  Uiso   1.00
C158   C     0.68648   0.95841   0.51618   0.00000  Uiso   1.00
C159   C     0.83688   0.87951   0.58651   0.00000  Uiso   1.00
C160   C     0.86736   0.85316   0.52359   0.00000  Uiso   1.00
C161   C     0.87479   0.80269   0.54286   0.00000  Uiso   1.00
H162   H     0.76535   0.87407   0.78692   0.00000  Uiso   1.00
H163   H     0.80951   0.93316   0.90790   0.00000  Uiso   1.00
H164   H     0.67554   0.89469   0.72836   0.00000  Uiso   1.00
H165   H     0.80474   0.78786   0.74668   0.00000  Uiso   1.00
H166   H     0.86828   0.00892   0.00701   0.00000  Uiso   1.00
H167   H     0.58580   0.92780   0.62844   0.00000  Uiso   1.00
H168   H     0.85824   0.70254   0.66707   0.00000  Uiso   1.00
H169   H     0.84105   0.95303   0.51721   0.00000  Uiso   1.00
H170   H     0.88936   0.01645   0.62339   0.00000  Uiso   1.00
H171   H     0.75539   0.97798   0.44386   0.00000  Uiso   1.00
H172   H     0.88459   0.87116   0.46217   0.00000  Uiso   1.00
H173   H     0.93309   0.07653   0.77610   0.00000  Uiso   1.00
H174   H     0.65061   0.99540   0.39752   0.00000  Uiso   1.00
H175   H     0.92305   0.77014   0.43615   0.00000  Uiso   1.00
O176   O     0.93109   0.08303   0.96626   0.00000  Uiso   1.00
O177   O     0.56049   0.97659   0.46959   0.00000  Uiso   1.00
O178   O     0.91792   0.68105   0.52027   0.00000  Uiso   1.00
N179   N     0.87691   0.01612   0.93810   0.00000  Uiso   1.00
N180   N     0.61281   0.94029   0.58416   0.00000  Uiso   1.00
N181   N     0.86750   0.72968   0.62026   0.00000  Uiso   1.00
N182   N     0.91178   0.05250   0.81384   0.00000  Uiso   1.00
N183   N     0.64768   0.97666   0.45991   0.00000  Uiso   1.00
N184   N     0.90238   0.76606   0.49600   0.00000  Uiso   1.00
C185   C     0.89216   0.71730   0.97514   0.00000  Uiso   1.00
C186   C     0.93521   0.68281   0.00346   0.00000  Uiso   1.00
C187   C     0.95114   0.67324   0.09649   0.00000  Uiso   1.00
C188   C     0.99119   0.64057   0.10737   0.00000  Uiso   1.00
C189   C     0.05451   0.59042   0.16342   0.00000  Uiso   1.00
C190   C     0.91432   0.75560   0.90592   0.00000  Uiso   1.00
C191   C     0.91268   0.80723   0.91694   0.00000  Uiso   1.00
C192   C     0.93513   0.83583   0.84569   0.00000  Uiso   1.00
C193   C     0.96599   0.89869   0.75028   0.00000  Uiso   1.00
C194   C     0.85628   0.68540   0.91588   0.00000  Uiso   1.00
C195   C     0.80583   0.67801   0.93525   0.00000  Uiso   1.00
C196   C     0.77942   0.64752   0.87238   0.00000  Uiso   1.00
C197   C     0.72016   0.60138   0.79243   0.00000  Uiso   1.00
C198   C     0.93494   0.67629   0.82901   0.00000  Uiso   1.00
C199   C     0.95844   0.66054   0.92409   0.00000  Uiso   1.00
C200   C     0.99847   0.62787   0.93482   0.00000  Uiso   1.00
C201   C     0.01447   0.61825   0.02785   0.00000  Uiso   1.00
C202   C     0.93755   0.73333   0.82655   0.00000  Uiso   1.00
C203   C     0.96001   0.76186   0.75527   0.00000  Uiso   1.00
C204   C     0.95841   0.81352   0.76618   0.00000  Uiso   1.00
C205   C     0.87951   0.66312   0.83651   0.00000  Uiso   1.00
C206   C     0.85316   0.63264   0.77359   0.00000  Uiso   1.00
C207   C     0.80269   0.62521   0.79286   0.00000  Uiso   1.00
H208   H     0.87407   0.73465   0.03692   0.00000  Uiso   1.00
H209   H     0.93316   0.69049   0.15790   0.00000  Uiso   1.00
H210   H     0.89469   0.82446   0.97836   0.00000  Uiso   1.00
H211   H     0.78786   0.69526   0.99668   0.00000  Uiso   1.00
H212   H     0.00892   0.63172   0.25701   0.00000  Uiso   1.00
H213   H     0.92780   0.91420   0.87844   0.00000  Uiso   1.00
H214   H     0.70254   0.64176   0.91707   0.00000  Uiso   1.00
H215   H     0.95303   0.65895   0.76721   0.00000  Uiso   1.00
H216   H     0.01645   0.61064   0.87339   0.00000  Uiso   1.00
H217   H     0.97798   0.74461   0.69386   0.00000  Uiso   1.00
H218   H     0.87116   0.61541   0.71217   0.00000  Uiso   1.00
H219   H     0.07653   0.56691   0.02610   0.00000  Uiso   1.00
H220   H     0.99540   0.84939   0.64752   0.00000  Uiso   1.00
H221   H     0.77014   0.57695   0.68615   0.00000  Uiso   1.00
O222   O     0.08303   0.56891   0.21626   0.00000  Uiso   1.00
O223   O     0.97659   0.93951   0.71959   0.00000  Uiso   1.00
O224   O     0.68105   0.58208   0.77027   0.00000  Uiso   1.00
N225   N     0.01612   0.62309   0.18810   0.00000  Uiso   1.00
N226   N     0.94029   0.88719   0.83416   0.00000  Uiso   1.00
N227   N     0.72968   0.63250   0.87026   0.00000  Uiso   1.00
N228   N     0.05250   0.58822   0.06384   0.00000  Uiso   1.00
N229   N     0.97666   0.85232   0.70991   0.00000  Uiso   1.00
N230   N     0.76606   0.59762   0.74600   0.00000  Uiso   1.00
C231   C     0.39216   0.21730   0.47514   0.00000  Uiso   1.00
C232   C     0.43521   0.18281   0.50346   0.00000  Uiso   1.00
C233   C     0.45114   0.17324   0.59649   0.00000  Uiso   1.00
C234   C     0.49119   0.14057   0.60737   0.00000  Uiso   1.00
C235   C     0.55451   0.09042   0.66342   0.00000  Uiso   1.00
C236   C     0.41432   0.25560   0.40592   0.00000  Uiso   1.00
C237   C     0.41268   0.30723   0.41694   0.00000  Uiso   1.00
C238   C     0.43513   0.33583   0.34569   0.00000  Uiso   1.00
C239   C     0.46599   0.39869   0.25028   0.00000  Uiso   1.00
C240   C     0.35628   0.18540   0.41588   0.00000  Uiso   1.00
C241   C     0.30583   0.17801   0.43525   0.00000  Uiso   1.00
C242   C     0.27942   0.14752   0.37238   0.00000  Uiso   1.00
C243   C     0.22016   0.10138   0.29243   0.00000  Uiso   1.00
C244   C     0.43494   0.17629   0.32901   0.00000  Uiso   1.00
C245   C     0.45844   0.16054   0.42409   0.00000  Uiso   1.00
C246   C     0.49847   0.12787   0.43482   0.00000  Uiso   1.00
C247   C     0.51447   0.11825   0.52785   0.00000  Uiso   1.00
C248   C     0.43755   0.23333   0.32655   0.00000  Uiso   1.00
C249   C     0.46001   0.26186   0.25527   0.00000  Uiso   1.00
C250   C     0.45841   0.31352   0.26618   0.00000  Uiso   1.00
C251   C     0.37951   0.16312   0.33651   0.00000  Uiso   1.00
C252   C     0.35316   0.13264   0.27359   0.00000  Uiso   1.00
C253   C     0.30269   0.12521   0.29286   0.00000  Uiso   1.00
H254   H     0.37407   0.23465   0.53692   0.00000  Uiso   1.00
H255   H     0.43316   0.19049   0.65790   0.00000  Uiso   1.00
H256   H     0.39469   0.32446   0.47836   0.00000  Uiso   1.00
H257   H     0.28786   0.19526   0.49668   0.00000  Uiso   1.00
H258   H     0.50892   0.13172   0.75701   0.00000  Uiso   1.00
H259   H     0.42780   0.41420   0.37844   0.00000  Uiso   1.00
H260   H     0.20254   0.14176   0.41707   0.00000  Uiso   1.00
H261   H     0.45303   0.15895   0.26721   0.00000  Uiso   1.00
H262   H     0.51645   0.11064   0.37339   0.00000  Uiso   1.00
H263   H     0.47798   0.24461   0.19386   0.00000  Uiso   1.00
H264   H     0.37116   0.11541   0.21217   0.00000  Uiso   1.00
H265   H     0.57653   0.06691   0.52610   0.00000  Uiso   1.00
H266   H     0.49540   0.34939   0.14752   0.00000  Uiso   1.00
H267   H     0.27014   0.07695   0.18615   0.00000  Uiso   1.00
O268   O     0.58303   0.06891   0.71626   0.00000  Uiso   1.00
O269   O     0.47659   0.43951   0.21959   0.00000  Uiso   1.00
O270   O     0.18105   0.08208   0.27027   0.00000  Uiso   1.00
N271   N     0.51612   0.12309   0.68810   0.00000  Uiso   1.00
N272   N     0.44029   0.38719   0.33416   0.00000  Uiso   1.00
N273   N     0.22968   0.13250   0.37026   0.00000  Uiso   1.00
N274   N     0.55250   0.08822   0.56384   0.00000  Uiso   1.00
N275   N     0.47666   0.35232   0.20991   0.00000  Uiso   1.00
N276   N     0.26606   0.09762   0.24600   0.00000  Uiso   1.00
C277   C     0.60784   0.78270   0.47514   0.00000  Uiso   1.00
C278   C     0.56479   0.81719   0.50346   0.00000  Uiso   1.00
C279   C     0.54886   0.82676   0.59649   0.00000  Uiso   1.00
C280   C     0.50881   0.85943   0.60737   0.00000  Uiso   1.00
C281   C     0.44549   0.90958   0.66342   0.00000  Uiso   1.00
C282   C     0.58568   0.74440   0.40592   0.00000  Uiso   1.00
C283   C     0.58732   0.69277   0.41694   0.00000  Uiso   1.00
C284   C     0.56487   0.66417   0.34569   0.00000  Uiso   1.00
C285   C     0.53401   0.60131   0.25028   0.00000  Uiso   1.00
C286   C     0.64372   0.81460   0.41588   0.00000  Uiso   1.00
C287   C     0.69417   0.82199   0.43525   0.00000  Uiso   1.00
C288   C     0.72058   0.85248   0.37238   0.00000  Uiso   1.00
C289   C     0.77984   0.89862   0.29243   0.00000  Uiso   1.00
C290   C     0.56506   0.82371   0.32901   0.00000  Uiso   1.00
C291   C     0.54156   0.83946   0.42409   0.00000  Uiso   1.00
C292   C     0.50153   0.87213   0.43482   0.00000  Uiso   1.00
C293   C     0.48553   0.88175   0.52785   0.00000  Uiso   1.00
C294   C     0.56245   0.76667   0.32655   0.00000  Uiso   1.00
C295   C     0.53999   0.73814   0.25527   0.00000  Uiso   1.00
C296   C     0.54159   0.68648   0.26618   0.00000  Uiso   1.00
C297   C     0.62049   0.83688   0.33651   0.00000  Uiso   1.00
C298   C     0.64684   0.86736   0.27359   0.00000  Uiso   1.00
C299   C     0.69731   0.87479   0.29286   0.00000  Uiso   1.00
H300   H     0.62593   0.76535   0.53692   0.00000  Uiso   1.00
H301   H     0.56684   0.80951   0.65790   0.00000  Uiso   1.00
H302   H     0.60531   0.67554   0.47836   0.00000  Uiso   1.00
H303   H     0.71214   0.80474   0.49668   0.00000  Uiso   1.00
H304   H     0.49108   0.86828   0.75701   0.00000  Uiso   1.00
H305   H     0.57220   0.58580   0.37844   0.00000  Uiso   1.00
H306   H     0.79746   0.85824   0.41707   0.00000  Uiso   1.00
H307   H     0.54697   0.84105   0.26721   0.00000  Uiso   1.00
H308   H     0.48355   0.88936   0.37339   0.00000  Uiso   1.00
H309   H     0.52202   0.75539   0.19386   0.00000  Uiso   1.00
H310   H     0.62884   0.88459   0.21217   0.00000  Uiso   1.00
H311   H     0.42347   0.93309   0.52610   0.00000  Uiso   1.00
H312   H     0.50460   0.65061   0.14752   0.00000  Uiso   1.00
H313   H     0.72986   0.92305   0.18615   0.00000  Uiso   1.00
O314   O     0.41697   0.93109   0.71626   0.00000  Uiso   1.00
O315   O     0.52341   0.56049   0.21959   0.00000  Uiso   1.00
O316   O     0.81895   0.91792   0.27027   0.00000  Uiso   1.00
N317   N     0.48388   0.87691   0.68810   0.00000  Uiso   1.00
N318   N     0.55971   0.61281   0.33416   0.00000  Uiso   1.00
N319   N     0.77032   0.86750   0.37026   0.00000  Uiso   1.00
N320   N     0.44750   0.91178   0.56384   0.00000  Uiso   1.00
N321   N     0.52334   0.64768   0.20991   0.00000  Uiso   1.00
N322   N     0.73394   0.90238   0.24600   0.00000  Uiso   1.00
C323   C     0.10784   0.28270   0.97514   0.00000  Uiso   1.00
C324   C     0.06479   0.31719   0.00346   0.00000  Uiso   1.00
C325   C     0.04886   0.32676   0.09649   0.00000  Uiso   1.00
C326   C     0.00881   0.35943   0.10737   0.00000  Uiso   1.00
C327   C     0.94549   0.40958   0.16342   0.00000  Uiso   1.00
C328   C     0.08568   0.24440   0.90592   0.00000  Uiso   1.00
C329   C     0.08732   0.19277   0.91694   0.00000  Uiso   1.00
C330   C     0.06487   0.16417   0.84569   0.00000  Uiso   1.00
C331   C     0.03401   0.10131   0.75028   0.00000  Uiso   1.00
C332   C     0.14372   0.31460   0.91588   0.00000  Uiso   1.00
C333   C     0.19417   0.32199   0.93525   0.00000  Uiso   1.00
C334   C     0.22058   0.35248   0.87238   0.00000  Uiso   1.00
C335   C     0.27984   0.39862   0.79243   0.00000  Uiso   1.00
C336   C     0.06506   0.32371   0.82901   0.00000  Uiso   1.00
C337   C     0.04156   0.33946   0.92409   0.00000  Uiso   1.00
C338   C     0.00153   0.37213   0.93482   0.00000  Uiso   1.00
C339   C     0.98553   0.38175   0.02785   0.00000  Uiso   1.00
C340   C     0.06245   0.26667   0.82655   0.00000  Uiso   1.00
C341   C     0.03999   0.23814   0.75527   0.00000  Uiso   1.00
C342   C     0.04159   0.18648   0.76618   0.00000  Uiso   1.00
C343   C     0.12049   0.33688   0.83651   0.00000  Uiso   1.00
C344   C     0.14684   0.36736   0.77359   0.00000  Uiso   1.00
C345   C     0.19731   0.37479   0.79286   0.00000  Uiso   1.00
H346   H     0.12593   0.26535   0.03692   0.00000  Uiso   1.00
H347   H     0.06684   0.30951   0.15790   0.00000  Uiso   1.00
H348   H     0.10531   0.17554   0.97836   0.00000  Uiso   1.00
H349   H     0.21214   0.30474   0.99668   0.00000  Uiso   1.00
H350   H     0.99108   0.36828   0.25701   0.00000  Uiso   1.00
H351   H     0.07220   0.08580   0.87844   0.00000  Uiso   1.00
H352   H     0.29746   0.35824   0.91707   0.00000  Uiso   1.00
H353   H     0.04697   0.34105   0.76721   0.00000  Uiso   1.00
H354   H     0.98355   0.38936   0.87339   0.00000  Uiso   1.00
H355   H     0.02202   0.25539   0.69386   0.00000  Uiso   1.00
H356   H     0.12884   0.38459   0.71217   0.00000  Uiso   1.00
H357   H     0.92347   0.43309   0.02610   0.00000  Uiso   1.00
H358   H     0.00460   0.15061   0.64752   0.00000  Uiso   1.00
H359   H     0.22986   0.42305   0.68615   0.00000  Uiso   1.00
O360   O     0.91697   0.43109   0.21626   0.00000  Uiso   1.00
O361   O     0.02341   0.06049   0.71959   0.00000  Uiso   1.00
O362   O     0.31895   0.41792   0.77027   0.00000  Uiso   1.00
N363   N     0.98388   0.37691   0.18810   0.00000  Uiso   1.00
N364   N     0.05971   0.11281   0.83416   0.00000  Uiso   1.00
N365   N     0.27032   0.36750   0.87026   0.00000  Uiso   1.00
N366   N     0.94750   0.41178   0.06384   0.00000  Uiso   1.00
N367   N     0.02334   0.14768   0.70991   0.00000  Uiso   1.00
N368   N     0.23394   0.40238   0.74600   0.00000  Uiso   1.00
C369   C     0.78270   0.39216   0.52486   0.00000  Uiso   1.00
C370   C     0.81719   0.43521   0.49654   0.00000  Uiso   1.00
C371   C     0.82676   0.45114   0.40351   0.00000  Uiso   1.00
C372   C     0.85943   0.49119   0.39263   0.00000  Uiso   1.00
C373   C     0.90958   0.55451   0.33658   0.00000  Uiso   1.00
C374   C     0.74440   0.41432   0.59408   0.00000  Uiso   1.00
C375   C     0.69277   0.41268   0.58306   0.00000  Uiso   1.00
C376   C     0.66417   0.43513   0.65431   0.00000  Uiso   1.00
C377   C     0.60131   0.46599   0.74972   0.00000  Uiso   1.00
C378   C     0.81460   0.35628   0.58412   0.00000  Uiso   1.00
C379   C     0.82199   0.30583   0.56475   0.00000  Uiso   1.00
C380   C     0.85248   0.27942   0.62762   0.00000  Uiso   1.00
C381   C     0.89862   0.22016   0.70757   0.00000  Uiso   1.00
C382   C     0.82371   0.43494   0.67099   0.00000  Uiso   1.00
C383   C     0.83946   0.45844   0.57591   0.00000  Uiso   1.00
C384   C     0.87213   0.49847   0.56518   0.00000  Uiso   1.00
C385   C     0.88175   0.51447   0.47215   0.00000  Uiso   1.00
C386   C     0.76667   0.43755   0.67345   0.00000  Uiso   1.00
C387   C     0.73814   0.46001   0.74473   0.00000  Uiso   1.00
C388   C     0.68648   0.45841   0.73382   0.00000  Uiso   1.00
C389   C     0.83688   0.37951   0.66349   0.00000  Uiso   1.00
C390   C     0.86736   0.35316   0.72641   0.00000  Uiso   1.00
C391   C     0.87479   0.30269   0.70714   0.00000  Uiso   1.00
H392   H     0.76535   0.37407   0.46308   0.00000  Uiso   1.00
H393   H     0.80951   0.43316   0.34210   0.00000  Uiso   1.00
H394   H     0.67554   0.39469   0.52164   0.00000  Uiso   1.00
H395   H     0.80474   0.28786   0.50332   0.00000  Uiso   1.00
H396   H     0.86828   0.50892   0.24299   0.00000  Uiso   1.00
H397   H     0.58580   0.42780   0.62156   0.00000  Uiso   1.00
H398   H     0.85824   0.20254   0.58293   0.00000  Uiso   1.00
H399   H     0.84105   0.45303   0.73279   0.00000  Uiso   1.00
H400   H     0.88936   0.51645   0.62661   0.00000  Uiso   1.00
H401   H     0.75539   0.47798   0.80614   0.00000  Uiso   1.00
H402   H     0.88459   0.37116   0.78783   0.00000  Uiso   1.00
H403   H     0.93309   0.57653   0.47390   0.00000  Uiso   1.00
H404   H     0.65061   0.49540   0.85248   0.00000  Uiso   1.00
H405   H     0.92305   0.27014   0.81385   0.00000  Uiso   1.00
O406   O     0.93109   0.58303   0.28374   0.00000  Uiso   1.00
O407   O     0.56049   0.47659   0.78041   0.00000  Uiso   1.00
O408   O     0.91792   0.18105   0.72973   0.00000  Uiso   1.00
N409   N     0.87691   0.51612   0.31190   0.00000  Uiso   1.00
N410   N     0.61281   0.44029   0.66584   0.00000  Uiso   1.00
N411   N     0.86750   0.22968   0.62974   0.00000  Uiso   1.00
N412   N     0.91178   0.55250   0.43616   0.00000  Uiso   1.00
N413   N     0.64768   0.47666   0.79009   0.00000  Uiso   1.00
N414   N     0.90238   0.26606   0.75400   0.00000  Uiso   1.00
C415   C     0.28270   0.89216   0.02486   0.00000  Uiso   1.00
C416   C     0.31719   0.93521   0.99654   0.00000  Uiso   1.00
C417   C     0.32676   0.95114   0.90351   0.00000  Uiso   1.00
C418   C     0.35943   0.99119   0.89263   0.00000  Uiso   1.00
C419   C     0.40958   0.05451   0.83658   0.00000  Uiso   1.00
C420   C     0.24440   0.91432   0.09408   0.00000  Uiso   1.00
C421   C     0.19277   0.91268   0.08306   0.00000  Uiso   1.00
C422   C     0.16417   0.93513   0.15431   0.00000  Uiso   1.00
C423   C     0.10131   0.96599   0.24972   0.00000  Uiso   1.00
C424   C     0.31460   0.85628   0.08412   0.00000  Uiso   1.00
C425   C     0.32199   0.80583   0.06475   0.00000  Uiso   1.00
C426   C     0.35248   0.77942   0.12762   0.00000  Uiso   1.00
C427   C     0.39862   0.72016   0.20757   0.00000  Uiso   1.00
C428   C     0.32371   0.93494   0.17099   0.00000  Uiso   1.00
C429   C     0.33946   0.95844   0.07591   0.00000  Uiso   1.00
C430   C     0.37213   0.99847   0.06518   0.00000  Uiso   1.00
C431   C     0.38175   0.01447   0.97215   0.00000  Uiso   1.00
C432   C     0.26667   0.93755   0.17345   0.00000  Uiso   1.00
C433   C     0.23814   0.96001   0.24473   0.00000  Uiso   1.00
C434   C     0.18648   0.95841   0.23382   0.00000  Uiso   1.00
C435   C     0.33688   0.87951   0.16349   0.00000  Uiso   1.00
C436   C     0.36736   0.85316   0.22641   0.00000  Uiso   1.00
C437   C     0.37479   0.80269   0.20714   0.00000  Uiso   1.00
H438   H     0.26535   0.87407   0.96308   0.00000  Uiso   1.00
H439   H     0.30951   0.93316   0.84210   0.00000  Uiso   1.00
H440   H     0.17554   0.89469   0.02164   0.00000  Uiso   1.00
H441   H     0.30474   0.78786   0.00332   0.00000  Uiso   1.00
H442   H     0.36828   0.00892   0.74299   0.00000  Uiso   1.00
H443   H     0.08580   0.92780   0.12156   0.00000  Uiso   1.00
H444   H     0.35824   0.70254   0.08293   0.00000  Uiso   1.00
H445   H     0.34105   0.95303   0.23279   0.00000  Uiso   1.00
H446   H     0.38936   0.01645   0.12661   0.00000  Uiso   1.00
H447   H     0.25539   0.97798   0.30614   0.00000  Uiso   1.00
H448   H     0.38459   0.87116   0.28783   0.00000  Uiso   1.00
H449   H     0.43309   0.07653   0.97390   0.00000  Uiso   1.00
H450   H     0.15061   0.99540   0.35248   0.00000  Uiso   1.00
H451   H     0.42305   0.77014   0.31385   0.00000  Uiso   1.00
O452   O     0.43109   0.08303   0.78374   0.00000  Uiso   1.00
O453   O     0.06049   0.97659   0.28041   0.00000  Uiso   1.00
O454   O     0.41792   0.68105   0.22973   0.00000  Uiso   1.00
N455   N     0.37691   0.01612   0.81190   0.00000  Uiso   1.00
N456   N     0.11281   0.94029   0.16584   0.00000  Uiso   1.00
N457   N     0.36750   0.72968   0.12974   0.00000  Uiso   1.00
N458   N     0.41178   0.05250   0.93616   0.00000  Uiso   1.00
N459   N     0.14768   0.97666   0.29009   0.00000  Uiso   1.00
N460   N     0.40238   0.76606   0.25400   0.00000  Uiso   1.00
C461   C     0.71730   0.10784   0.02486   0.00000  Uiso   1.00
C462   C     0.68281   0.06479   0.99654   0.00000  Uiso   1.00
C463   C     0.67324   0.04886   0.90351   0.00000  Uiso   1.00
C464   C     0.64057   0.00881   0.89263   0.00000  Uiso   1.00
C465   C     0.59042   0.94549   0.83658   0.00000  Uiso   1.00
C466   C     0.75560   0.08568   0.09408   0.00000  Uiso   1.00
C467   C     0.80723   0.08732   0.08306   0.00000  Uiso   1.00
C468   C     0.83583   0.06487   0.15431   0.00000  Uiso   1.00
C469   C     0.89869   0.03401   0.24972   0.00000  Uiso   1.00
C470   C     0.68540   0.14372   0.08412   0.00000  Uiso   1.00
C471   C     0.67801   0.19417   0.06475   0.00000  Uiso   1.00
C472   C     0.64752   0.22058   0.12762   0.00000  Uiso   1.00
C473   C     0.60138   0.27984   0.20757   0.00000  Uiso   1.00
C474   C     0.67629   0.06506   0.17099   0.00000  Uiso   1.00
C475   C     0.66054   0.04156   0.07591   0.00000  Uiso   1.00
C476   C     0.62787   0.00153   0.06518   0.00000  Uiso   1.00
C477   C     0.61825   0.98553   0.97215   0.00000  Uiso   1.00
C478   C     0.73333   0.06245   0.17345   0.00000  Uiso   1.00
C479   C     0.76186   0.03999   0.24473   0.00000  Uiso   1.00
C480   C     0.81352   0.04159   0.23382   0.00000  Uiso   1.00
C481   C     0.66312   0.12049   0.16349   0.00000  Uiso   1.00
C482   C     0.63264   0.14684   0.22641   0.00000  Uiso   1.00
C483   C     0.62521   0.19731   0.20714   0.00000  Uiso   1.00
H484   H     0.73465   0.12593   0.96308   0.00000  Uiso   1.00
H485   H     0.69049   0.06684   0.84210   0.00000  Uiso   1.00
H486   H     0.82446   0.10531   0.02164   0.00000  Uiso   1.00
H487   H     0.69526   0.21214   0.00332   0.00000  Uiso   1.00
H488   H     0.63172   0.99108   0.74299   0.00000  Uiso   1.00
H489   H     0.91420   0.07220   0.12156   0.00000  Uiso   1.00
H490   H     0.64176   0.29746   0.08293   0.00000  Uiso   1.00
H491   H     0.65895   0.04697   0.23279   0.00000  Uiso   1.00
H492   H     0.61064   0.98355   0.12661   0.00000  Uiso   1.00
H493   H     0.74461   0.02202   0.30614   0.00000  Uiso   1.00
H494   H     0.61541   0.12884   0.28783   0.00000  Uiso   1.00
H495   H     0.56691   0.92347   0.97390   0.00000  Uiso   1.00
H496   H     0.84939   0.00460   0.35248   0.00000  Uiso   1.00
H497   H     0.57695   0.22986   0.31385   0.00000  Uiso   1.00
O498   O     0.56891   0.91697   0.78374   0.00000  Uiso   1.00
O499   O     0.93951   0.02341   0.28041   0.00000  Uiso   1.00
O500   O     0.58208   0.31895   0.22973   0.00000  Uiso   1.00
N501   N     0.62309   0.98388   0.81190   0.00000  Uiso   1.00
N502   N     0.88719   0.05971   0.16584   0.00000  Uiso   1.00
N503   N     0.63250   0.27032   0.12974   0.00000  Uiso   1.00
N504   N     0.58822   0.94750   0.93616   0.00000  Uiso   1.00
N505   N     0.85232   0.02334   0.29009   0.00000  Uiso   1.00
N506   N     0.59762   0.23394   0.25400   0.00000  Uiso   1.00
C507   C     0.21730   0.60784   0.52486   0.00000  Uiso   1.00
C508   C     0.18281   0.56479   0.49654   0.00000  Uiso   1.00
C509   C     0.17324   0.54886   0.40351   0.00000  Uiso   1.00
C510   C     0.14057   0.50881   0.39263   0.00000  Uiso   1.00
C511   C     0.09042   0.44549   0.33658   0.00000  Uiso   1.00
C512   C     0.25560   0.58568   0.59408   0.00000  Uiso   1.00
C513   C     0.30723   0.58732   0.58306   0.00000  Uiso   1.00
C514   C     0.33583   0.56487   0.65431   0.00000  Uiso   1.00
C515   C     0.39869   0.53401   0.74972   0.00000  Uiso   1.00
C516   C     0.18540   0.64372   0.58412   0.00000  Uiso   1.00
C517   C     0.17801   0.69417   0.56475   0.00000  Uiso   1.00
C518   C     0.14752   0.72058   0.62762   0.00000  Uiso   1.00
C519   C     0.10138   0.77984   0.70757   0.00000  Uiso   1.00
C520   C     0.17629   0.56506   0.67099   0.00000  Uiso   1.00
C521   C     0.16054   0.54156   0.57591   0.00000  Uiso   1.00
C522   C     0.12787   0.50153   0.56518   0.00000  Uiso   1.00
C523   C     0.11825   0.48553   0.47215   0.00000  Uiso   1.00
C524   C     0.23333   0.56245   0.67345   0.00000  Uiso   1.00
C525   C     0.26186   0.53999   0.74473   0.00000  Uiso   1.00
C526   C     0.31352   0.54159   0.73382   0.00000  Uiso   1.00
C527   C     0.16312   0.62049   0.66349   0.00000  Uiso   1.00
C528   C     0.13264   0.64684   0.72641   0.00000  Uiso   1.00
C529   C     0.12521   0.69731   0.70714   0.00000  Uiso   1.00
H530   H     0.23465   0.62593   0.46308   0.00000  Uiso   1.00
H531   H     0.19049   0.56684   0.34210   0.00000  Uiso   1.00
H532   H     0.32446   0.60531   0.52164   0.00000  Uiso   1.00
H533   H     0.19526   0.71214   0.50332   0.00000  Uiso   1.00
H534   H     0.13172   0.49108   0.24299   0.00000  Uiso   1.00
H535   H     0.41420   0.57220   0.62156   0.00000  Uiso   1.00
H536   H     0.14176   0.79746   0.58293   0.00000  Uiso   1.00
H537   H     0.15895   0.54697   0.73279   0.00000  Uiso   1.00
H538   H     0.11064   0.48355   0.62661   0.00000  Uiso   1.00
H539   H     0.24461   0.52202   0.80614   0.00000  Uiso   1.00
H540   H     0.11541   0.62884   0.78783   0.00000  Uiso   1.00
H541   H     0.06691   0.42347   0.47390   0.00000  Uiso   1.00
H542   H     0.34939   0.50460   0.85248   0.00000  Uiso   1.00
H543   H     0.07695   0.72986   0.81385   0.00000  Uiso   1.00
O544   O     0.06891   0.41697   0.28374   0.00000  Uiso   1.00
O545   O     0.43951   0.52341   0.78041   0.00000  Uiso   1.00
O546   O     0.08208   0.81895   0.72973   0.00000  Uiso   1.00
N547   N     0.12309   0.48388   0.31190   0.00000  Uiso   1.00
N548   N     0.38719   0.55971   0.66584   0.00000  Uiso   1.00
N549   N     0.13250   0.77032   0.62974   0.00000  Uiso   1.00
N550   N     0.08822   0.44750   0.43616   0.00000  Uiso   1.00
N551   N     0.35232   0.52334   0.79009   0.00000  Uiso   1.00
N552   N     0.09762   0.73394   0.75400   0.00000  Uiso   1.00
C553   C     0.10784   0.78270   0.27486   0.00000  Uiso   1.00
C554   C     0.06479   0.81719   0.24654   0.00000  Uiso   1.00
C555   C     0.04886   0.82676   0.15351   0.00000  Uiso   1.00
C556   C     0.00881   0.85943   0.14263   0.00000  Uiso   1.00
C557   C     0.94549   0.90958   0.08658   0.00000  Uiso   1.00
C558   C     0.08568   0.74440   0.34408   0.00000  Uiso   1.00
C559   C     0.08732   0.69277   0.33306   0.00000  Uiso   1.00
C560   C     0.06487   0.66417   0.40431   0.00000  Uiso   1.00
C561   C     0.03401   0.60131   0.49972   0.00000  Uiso   1.00
C562   C     0.14372   0.81460   0.33412   0.00000  Uiso   1.00
C563   C     0.19417   0.82199   0.31475   0.00000  Uiso   1.00
C564   C     0.22058   0.85248   0.37762   0.00000  Uiso   1.00
C565   C     0.27984   0.89862   0.45757   0.00000  Uiso   1.00
C566   C     0.06506   0.82371   0.42099   0.00000  Uiso   1.00
C567   C     0.04156   0.83946   0.32591   0.00000  Uiso   1.00
C568   C     0.00153   0.87213   0.31518   0.00000  Uiso   1.00
C569   C     0.98553   0.88175   0.22215   0.00000  Uiso   1.00
C570   C     0.06245   0.76667   0.42345   0.00000  Uiso   1.00
C571   C     0.03999   0.73814   0.49473   0.00000  Uiso   1.00
C572   C     0.04159   0.68648   0.48382   0.00000  Uiso   1.00
C573   C     0.12049   0.83688   0.41349   0.00000  Uiso   1.00
C574   C     0.14684   0.86736   0.47641   0.00000  Uiso   1.00
C575   C     0.19731   0.87479   0.45714   0.00000  Uiso   1.00
H576   H     0.12593   0.76535   0.21308   0.00000  Uiso   1.00
H577   H     0.06684   0.80951   0.09210   0.00000  Uiso   1.00
H578   H     0.10531   0.67554   0.27164   0.00000  Uiso   1.00
H579   H     0.21214   0.80474   0.25332   0.00000  Uiso   1.00
H580   H     0.99108   0.86828   0.99299   0.00000  Uiso   1.00
H581   H     0.07220   0.58580   0.37156   0.00000  Uiso   1.00
H582   H     0.29746   0.85824   0.33293   0.00000  Uiso   1.00
H583   H     0.04697   0.84105   0.48279   0.00000  Uiso   1.00
H584   H     0.98355   0.88936   0.37661   0.00000  Uiso   1.00
H585   H     0.02202   0.75539   0.55614   0.00000  Uiso   1.00
H586   H     0.12884   0.88459   0.53783   0.00000  Uiso   1.00
H587   H     0.92347   0.93309   0.22390   0.00000  Uiso   1.00
H588   H     0.00460   0.65061   0.60248   0.00000  Uiso   1.00
H589   H     0.22986   0.92305   0.56385   0.00000  Uiso   1.00
O590   O     0.91697   0.93109   0.03374   0.00000  Uiso   1.00
O591   O     0.02341   0.56049   0.53041   0.00000  Uiso   1.00
O592   O     0.31895   0.91792   0.47973   0.00000  Uiso   1.00
N593   N     0.98388   0.87691   0.06190   0.00000  Uiso   1.00
N594   N     0.05971   0.61281   0.41584   0.00000  Uiso   1.00
N595   N     0.27032   0.86750   0.37974   0.00000  Uiso   1.00
N596   N     0.94750   0.91178   0.18616   0.00000  Uiso   1.00
N597   N     0.02334   0.64768   0.54009   0.00000  Uiso   1.00
N598   N     0.23394   0.90238   0.50400   0.00000  Uiso   1.00
C599   C     0.60784   0.28270   0.77486   0.00000  Uiso   1.00
C600   C     0.56479   0.31719   0.74654   0.00000  Uiso   1.00
C601   C     0.54886   0.32676   0.65351   0.00000  Uiso   1.00
C602   C     0.50881   0.35943   0.64263   0.00000  Uiso   1.00
C603   C     0.44549   0.40958   0.58658   0.00000  Uiso   1.00
C604   C     0.58568   0.24440   0.84408   0.00000  Uiso   1.00
C605   C     0.58732   0.19277   0.83306   0.00000  Uiso   1.00
C606   C     0.56487   0.16417   0.90431   0.00000  Uiso   1.00
C607   C     0.53401   0.10131   0.99972   0.00000  Uiso   1.00
C608   C     0.64372   0.31460   0.83412   0.00000  Uiso   1.00
C609   C     0.69417   0.32199   0.81475   0.00000  Uiso   1.00
C610   C     0.72058   0.35248   0.87762   0.00000  Uiso   1.00
C611   C     0.77984   0.39862   0.95757   0.00000  Uiso   1.00
C612   C     0.56506   0.32371   0.92099   0.00000  Uiso   1.00
C613   C     0.54156   0.33946   0.82591   0.00000  Uiso   1.00
C614   C     0.50153   0.37213   0.81518   0.00000  Uiso   1.00
C615   C     0.48553   0.38175   0.72215   0.00000  Uiso   1.00
C616   C     0.56245   0.26667   0.92345   0.00000  Uiso   1.00
C617   C     0.53999   0.23814   0.99473   0.00000  Uiso   1.00
C618   C     0.54159   0.18648   0.98382   0.00000  Uiso   1.00
C619   C     0.62049   0.33688   0.91349   0.00000  Uiso   1.00
C620   C     0.64684   0.36736   0.97641   0.00000  Uiso   1.00
C621   C     0.69731   0.37479   0.95714   0.00000  Uiso   1.00
H622   H     0.62593   0.26535   0.71308   0.00000  Uiso   1.00
H623   H     0.56684   0.30951   0.59210   0.00000  Uiso   1.00
H624   H     0.60531   0.17554   0.77164   0.00000  Uiso   1.00
H625   H     0.71214   0.30474   0.75332   0.00000  Uiso   1.00
H626   H     0.49108   0.36828   0.49299   0.00000  Uiso   1.00
H627   H     0.57220   0.08580   0.87156   0.00000  Uiso   1.00
H628   H     0.79746   0.35824   0.83293   0.00000  Uiso   1.00
H629   H     0.54697   0.34105   0.98279   0.00000  Uiso   1.00
H630   H     0.48355   0.38936   0.87661   0.00000  Uiso   1.00
H631   H     0.52202   0.25539   0.05614   0.00000  Uiso   1.00
H632   H     0.62884   0.38459   0.03783   0.00000  Uiso   1.00
H633   H     0.42347   0.43309   0.72390   0.00000  Uiso   1.00
H634   H     0.50460   0.15061   0.10248   0.00000  Uiso   1.00
H635   H     0.72986   0.42305   0.06385   0.00000  Uiso   1.00
O636   O     0.41697   0.43109   0.53374   0.00000  Uiso   1.00
O637   O     0.52341   0.06049   0.03041   0.00000  Uiso   1.00
O638   O     0.81895   0.41792   0.97973   0.00000  Uiso   1.00
N639   N     0.48388   0.37691   0.56190   0.00000  Uiso   1.00
N640   N     0.55971   0.11281   0.91584   0.00000  Uiso   1.00
N641   N     0.77032   0.36750   0.87974   0.00000  Uiso   1.00
N642   N     0.44750   0.41178   0.68616   0.00000  Uiso   1.00
N643   N     0.52334   0.14768   0.04009   0.00000  Uiso   1.00
N644   N     0.73394   0.40238   0.00400   0.00000  Uiso   1.00
C645   C     0.39216   0.71730   0.77486   0.00000  Uiso   1.00
C646   C     0.43521   0.68281   0.74654   0.00000  Uiso   1.00
C647   C     0.45114   0.67324   0.65351   0.00000  Uiso   1.00
C648   C     0.49119   0.64057   0.64263   0.00000  Uiso   1.00
C649   C     0.55451   0.59042   0.58658   0.00000  Uiso   1.00
C650   C     0.41432   0.75560   0.84408   0.00000  Uiso   1.00
C651   C     0.41268   0.80723   0.83306   0.00000  Uiso   1.00
C652   C     0.43513   0.83583   0.90431   0.00000  Uiso   1.00
C653   C     0.46599   0.89869   0.99972   0.00000  Uiso   1.00
C654   C     0.35628   0.68540   0.83412   0.00000  Uiso   1.00
C655   C     0.30583   0.67801   0.81475   0.00000  Uiso   1.00
C656   C     0.27942   0.64752   0.87762   0.00000  Uiso   1.00
C657   C     0.22016   0.60138   0.95757   0.00000  Uiso   1.00
C658   C     0.43494   0.67629   0.92099   0.00000  Uiso   1.00
C659   C     0.45844   0.66054   0.82591   0.00000  Uiso   1.00
C660   C     0.49847   0.62787   0.81518   0.00000  Uiso   1.00
C661   C     0.51447   0.61825   0.72215   0.00000  Uiso   1.00
C662   C     0.43755   0.73333   0.92345   0.00000  Uiso   1.00
C663   C     0.46001   0.76186   0.99473   0.00000  Uiso   1.00
C664   C     0.45841   0.81352   0.98382   0.00000  Uiso   1.00
C665   C     0.37951   0.66312   0.91349   0.00000  Uiso   1.00
C666   C     0.35316   0.63264   0.97641   0.00000  Uiso   1.00
C667   C     0.30269   0.62521   0.95714   0.00000  Uiso   1.00
H668   H     0.37407   0.73465   0.71308   0.00000  Uiso   1.00
H669   H     0.43316   0.69049   0.59210   0.00000  Uiso   1.00
H670   H     0.39469   0.82446   0.77164   0.00000  Uiso   1.00
H671   H     0.28786   0.69526   0.75332   0.00000  Uiso   1.00
H672   H     0.50892   0.63172   0.49299   0.00000  Uiso   1.00
H673   H     0.42780   0.91420   0.87156   0.00000  Uiso   1.00
H674   H     0.20254   0.64176   0.83293   0.00000  Uiso   1.00
H675   H     0.45303   0.65895   0.98279   0.00000  Uiso   1.00
H676   H     0.51645   0.61064   0.87661   0.00000  Uiso   1.00
H677   H     0.47798   0.74461   0.05614   0.00000  Uiso   1.00
H678   H     0.37116   0.61541   0.03783   0.00000  Uiso   1.00
H679   H     0.57653   0.56691   0.72390   0.00000  Uiso   1.00
H680   H     0.49540   0.84939   0.10248   0.00000  Uiso   1.00
H681   H     0.27014   0.57695   0.06385   0.00000  Uiso   1.00
O682   O     0.58303   0.56891   0.53374   0.00000  Uiso   1.00
O683   O     0.47659   0.93951   0.03041   0.00000  Uiso   1.00
O684   O     0.18105   0.58208   0.97973   0.00000  Uiso   1.00
N685   N     0.51612   0.62309   0.56190   0.00000  Uiso   1.00
N686   N     0.44029   0.88719   0.91584   0.00000  Uiso   1.00
N687   N     0.22968   0.63250   0.87974   0.00000  Uiso   1.00
N688   N     0.55250   0.58822   0.68616   0.00000  Uiso   1.00
N689   N     0.47666   0.85232   0.04009   0.00000  Uiso   1.00
N690   N     0.26606   0.59762   0.00400   0.00000  Uiso   1.00
C691   C     0.89216   0.21730   0.27486   0.00000  Uiso   1.00
C692   C     0.93521   0.18281   0.24654   0.00000  Uiso   1.00
C693   C     0.95114   0.17324   0.15351   0.00000  Uiso   1.00
C694   C     0.99119   0.14057   0.14263   0.00000  Uiso   1.00
C695   C     0.05451   0.09042   0.08658   0.00000  Uiso   1.00
C696   C     0.91432   0.25560   0.34408   0.00000  Uiso   1.00
C697   C     0.91268   0.30723   0.33306   0.00000  Uiso   1.00
C698   C     0.93513   0.33583   0.40431   0.00000  Uiso   1.00
C699   C     0.96599   0.39869   0.49972   0.00000  Uiso   1.00
C700   C     0.85628   0.18540   0.33412   0.00000  Uiso   1.00
C701   C     0.80583   0.17801   0.31475   0.00000  Uiso   1.00
C702   C     0.77942   0.14752   0.37762   0.00000  Uiso   1.00
C703   C     0.72016   0.10138   0.45757   0.00000  Uiso   1.00
C704   C     0.93494   0.17629   0.42099   0.00000  Uiso   1.00
C705   C     0.95844   0.16054   0.32591   0.00000  Uiso   1.00
C706   C     0.99847   0.12787   0.31518   0.00000  Uiso   1.00
C707   C     0.01447   0.11825   0.22215   0.00000  Uiso   1.00
C708   C     0.93755   0.23333   0.42345   0.00000  Uiso   1.00
C709   C     0.96001   0.26186   0.49473   0.00000  Uiso   1.00
C710   C     0.95841   0.31352   0.48382   0.00000  Uiso   1.00
C711   C     0.87951   0.16312   0.41349   0.00000  Uiso   1.00
C712   C     0.85316   0.13264   0.47641   0.00000  Uiso   1.00
C713   C     0.80269   0.12521   0.45714   0.00000  Uiso   1.00
H714   H     0.87407   0.23465   0.21308   0.00000  Uiso   1.00
H715   H     0.93316   0.19049   0.09210   0.00000  Uiso   1.00
H716   H     0.89469   0.32446   0.27164   0.00000  Uiso   1.00
H717   H     0.78786   0.19526   0.25332   0.00000  Uiso   1.00
H718   H     0.00892   0.13172   0.99299   0.00000  Uiso   1.00
H719   H     0.92780   0.41420   0.37156   0.00000  Uiso   1.00
H720   H     0.70254   0.14176   0.33293   0.00000  Uiso   1.00
H721   H     0.95303   0.15895   0.48279   0.00000  Uiso   1.00
H722   H     0.01645   0.11064   0.37661   0.00000  Uiso   1.00
H723   H     0.97798   0.24461   0.55614   0.00000  Uiso   1.00
H724   H     0.87116   0.11541   0.53783   0.00000  Uiso   1.00
H725   H     0.07653   0.06691   0.22390   0.00000  Uiso   1.00
H726   H     0.99540   0.34939   0.60248   0.00000  Uiso   1.00
H727   H     0.77014   0.07695   0.56385   0.00000  Uiso   1.00
O728   O     0.08303   0.06891   0.03374   0.00000  Uiso   1.00
O729   O     0.97659   0.43951   0.53041   0.00000  Uiso   1.00
O730   O     0.68105   0.08208   0.47973   0.00000  Uiso   1.00
N731   N     0.01612   0.12309   0.06190   0.00000  Uiso   1.00
N732   N     0.94029   0.38719   0.41584   0.00000  Uiso   1.00
N733   N     0.72968   0.13250   0.37974   0.00000  Uiso   1.00
N734   N     0.05250   0.08822   0.18616   0.00000  Uiso   1.00
N735   N     0.97666   0.35232   0.54009   0.00000  Uiso   1.00
N736   N     0.76606   0.09762   0.50400   0.00000  Uiso   1.00
