data_job_06713
_audit_creation_date              2018-12-19
_audit_creation_method            'Materials Studio'
_symmetry_space_group_name_H-M    'P1'
_symmetry_Int_Tables_number       1
_symmetry_cell_setting            triclinic
loop_
_symmetry_equiv_pos_as_xyz
  x,y,z
_cell_length_a                    25.6019
_cell_length_b                    37.9749
_cell_length_c                    37.7752
_cell_angle_alpha                 90.0000
_cell_angle_beta                  141.6911
_cell_angle_gamma                 90.0000
loop_
_atom_site_label
_atom_site_type_symbol
_atom_site_fract_x
_atom_site_fract_y
_atom_site_fract_z
_atom_site_U_iso_or_equiv
_atom_site_adp_type
_atom_site_occupancy
C1     C     0.30225   0.28343   0.93345   0.00000  Uiso   1.00
C2     C     0.39053   0.27765   0.99524   0.00000  Uiso   1.00
C3     C     0.43016   0.24532   0.02035   0.00000  Uiso   1.00
C4     C     0.51097   0.24561   0.07740   0.00000  Uiso   1.00
C5     C     0.64200   0.23185   0.16867   0.00000  Uiso   1.00
C6     C     0.25388   0.30359   0.93613   0.00000  Uiso   1.00
C7     C     0.17861   0.29306   0.91152   0.00000  Uiso   1.00
C8     C     0.64438   0.81518   0.91880   0.00000  Uiso   1.00
C9     C     0.56323   0.84169   0.91825   0.00000  Uiso   1.00
C10    C     0.31237   0.30879   0.90783   0.00000  Uiso   1.00
C11    C     0.28626   0.30265   0.85943   0.00000  Uiso   1.00
C12    C     0.30126   0.32916   0.84289   0.00000  Uiso   1.00
C13    C     0.31093   0.36376   0.79842   0.00000  Uiso   1.00
C14    C     0.37528   0.34142   0.99013   0.00000  Uiso   1.00
C15    C     0.43020   0.30915   0.02602   0.00000  Uiso   1.00
C16    C     0.51096   0.30949   0.08305   0.00000  Uiso   1.00
C17    C     0.55071   0.27717   0.10824   0.00000  Uiso   1.00
C18    C     0.29355   0.33508   0.96691   0.00000  Uiso   1.00
C19    C     0.75941   0.85723   0.97422   0.00000  Uiso   1.00
C20    C     0.68412   0.84674   0.94964   0.00000  Uiso   1.00
C21    C     0.35204   0.34029   0.93862   0.00000  Uiso   1.00
C22    C     0.36707   0.36682   0.92214   0.00000  Uiso   1.00
C23    C     0.34100   0.36072   0.87373   0.00000  Uiso   1.00
H24    H     0.27136   0.25891   0.90949   0.00000  Uiso   1.00
H25    H     0.39944   0.22095   0.99651   0.00000  Uiso   1.00
H26    H     0.14793   0.26869   0.88770   0.00000  Uiso   1.00
H27    H     0.25557   0.27828   0.83562   0.00000  Uiso   1.00
H28    H     0.55892   0.19276   0.10658   0.00000  Uiso   1.00
H29    H     0.52858   0.79342   0.87712   0.00000  Uiso   1.00
H30    H     0.25556   0.31364   0.76731   0.00000  Uiso   1.00
H31    H     0.40616   0.36595   0.01409   0.00000  Uiso   1.00
H32    H     0.54165   0.33387   0.10686   0.00000  Uiso   1.00
H33    H     0.79013   0.88160   0.99805   0.00000  Uiso   1.00
H34    H     0.39777   0.39119   0.94597   0.00000  Uiso   1.00
H35    H     0.67434   0.28441   0.19615   0.00000  Uiso   1.00
H36    H     0.64399   0.88507   0.96668   0.00000  Uiso   1.00
H37    H     0.37098   0.40529   0.85687   0.00000  Uiso   1.00
O38    O     0.70331   0.21555   0.21051   0.00000  Uiso   1.00
O39    O     0.50751   0.84761   0.90945   0.00000  Uiso   1.00
O40    O     0.30531   0.37414   0.76539   0.00000  Uiso   1.00
N41    N     0.56750   0.21874   0.11492   0.00000  Uiso   1.00
N42    N     0.57166   0.81284   0.90040   0.00000  Uiso   1.00
N43    N     0.28385   0.33175   0.79773   0.00000  Uiso   1.00
N44    N     0.62960   0.26805   0.16312   0.00000  Uiso   1.00
N45    N     0.63377   0.86216   0.94859   0.00000  Uiso   1.00
N46    N     0.34596   0.38106   0.84592   0.00000  Uiso   1.00
C47    C     0.71153   0.03034   0.64780   0.00000  Uiso   1.00
C48    C     0.76359   0.01538   0.64507   0.00000  Uiso   1.00
C49    C     0.77087   0.02999   0.61541   0.00000  Uiso   1.00
C50    C     0.82153   0.01230   0.61823   0.00000  Uiso   1.00
C51    C     0.89598   0.99380   0.60921   0.00000  Uiso   1.00
C52    C     0.15126   0.50109   0.62688   0.00000  Uiso   1.00
C53    C     0.06410   0.50368   0.58192   0.00000  Uiso   1.00
C54    C     0.02021   0.47395   0.56944   0.00000  Uiso   1.00
C55    C     0.92026   0.43328   0.53219   0.00000  Uiso   1.00
C56    C     0.77251   0.03522   0.71103   0.00000  Uiso   1.00
C57    C     0.78727   0.06650   0.73684   0.00000  Uiso   1.00
C58    C     0.84544   0.06551   0.79521   0.00000  Uiso   1.00
C59    C     0.93375   0.07783   0.88862   0.00000  Uiso   1.00
C60    C     0.78856   0.97295   0.70558   0.00000  Uiso   1.00
C61    C     0.80543   0.98421   0.67646   0.00000  Uiso   1.00
C62    C     0.85610   0.96649   0.67933   0.00000  Uiso   1.00
C63    C     0.86345   0.98107   0.64968   0.00000  Uiso   1.00
C64    C     0.19310   0.46992   0.65826   0.00000  Uiso   1.00
C65    C     0.14933   0.44018   0.64585   0.00000  Uiso   1.00
C66    C     0.06212   0.44272   0.60088   0.00000  Uiso   1.00
C67    C     0.81435   0.00405   0.74242   0.00000  Uiso   1.00
C68    C     0.87250   0.00301   0.80076   0.00000  Uiso   1.00
C69    C     0.88736   0.03429   0.82665   0.00000  Uiso   1.00
H70    H     0.67895   0.05461   0.62336   0.00000  Uiso   1.00
H71    H     0.73847   0.05411   0.59112   0.00000  Uiso   1.00
H72    H     0.53174   0.02780   0.55764   0.00000  Uiso   1.00
H73    H     0.75488   0.09062   0.71254   0.00000  Uiso   1.00
H74    H     0.82290   0.03980   0.56919   0.00000  Uiso   1.00
H75    H     0.38699   0.98434   0.49862   0.00000  Uiso   1.00
H76    H     0.35752   0.61680   0.82524   0.00000  Uiso   1.00
H77    H     0.82114   0.94868   0.73001   0.00000  Uiso   1.00
H78    H     0.88847   0.94237   0.70362   0.00000  Uiso   1.00
H79    H     0.18173   0.41607   0.67014   0.00000  Uiso   1.00
H80    H     0.90487   0.97888   0.82504   0.00000  Uiso   1.00
H81    H     0.94464   0.94911   0.66050   0.00000  Uiso   1.00
H82    H     0.00872   0.39365   0.58993   0.00000  Uiso   1.00
H83    H     0.97926   0.02611   0.91655   0.00000  Uiso   1.00
O84    O     0.92547   0.99221   0.59555   0.00000  Uiso   1.00
O85    O     0.35357   0.91945   0.50296   0.00000  Uiso   1.00
O86    O     0.47091   0.59324   0.93148   0.00000  Uiso   1.00
N87    N     0.84232   0.01933   0.59432   0.00000  Uiso   1.00
N88    N     0.43477   0.96747   0.52833   0.00000  Uiso   1.00
N89    N     0.37466   0.59131   0.83369   0.00000  Uiso   1.00
N90    N     0.90783   0.97053   0.64345   0.00000  Uiso   1.00
N91    N     0.00028   0.41867   0.57746   0.00000  Uiso   1.00
N92    N     0.94017   0.04251   0.88282   0.00000  Uiso   1.00
C93    C     0.87729   0.17235   0.04019   0.00000  Uiso   1.00
C94    C     0.44758   0.69891   0.07091   0.00000  Uiso   1.00
C95    C     0.49697   0.71475   0.12298   0.00000  Uiso   1.00
C96    C     0.55795   0.73834   0.14392   0.00000  Uiso   1.00
C97    C     0.66538   0.77847   0.19618   0.00000  Uiso   1.00
C98    C     0.79847   0.18776   0.98116   0.00000  Uiso   1.00
C99    C     0.72250   0.19421   0.95775   0.00000  Uiso   1.00
C100   C     0.65797   0.20840   0.90313   0.00000  Uiso   1.00
C101   C     0.53388   0.23118   0.81602   0.00000  Uiso   1.00
C102   C     0.89983   0.13979   0.03054   0.00000  Uiso   1.00
C103   C     0.90906   0.10590   0.04865   0.00000  Uiso   1.00
C104   C     0.92984   0.07970   0.03560   0.00000  Uiso   1.00
C105   C     0.96314   0.02801   0.02518   0.00000  Uiso   1.00
C106   C     0.39776   0.68608   0.98479   0.00000  Uiso   1.00
C107   C     0.45869   0.70637   0.04082   0.00000  Uiso   1.00
C108   C     0.51962   0.72994   0.06168   0.00000  Uiso   1.00
C109   C     0.56910   0.74581   0.11377   0.00000  Uiso   1.00
C110   C     0.30959   0.69522   0.95106   0.00000  Uiso   1.00
C111   C     0.24515   0.70940   0.89646   0.00000  Uiso   1.00
C112   C     0.66910   0.21587   0.87298   0.00000  Uiso   1.00
C113   C     0.41095   0.64724   0.00045   0.00000  Uiso   1.00
C114   C     0.43171   0.62109   0.98736   0.00000  Uiso   1.00
C115   C     0.94098   0.08718   0.00545   0.00000  Uiso   1.00
H116   H     0.86863   0.16654   0.06362   0.00000  Uiso   1.00
H117   H     0.48834   0.70898   0.14625   0.00000  Uiso   1.00
H118   H     0.71391   0.18843   0.98105   0.00000  Uiso   1.00
H119   H     0.90045   0.10014   0.07194   0.00000  Uiso   1.00
H120   H     0.62595   0.75932   0.22459   0.00000  Uiso   1.00
H121   H     0.54730   0.21599   0.87624   0.00000  Uiso   1.00
H122   H     0.94065   0.02981   0.06790   0.00000  Uiso   1.00
H123   H     0.40641   0.69189   0.96136   0.00000  Uiso   1.00
H124   H     0.52821   0.73571   0.03839   0.00000  Uiso   1.00
H125   H     0.25377   0.71516   0.87318   0.00000  Uiso   1.00
H126   H     0.44031   0.62687   0.96407   0.00000  Uiso   1.00
H127   H     0.65831   0.78101   0.13704   0.00000  Uiso   1.00
H128   H     0.57965   0.23768   0.78869   0.00000  Uiso   1.00
H129   H     0.47300   0.55151   0.98035   0.00000  Uiso   1.00
O130   O     0.72155   0.79854   0.23332   0.00000  Uiso   1.00
O131   O     0.46237   0.24169   0.77630   0.00000  Uiso   1.00
O132   O     0.47844   0.49743   0.02775   0.00000  Uiso   1.00
N133   N     0.61686   0.75840   0.19342   0.00000  Uiso   1.00
N134   N     0.57586   0.21790   0.86774   0.00000  Uiso   1.00
N135   N     0.94358   0.04384   0.04691   0.00000  Uiso   1.00
N136   N     0.63427   0.77008   0.14631   0.00000  Uiso   1.00
N137   N     0.59327   0.22957   0.82063   0.00000  Uiso   1.00
N138   N     0.96099   0.05551   0.99980   0.00000  Uiso   1.00
C139   C     0.80225   0.78343   0.93345   0.00000  Uiso   1.00
C140   C     0.89053   0.77765   0.99524   0.00000  Uiso   1.00
C141   C     0.93016   0.74532   0.02035   0.00000  Uiso   1.00
C142   C     0.01097   0.74561   0.07740   0.00000  Uiso   1.00
C143   C     0.14200   0.73185   0.16867   0.00000  Uiso   1.00
C144   C     0.75388   0.80359   0.93613   0.00000  Uiso   1.00
C145   C     0.67861   0.79306   0.91152   0.00000  Uiso   1.00
C146   C     0.14438   0.31518   0.91880   0.00000  Uiso   1.00
C147   C     0.06323   0.34169   0.91825   0.00000  Uiso   1.00
C148   C     0.81237   0.80879   0.90783   0.00000  Uiso   1.00
C149   C     0.78626   0.80265   0.85943   0.00000  Uiso   1.00
C150   C     0.80126   0.82916   0.84289   0.00000  Uiso   1.00
C151   C     0.81093   0.86376   0.79842   0.00000  Uiso   1.00
C152   C     0.87528   0.84142   0.99013   0.00000  Uiso   1.00
C153   C     0.93020   0.80915   0.02602   0.00000  Uiso   1.00
C154   C     0.01096   0.80949   0.08305   0.00000  Uiso   1.00
C155   C     0.05071   0.77717   0.10824   0.00000  Uiso   1.00
C156   C     0.79355   0.83508   0.96691   0.00000  Uiso   1.00
C157   C     0.25941   0.35723   0.97422   0.00000  Uiso   1.00
C158   C     0.18412   0.34674   0.94964   0.00000  Uiso   1.00
C159   C     0.85204   0.84029   0.93862   0.00000  Uiso   1.00
C160   C     0.86707   0.86682   0.92214   0.00000  Uiso   1.00
C161   C     0.84100   0.86072   0.87373   0.00000  Uiso   1.00
H162   H     0.77136   0.75891   0.90949   0.00000  Uiso   1.00
H163   H     0.89944   0.72095   0.99651   0.00000  Uiso   1.00
H164   H     0.64793   0.76869   0.88770   0.00000  Uiso   1.00
H165   H     0.75557   0.77828   0.83562   0.00000  Uiso   1.00
H166   H     0.05892   0.69276   0.10658   0.00000  Uiso   1.00
H167   H     0.02858   0.29342   0.87712   0.00000  Uiso   1.00
H168   H     0.75556   0.81364   0.76731   0.00000  Uiso   1.00
H169   H     0.90616   0.86595   0.01409   0.00000  Uiso   1.00
H170   H     0.04165   0.83387   0.10686   0.00000  Uiso   1.00
H171   H     0.29013   0.38160   0.99805   0.00000  Uiso   1.00
H172   H     0.89777   0.89119   0.94597   0.00000  Uiso   1.00
H173   H     0.17434   0.78441   0.19615   0.00000  Uiso   1.00
H174   H     0.14399   0.38507   0.96668   0.00000  Uiso   1.00
H175   H     0.87098   0.90529   0.85687   0.00000  Uiso   1.00
O176   O     0.20331   0.71555   0.21051   0.00000  Uiso   1.00
O177   O     0.00751   0.34761   0.90945   0.00000  Uiso   1.00
O178   O     0.80531   0.87414   0.76539   0.00000  Uiso   1.00
N179   N     0.06750   0.71874   0.11492   0.00000  Uiso   1.00
N180   N     0.07166   0.31284   0.90040   0.00000  Uiso   1.00
N181   N     0.78385   0.83175   0.79773   0.00000  Uiso   1.00
N182   N     0.12960   0.76805   0.16312   0.00000  Uiso   1.00
N183   N     0.13377   0.36216   0.94859   0.00000  Uiso   1.00
N184   N     0.84596   0.88106   0.84592   0.00000  Uiso   1.00
C185   C     0.21153   0.53034   0.64780   0.00000  Uiso   1.00
C186   C     0.26359   0.51538   0.64507   0.00000  Uiso   1.00
C187   C     0.27087   0.52999   0.61541   0.00000  Uiso   1.00
C188   C     0.32153   0.51230   0.61823   0.00000  Uiso   1.00
C189   C     0.39598   0.49380   0.60921   0.00000  Uiso   1.00
C190   C     0.65126   0.00109   0.62688   0.00000  Uiso   1.00
C191   C     0.56410   0.00368   0.58192   0.00000  Uiso   1.00
C192   C     0.52021   0.97395   0.56944   0.00000  Uiso   1.00
C193   C     0.42026   0.93328   0.53219   0.00000  Uiso   1.00
C194   C     0.27251   0.53522   0.71103   0.00000  Uiso   1.00
C195   C     0.28727   0.56650   0.73684   0.00000  Uiso   1.00
C196   C     0.34544   0.56551   0.79521   0.00000  Uiso   1.00
C197   C     0.43375   0.57783   0.88862   0.00000  Uiso   1.00
C198   C     0.28856   0.47295   0.70558   0.00000  Uiso   1.00
C199   C     0.30543   0.48421   0.67646   0.00000  Uiso   1.00
C200   C     0.35610   0.46649   0.67933   0.00000  Uiso   1.00
C201   C     0.36345   0.48107   0.64968   0.00000  Uiso   1.00
C202   C     0.69310   0.96992   0.65826   0.00000  Uiso   1.00
C203   C     0.64933   0.94018   0.64585   0.00000  Uiso   1.00
C204   C     0.56212   0.94272   0.60088   0.00000  Uiso   1.00
C205   C     0.31435   0.50405   0.74242   0.00000  Uiso   1.00
C206   C     0.37250   0.50301   0.80076   0.00000  Uiso   1.00
C207   C     0.38736   0.53429   0.82665   0.00000  Uiso   1.00
H208   H     0.17895   0.55461   0.62336   0.00000  Uiso   1.00
H209   H     0.23847   0.55411   0.59112   0.00000  Uiso   1.00
H210   H     0.03174   0.52780   0.55764   0.00000  Uiso   1.00
H211   H     0.25488   0.59062   0.71254   0.00000  Uiso   1.00
H212   H     0.32290   0.53980   0.56919   0.00000  Uiso   1.00
H213   H     0.88699   0.48434   0.49862   0.00000  Uiso   1.00
H214   H     0.85752   0.11680   0.82524   0.00000  Uiso   1.00
H215   H     0.32114   0.44868   0.73001   0.00000  Uiso   1.00
H216   H     0.38847   0.44237   0.70362   0.00000  Uiso   1.00
H217   H     0.68173   0.91607   0.67014   0.00000  Uiso   1.00
H218   H     0.40487   0.47888   0.82504   0.00000  Uiso   1.00
H219   H     0.44464   0.44911   0.66050   0.00000  Uiso   1.00
H220   H     0.50872   0.89365   0.58993   0.00000  Uiso   1.00
H221   H     0.47926   0.52611   0.91655   0.00000  Uiso   1.00
O222   O     0.42547   0.49221   0.59555   0.00000  Uiso   1.00
O223   O     0.85357   0.41945   0.50296   0.00000  Uiso   1.00
O224   O     0.97091   0.09324   0.93148   0.00000  Uiso   1.00
N225   N     0.34232   0.51933   0.59432   0.00000  Uiso   1.00
N226   N     0.93477   0.46747   0.52833   0.00000  Uiso   1.00
N227   N     0.87466   0.09131   0.83369   0.00000  Uiso   1.00
N228   N     0.40783   0.47053   0.64345   0.00000  Uiso   1.00
N229   N     0.50028   0.91867   0.57746   0.00000  Uiso   1.00
N230   N     0.44017   0.54251   0.88282   0.00000  Uiso   1.00
C231   C     0.37729   0.67235   0.04019   0.00000  Uiso   1.00
C232   C     0.94758   0.19891   0.07091   0.00000  Uiso   1.00
C233   C     0.99697   0.21475   0.12298   0.00000  Uiso   1.00
C234   C     0.05795   0.23834   0.14392   0.00000  Uiso   1.00
C235   C     0.16538   0.27847   0.19618   0.00000  Uiso   1.00
C236   C     0.29847   0.68776   0.98116   0.00000  Uiso   1.00
C237   C     0.22250   0.69421   0.95775   0.00000  Uiso   1.00
C238   C     0.15797   0.70840   0.90313   0.00000  Uiso   1.00
C239   C     0.03388   0.73118   0.81602   0.00000  Uiso   1.00
C240   C     0.39983   0.63979   0.03054   0.00000  Uiso   1.00
C241   C     0.40906   0.60590   0.04865   0.00000  Uiso   1.00
C242   C     0.42984   0.57970   0.03560   0.00000  Uiso   1.00
C243   C     0.46314   0.52801   0.02518   0.00000  Uiso   1.00
C244   C     0.89776   0.18608   0.98479   0.00000  Uiso   1.00
C245   C     0.95869   0.20637   0.04082   0.00000  Uiso   1.00
C246   C     0.01962   0.22994   0.06168   0.00000  Uiso   1.00
C247   C     0.06910   0.24581   0.11377   0.00000  Uiso   1.00
C248   C     0.80959   0.19522   0.95106   0.00000  Uiso   1.00
C249   C     0.74515   0.20940   0.89646   0.00000  Uiso   1.00
C250   C     0.16910   0.71587   0.87298   0.00000  Uiso   1.00
C251   C     0.91095   0.14724   0.00045   0.00000  Uiso   1.00
C252   C     0.93171   0.12109   0.98736   0.00000  Uiso   1.00
C253   C     0.44098   0.58718   0.00545   0.00000  Uiso   1.00
H254   H     0.36863   0.66654   0.06362   0.00000  Uiso   1.00
H255   H     0.98834   0.20898   0.14625   0.00000  Uiso   1.00
H256   H     0.21391   0.68843   0.98105   0.00000  Uiso   1.00
H257   H     0.40045   0.60014   0.07194   0.00000  Uiso   1.00
H258   H     0.12595   0.25932   0.22459   0.00000  Uiso   1.00
H259   H     0.04730   0.71599   0.87624   0.00000  Uiso   1.00
H260   H     0.44065   0.52981   0.06790   0.00000  Uiso   1.00
H261   H     0.90641   0.19189   0.96136   0.00000  Uiso   1.00
H262   H     0.02821   0.23571   0.03839   0.00000  Uiso   1.00
H263   H     0.75377   0.21516   0.87318   0.00000  Uiso   1.00
H264   H     0.94031   0.12687   0.96407   0.00000  Uiso   1.00
H265   H     0.15831   0.28101   0.13704   0.00000  Uiso   1.00
H266   H     0.07965   0.73768   0.78869   0.00000  Uiso   1.00
H267   H     0.97300   0.05151   0.98035   0.00000  Uiso   1.00
O268   O     0.22155   0.29854   0.23332   0.00000  Uiso   1.00
O269   O     0.96237   0.74169   0.77630   0.00000  Uiso   1.00
O270   O     0.97844   0.99743   0.02775   0.00000  Uiso   1.00
N271   N     0.11686   0.25840   0.19342   0.00000  Uiso   1.00
N272   N     0.07586   0.71790   0.86774   0.00000  Uiso   1.00
N273   N     0.44358   0.54384   0.04691   0.00000  Uiso   1.00
N274   N     0.13427   0.27008   0.14631   0.00000  Uiso   1.00
N275   N     0.09327   0.72957   0.82063   0.00000  Uiso   1.00
N276   N     0.46099   0.55551   0.99980   0.00000  Uiso   1.00
C277   C     0.69775   0.28343   0.56655   0.00000  Uiso   1.00
C278   C     0.60947   0.27765   0.50476   0.00000  Uiso   1.00
C279   C     0.56984   0.24532   0.47965   0.00000  Uiso   1.00
C280   C     0.48903   0.24561   0.42260   0.00000  Uiso   1.00
C281   C     0.35800   0.23185   0.33133   0.00000  Uiso   1.00
C282   C     0.74612   0.30359   0.56387   0.00000  Uiso   1.00
C283   C     0.82139   0.29306   0.58848   0.00000  Uiso   1.00
C284   C     0.35562   0.81518   0.58120   0.00000  Uiso   1.00
C285   C     0.43677   0.84169   0.58175   0.00000  Uiso   1.00
C286   C     0.68763   0.30879   0.59217   0.00000  Uiso   1.00
C287   C     0.71374   0.30265   0.64057   0.00000  Uiso   1.00
C288   C     0.69874   0.32916   0.65711   0.00000  Uiso   1.00
C289   C     0.68907   0.36376   0.70158   0.00000  Uiso   1.00
C290   C     0.62472   0.34142   0.50987   0.00000  Uiso   1.00
C291   C     0.56980   0.30915   0.47398   0.00000  Uiso   1.00
C292   C     0.48904   0.30949   0.41695   0.00000  Uiso   1.00
C293   C     0.44929   0.27717   0.39176   0.00000  Uiso   1.00
C294   C     0.70645   0.33508   0.53309   0.00000  Uiso   1.00
C295   C     0.24059   0.85723   0.52578   0.00000  Uiso   1.00
C296   C     0.31588   0.84674   0.55036   0.00000  Uiso   1.00
C297   C     0.64796   0.34029   0.56138   0.00000  Uiso   1.00
C298   C     0.63293   0.36682   0.57786   0.00000  Uiso   1.00
C299   C     0.65900   0.36072   0.62627   0.00000  Uiso   1.00
H300   H     0.72864   0.25891   0.59051   0.00000  Uiso   1.00
H301   H     0.60056   0.22095   0.50349   0.00000  Uiso   1.00
H302   H     0.85207   0.26869   0.61230   0.00000  Uiso   1.00
H303   H     0.74443   0.27828   0.66438   0.00000  Uiso   1.00
H304   H     0.44108   0.19276   0.39342   0.00000  Uiso   1.00
H305   H     0.47142   0.79342   0.62288   0.00000  Uiso   1.00
H306   H     0.74444   0.31364   0.73269   0.00000  Uiso   1.00
H307   H     0.59384   0.36595   0.48591   0.00000  Uiso   1.00
H308   H     0.45835   0.33387   0.39314   0.00000  Uiso   1.00
H309   H     0.20987   0.88160   0.50195   0.00000  Uiso   1.00
H310   H     0.60223   0.39119   0.55403   0.00000  Uiso   1.00
H311   H     0.32566   0.28441   0.30385   0.00000  Uiso   1.00
H312   H     0.35601   0.88507   0.53332   0.00000  Uiso   1.00
H313   H     0.62902   0.40529   0.64313   0.00000  Uiso   1.00
O314   O     0.29669   0.21555   0.28949   0.00000  Uiso   1.00
O315   O     0.49249   0.84761   0.59055   0.00000  Uiso   1.00
O316   O     0.69469   0.37414   0.73461   0.00000  Uiso   1.00
N317   N     0.43250   0.21874   0.38508   0.00000  Uiso   1.00
N318   N     0.42834   0.81284   0.59960   0.00000  Uiso   1.00
N319   N     0.71615   0.33175   0.70227   0.00000  Uiso   1.00
N320   N     0.37040   0.26805   0.33688   0.00000  Uiso   1.00
N321   N     0.36623   0.86216   0.55141   0.00000  Uiso   1.00
N322   N     0.65404   0.38106   0.65408   0.00000  Uiso   1.00
C323   C     0.28847   0.03034   0.85220   0.00000  Uiso   1.00
C324   C     0.23641   0.01538   0.85493   0.00000  Uiso   1.00
C325   C     0.22913   0.02999   0.88459   0.00000  Uiso   1.00
C326   C     0.17847   0.01230   0.88177   0.00000  Uiso   1.00
C327   C     0.10402   0.99380   0.89079   0.00000  Uiso   1.00
C328   C     0.84874   0.50109   0.87312   0.00000  Uiso   1.00
C329   C     0.93590   0.50368   0.91808   0.00000  Uiso   1.00
C330   C     0.97979   0.47395   0.93056   0.00000  Uiso   1.00
C331   C     0.07974   0.43328   0.96781   0.00000  Uiso   1.00
C332   C     0.22749   0.03522   0.78897   0.00000  Uiso   1.00
C333   C     0.21273   0.06650   0.76316   0.00000  Uiso   1.00
C334   C     0.15456   0.06551   0.70479   0.00000  Uiso   1.00
C335   C     0.06625   0.07783   0.61138   0.00000  Uiso   1.00
C336   C     0.21144   0.97295   0.79442   0.00000  Uiso   1.00
C337   C     0.19457   0.98421   0.82354   0.00000  Uiso   1.00
C338   C     0.14390   0.96649   0.82067   0.00000  Uiso   1.00
C339   C     0.13655   0.98107   0.85032   0.00000  Uiso   1.00
C340   C     0.80690   0.46992   0.84174   0.00000  Uiso   1.00
C341   C     0.85067   0.44018   0.85415   0.00000  Uiso   1.00
C342   C     0.93788   0.44272   0.89912   0.00000  Uiso   1.00
C343   C     0.18565   0.00405   0.75758   0.00000  Uiso   1.00
C344   C     0.12750   0.00301   0.69924   0.00000  Uiso   1.00
C345   C     0.11264   0.03429   0.67335   0.00000  Uiso   1.00
H346   H     0.32105   0.05461   0.87664   0.00000  Uiso   1.00
H347   H     0.26153   0.05411   0.90888   0.00000  Uiso   1.00
H348   H     0.46826   0.02780   0.94236   0.00000  Uiso   1.00
H349   H     0.24512   0.09062   0.78746   0.00000  Uiso   1.00
H350   H     0.17710   0.03980   0.93081   0.00000  Uiso   1.00
H351   H     0.61301   0.98434   0.00138   0.00000  Uiso   1.00
H352   H     0.64248   0.61680   0.67476   0.00000  Uiso   1.00
H353   H     0.17886   0.94868   0.76999   0.00000  Uiso   1.00
H354   H     0.11153   0.94237   0.79638   0.00000  Uiso   1.00
H355   H     0.81827   0.41607   0.82986   0.00000  Uiso   1.00
H356   H     0.09513   0.97888   0.67496   0.00000  Uiso   1.00
H357   H     0.05536   0.94911   0.83950   0.00000  Uiso   1.00
H358   H     0.99128   0.39365   0.91007   0.00000  Uiso   1.00
H359   H     0.02074   0.02611   0.58345   0.00000  Uiso   1.00
O360   O     0.07453   0.99221   0.90445   0.00000  Uiso   1.00
O361   O     0.64643   0.91945   0.99704   0.00000  Uiso   1.00
O362   O     0.52909   0.59324   0.56852   0.00000  Uiso   1.00
N363   N     0.15768   0.01933   0.90568   0.00000  Uiso   1.00
N364   N     0.56523   0.96747   0.97167   0.00000  Uiso   1.00
N365   N     0.62534   0.59131   0.66631   0.00000  Uiso   1.00
N366   N     0.09217   0.97053   0.85655   0.00000  Uiso   1.00
N367   N     0.99972   0.41867   0.92254   0.00000  Uiso   1.00
N368   N     0.05983   0.04251   0.61718   0.00000  Uiso   1.00
C369   C     0.12271   0.17235   0.45981   0.00000  Uiso   1.00
C370   C     0.55242   0.69891   0.42909   0.00000  Uiso   1.00
C371   C     0.50303   0.71475   0.37702   0.00000  Uiso   1.00
C372   C     0.44205   0.73834   0.35608   0.00000  Uiso   1.00
C373   C     0.33462   0.77847   0.30382   0.00000  Uiso   1.00
C374   C     0.20153   0.18776   0.51884   0.00000  Uiso   1.00
C375   C     0.27750   0.19421   0.54225   0.00000  Uiso   1.00
C376   C     0.34203   0.20840   0.59687   0.00000  Uiso   1.00
C377   C     0.46612   0.23118   0.68398   0.00000  Uiso   1.00
C378   C     0.10017   0.13979   0.46946   0.00000  Uiso   1.00
C379   C     0.09094   0.10590   0.45135   0.00000  Uiso   1.00
C380   C     0.07016   0.07970   0.46440   0.00000  Uiso   1.00
C381   C     0.03686   0.02801   0.47482   0.00000  Uiso   1.00
C382   C     0.60224   0.68608   0.51521   0.00000  Uiso   1.00
C383   C     0.54131   0.70637   0.45918   0.00000  Uiso   1.00
C384   C     0.48038   0.72994   0.43832   0.00000  Uiso   1.00
C385   C     0.43090   0.74581   0.38623   0.00000  Uiso   1.00
C386   C     0.69041   0.69522   0.54894   0.00000  Uiso   1.00
C387   C     0.75485   0.70940   0.60354   0.00000  Uiso   1.00
C388   C     0.33090   0.21587   0.62702   0.00000  Uiso   1.00
C389   C     0.58905   0.64724   0.49955   0.00000  Uiso   1.00
C390   C     0.56829   0.62109   0.51264   0.00000  Uiso   1.00
C391   C     0.05902   0.08718   0.49455   0.00000  Uiso   1.00
H392   H     0.13137   0.16654   0.43638   0.00000  Uiso   1.00
H393   H     0.51166   0.70898   0.35375   0.00000  Uiso   1.00
H394   H     0.28609   0.18843   0.51895   0.00000  Uiso   1.00
H395   H     0.09955   0.10014   0.42806   0.00000  Uiso   1.00
H396   H     0.37405   0.75932   0.27541   0.00000  Uiso   1.00
H397   H     0.45270   0.21599   0.62376   0.00000  Uiso   1.00
H398   H     0.05935   0.02981   0.43210   0.00000  Uiso   1.00
H399   H     0.59359   0.69189   0.53864   0.00000  Uiso   1.00
H400   H     0.47179   0.73571   0.46161   0.00000  Uiso   1.00
H401   H     0.74623   0.71516   0.62682   0.00000  Uiso   1.00
H402   H     0.55969   0.62687   0.53593   0.00000  Uiso   1.00
H403   H     0.34169   0.78101   0.36296   0.00000  Uiso   1.00
H404   H     0.42035   0.23768   0.71131   0.00000  Uiso   1.00
H405   H     0.52700   0.55151   0.51965   0.00000  Uiso   1.00
O406   O     0.27845   0.79854   0.26668   0.00000  Uiso   1.00
O407   O     0.53763   0.24169   0.72370   0.00000  Uiso   1.00
O408   O     0.52156   0.49743   0.47225   0.00000  Uiso   1.00
N409   N     0.38314   0.75840   0.30658   0.00000  Uiso   1.00
N410   N     0.42414   0.21790   0.63226   0.00000  Uiso   1.00
N411   N     0.05642   0.04384   0.45309   0.00000  Uiso   1.00
N412   N     0.36573   0.77008   0.35369   0.00000  Uiso   1.00
N413   N     0.40673   0.22957   0.67937   0.00000  Uiso   1.00
N414   N     0.03901   0.05551   0.50020   0.00000  Uiso   1.00
C415   C     0.19775   0.78343   0.56655   0.00000  Uiso   1.00
C416   C     0.10947   0.77765   0.50476   0.00000  Uiso   1.00
C417   C     0.06984   0.74532   0.47965   0.00000  Uiso   1.00
C418   C     0.98903   0.74561   0.42260   0.00000  Uiso   1.00
C419   C     0.85800   0.73185   0.33133   0.00000  Uiso   1.00
C420   C     0.24612   0.80359   0.56387   0.00000  Uiso   1.00
C421   C     0.32139   0.79306   0.58848   0.00000  Uiso   1.00
C422   C     0.85562   0.31518   0.58120   0.00000  Uiso   1.00
C423   C     0.93677   0.34169   0.58175   0.00000  Uiso   1.00
C424   C     0.18763   0.80879   0.59217   0.00000  Uiso   1.00
C425   C     0.21374   0.80265   0.64057   0.00000  Uiso   1.00
C426   C     0.19874   0.82916   0.65711   0.00000  Uiso   1.00
C427   C     0.18907   0.86376   0.70158   0.00000  Uiso   1.00
C428   C     0.12472   0.84142   0.50987   0.00000  Uiso   1.00
C429   C     0.06980   0.80915   0.47398   0.00000  Uiso   1.00
C430   C     0.98904   0.80949   0.41695   0.00000  Uiso   1.00
C431   C     0.94929   0.77717   0.39176   0.00000  Uiso   1.00
C432   C     0.20645   0.83508   0.53309   0.00000  Uiso   1.00
C433   C     0.74059   0.35723   0.52578   0.00000  Uiso   1.00
C434   C     0.81588   0.34674   0.55036   0.00000  Uiso   1.00
C435   C     0.14796   0.84029   0.56138   0.00000  Uiso   1.00
C436   C     0.13293   0.86682   0.57786   0.00000  Uiso   1.00
C437   C     0.15900   0.86072   0.62627   0.00000  Uiso   1.00
H438   H     0.22864   0.75891   0.59051   0.00000  Uiso   1.00
H439   H     0.10056   0.72095   0.50349   0.00000  Uiso   1.00
H440   H     0.35207   0.76869   0.61230   0.00000  Uiso   1.00
H441   H     0.24443   0.77828   0.66438   0.00000  Uiso   1.00
H442   H     0.94108   0.69276   0.39342   0.00000  Uiso   1.00
H443   H     0.97142   0.29342   0.62288   0.00000  Uiso   1.00
H444   H     0.24444   0.81364   0.73269   0.00000  Uiso   1.00
H445   H     0.09384   0.86595   0.48591   0.00000  Uiso   1.00
H446   H     0.95835   0.83387   0.39314   0.00000  Uiso   1.00
H447   H     0.70987   0.38160   0.50195   0.00000  Uiso   1.00
H448   H     0.10223   0.89119   0.55403   0.00000  Uiso   1.00
H449   H     0.82566   0.78441   0.30385   0.00000  Uiso   1.00
H450   H     0.85601   0.38507   0.53332   0.00000  Uiso   1.00
H451   H     0.12902   0.90529   0.64313   0.00000  Uiso   1.00
O452   O     0.79669   0.71555   0.28949   0.00000  Uiso   1.00
O453   O     0.99249   0.34761   0.59055   0.00000  Uiso   1.00
O454   O     0.19469   0.87414   0.73461   0.00000  Uiso   1.00
N455   N     0.93250   0.71874   0.38508   0.00000  Uiso   1.00
N456   N     0.92834   0.31284   0.59960   0.00000  Uiso   1.00
N457   N     0.21615   0.83175   0.70227   0.00000  Uiso   1.00
N458   N     0.87040   0.76805   0.33688   0.00000  Uiso   1.00
N459   N     0.86623   0.36216   0.55141   0.00000  Uiso   1.00
N460   N     0.15404   0.88106   0.65408   0.00000  Uiso   1.00
C461   C     0.78847   0.53034   0.85220   0.00000  Uiso   1.00
C462   C     0.73641   0.51538   0.85493   0.00000  Uiso   1.00
C463   C     0.72913   0.52999   0.88459   0.00000  Uiso   1.00
C464   C     0.67847   0.51230   0.88177   0.00000  Uiso   1.00
C465   C     0.60402   0.49380   0.89079   0.00000  Uiso   1.00
C466   C     0.34874   0.00109   0.87312   0.00000  Uiso   1.00
C467   C     0.43590   0.00368   0.91808   0.00000  Uiso   1.00
C468   C     0.47979   0.97395   0.93056   0.00000  Uiso   1.00
C469   C     0.57974   0.93328   0.96781   0.00000  Uiso   1.00
C470   C     0.72749   0.53522   0.78897   0.00000  Uiso   1.00
C471   C     0.71273   0.56650   0.76316   0.00000  Uiso   1.00
C472   C     0.65456   0.56551   0.70479   0.00000  Uiso   1.00
C473   C     0.56625   0.57783   0.61138   0.00000  Uiso   1.00
C474   C     0.71144   0.47295   0.79442   0.00000  Uiso   1.00
C475   C     0.69457   0.48421   0.82354   0.00000  Uiso   1.00
C476   C     0.64390   0.46649   0.82067   0.00000  Uiso   1.00
C477   C     0.63655   0.48107   0.85032   0.00000  Uiso   1.00
C478   C     0.30690   0.96992   0.84174   0.00000  Uiso   1.00
C479   C     0.35067   0.94018   0.85415   0.00000  Uiso   1.00
C480   C     0.43788   0.94272   0.89912   0.00000  Uiso   1.00
C481   C     0.68565   0.50405   0.75758   0.00000  Uiso   1.00
C482   C     0.62750   0.50301   0.69924   0.00000  Uiso   1.00
C483   C     0.61264   0.53429   0.67335   0.00000  Uiso   1.00
H484   H     0.82105   0.55461   0.87664   0.00000  Uiso   1.00
H485   H     0.76153   0.55411   0.90888   0.00000  Uiso   1.00
H486   H     0.96826   0.52780   0.94236   0.00000  Uiso   1.00
H487   H     0.74512   0.59062   0.78746   0.00000  Uiso   1.00
H488   H     0.67710   0.53980   0.93081   0.00000  Uiso   1.00
H489   H     0.11301   0.48434   0.00138   0.00000  Uiso   1.00
H490   H     0.14248   0.11680   0.67476   0.00000  Uiso   1.00
H491   H     0.67886   0.44868   0.76999   0.00000  Uiso   1.00
H492   H     0.61153   0.44237   0.79638   0.00000  Uiso   1.00
H493   H     0.31827   0.91607   0.82986   0.00000  Uiso   1.00
H494   H     0.59513   0.47888   0.67496   0.00000  Uiso   1.00
H495   H     0.55536   0.44911   0.83950   0.00000  Uiso   1.00
H496   H     0.49128   0.89365   0.91007   0.00000  Uiso   1.00
H497   H     0.52074   0.52611   0.58345   0.00000  Uiso   1.00
O498   O     0.57453   0.49221   0.90445   0.00000  Uiso   1.00
O499   O     0.14643   0.41945   0.99704   0.00000  Uiso   1.00
O500   O     0.02909   0.09324   0.56852   0.00000  Uiso   1.00
N501   N     0.65768   0.51933   0.90568   0.00000  Uiso   1.00
N502   N     0.06523   0.46747   0.97167   0.00000  Uiso   1.00
N503   N     0.12534   0.09131   0.66631   0.00000  Uiso   1.00
N504   N     0.59217   0.47053   0.85655   0.00000  Uiso   1.00
N505   N     0.49972   0.91867   0.92254   0.00000  Uiso   1.00
N506   N     0.55983   0.54251   0.61718   0.00000  Uiso   1.00
C507   C     0.62271   0.67235   0.45981   0.00000  Uiso   1.00
C508   C     0.05242   0.19891   0.42909   0.00000  Uiso   1.00
C509   C     0.00303   0.21475   0.37702   0.00000  Uiso   1.00
C510   C     0.94205   0.23834   0.35608   0.00000  Uiso   1.00
C511   C     0.83462   0.27847   0.30382   0.00000  Uiso   1.00
C512   C     0.70153   0.68776   0.51884   0.00000  Uiso   1.00
C513   C     0.77750   0.69421   0.54225   0.00000  Uiso   1.00
C514   C     0.84203   0.70840   0.59687   0.00000  Uiso   1.00
C515   C     0.96612   0.73118   0.68398   0.00000  Uiso   1.00
C516   C     0.60017   0.63979   0.46946   0.00000  Uiso   1.00
C517   C     0.59094   0.60590   0.45135   0.00000  Uiso   1.00
C518   C     0.57016   0.57970   0.46440   0.00000  Uiso   1.00
C519   C     0.53686   0.52801   0.47482   0.00000  Uiso   1.00
C520   C     0.10224   0.18608   0.51521   0.00000  Uiso   1.00
C521   C     0.04131   0.20637   0.45918   0.00000  Uiso   1.00
C522   C     0.98038   0.22994   0.43832   0.00000  Uiso   1.00
C523   C     0.93090   0.24581   0.38623   0.00000  Uiso   1.00
C524   C     0.19041   0.19522   0.54894   0.00000  Uiso   1.00
C525   C     0.25485   0.20940   0.60354   0.00000  Uiso   1.00
C526   C     0.83090   0.71587   0.62702   0.00000  Uiso   1.00
C527   C     0.08905   0.14724   0.49955   0.00000  Uiso   1.00
C528   C     0.06829   0.12109   0.51264   0.00000  Uiso   1.00
C529   C     0.55902   0.58718   0.49455   0.00000  Uiso   1.00
H530   H     0.63137   0.66654   0.43638   0.00000  Uiso   1.00
H531   H     0.01166   0.20898   0.35375   0.00000  Uiso   1.00
H532   H     0.78609   0.68843   0.51895   0.00000  Uiso   1.00
H533   H     0.59955   0.60014   0.42806   0.00000  Uiso   1.00
H534   H     0.87405   0.25932   0.27541   0.00000  Uiso   1.00
H535   H     0.95270   0.71599   0.62376   0.00000  Uiso   1.00
H536   H     0.55935   0.52981   0.43210   0.00000  Uiso   1.00
H537   H     0.09359   0.19189   0.53864   0.00000  Uiso   1.00
H538   H     0.97179   0.23571   0.46161   0.00000  Uiso   1.00
H539   H     0.24623   0.21516   0.62682   0.00000  Uiso   1.00
H540   H     0.05969   0.12687   0.53593   0.00000  Uiso   1.00
H541   H     0.84169   0.28101   0.36296   0.00000  Uiso   1.00
H542   H     0.92035   0.73768   0.71131   0.00000  Uiso   1.00
H543   H     0.02700   0.05151   0.51965   0.00000  Uiso   1.00
O544   O     0.77845   0.29854   0.26668   0.00000  Uiso   1.00
O545   O     0.03763   0.74169   0.72370   0.00000  Uiso   1.00
O546   O     0.02156   0.99743   0.47225   0.00000  Uiso   1.00
N547   N     0.88314   0.25840   0.30658   0.00000  Uiso   1.00
N548   N     0.92414   0.71790   0.63226   0.00000  Uiso   1.00
N549   N     0.55642   0.54384   0.45309   0.00000  Uiso   1.00
N550   N     0.86573   0.27008   0.35369   0.00000  Uiso   1.00
N551   N     0.90673   0.72957   0.67937   0.00000  Uiso   1.00
N552   N     0.53901   0.55551   0.50020   0.00000  Uiso   1.00
C553   C     0.69775   0.71657   0.06655   0.00000  Uiso   1.00
C554   C     0.60947   0.72235   0.00476   0.00000  Uiso   1.00
C555   C     0.56984   0.75468   0.97965   0.00000  Uiso   1.00
C556   C     0.48903   0.75439   0.92260   0.00000  Uiso   1.00
C557   C     0.35800   0.76815   0.83133   0.00000  Uiso   1.00
C558   C     0.74612   0.69641   0.06387   0.00000  Uiso   1.00
C559   C     0.82139   0.70694   0.08848   0.00000  Uiso   1.00
C560   C     0.35562   0.18482   0.08120   0.00000  Uiso   1.00
C561   C     0.43677   0.15831   0.08175   0.00000  Uiso   1.00
C562   C     0.68763   0.69121   0.09217   0.00000  Uiso   1.00
C563   C     0.71374   0.69735   0.14057   0.00000  Uiso   1.00
C564   C     0.69874   0.67084   0.15711   0.00000  Uiso   1.00
C565   C     0.68907   0.63624   0.20158   0.00000  Uiso   1.00
C566   C     0.62472   0.65858   0.00987   0.00000  Uiso   1.00
C567   C     0.56980   0.69085   0.97398   0.00000  Uiso   1.00
C568   C     0.48904   0.69051   0.91695   0.00000  Uiso   1.00
C569   C     0.44929   0.72283   0.89176   0.00000  Uiso   1.00
C570   C     0.70645   0.66492   0.03309   0.00000  Uiso   1.00
C571   C     0.24059   0.14277   0.02578   0.00000  Uiso   1.00
C572   C     0.31588   0.15326   0.05036   0.00000  Uiso   1.00
C573   C     0.64796   0.65971   0.06138   0.00000  Uiso   1.00
C574   C     0.63293   0.63318   0.07786   0.00000  Uiso   1.00
C575   C     0.65900   0.63928   0.12627   0.00000  Uiso   1.00
H576   H     0.72864   0.74109   0.09051   0.00000  Uiso   1.00
H577   H     0.60056   0.77905   0.00349   0.00000  Uiso   1.00
H578   H     0.85207   0.73131   0.11230   0.00000  Uiso   1.00
H579   H     0.74443   0.72172   0.16438   0.00000  Uiso   1.00
H580   H     0.44108   0.80724   0.89342   0.00000  Uiso   1.00
H581   H     0.47142   0.20658   0.12288   0.00000  Uiso   1.00
H582   H     0.74444   0.68636   0.23269   0.00000  Uiso   1.00
H583   H     0.59384   0.63405   0.98591   0.00000  Uiso   1.00
H584   H     0.45835   0.66613   0.89314   0.00000  Uiso   1.00
H585   H     0.20987   0.11840   0.00195   0.00000  Uiso   1.00
H586   H     0.60223   0.60881   0.05403   0.00000  Uiso   1.00
H587   H     0.32566   0.71559   0.80385   0.00000  Uiso   1.00
H588   H     0.35601   0.11493   0.03332   0.00000  Uiso   1.00
H589   H     0.62902   0.59471   0.14313   0.00000  Uiso   1.00
O590   O     0.29669   0.78445   0.78949   0.00000  Uiso   1.00
O591   O     0.49249   0.15239   0.09055   0.00000  Uiso   1.00
O592   O     0.69469   0.62586   0.23461   0.00000  Uiso   1.00
N593   N     0.43250   0.78126   0.88508   0.00000  Uiso   1.00
N594   N     0.42834   0.18716   0.09960   0.00000  Uiso   1.00
N595   N     0.71615   0.66825   0.20227   0.00000  Uiso   1.00
N596   N     0.37040   0.73195   0.83688   0.00000  Uiso   1.00
N597   N     0.36623   0.13784   0.05141   0.00000  Uiso   1.00
N598   N     0.65404   0.61894   0.15408   0.00000  Uiso   1.00
C599   C     0.28847   0.96966   0.35220   0.00000  Uiso   1.00
C600   C     0.23641   0.98462   0.35493   0.00000  Uiso   1.00
C601   C     0.22913   0.97001   0.38459   0.00000  Uiso   1.00
C602   C     0.17847   0.98770   0.38177   0.00000  Uiso   1.00
C603   C     0.10402   0.00620   0.39079   0.00000  Uiso   1.00
C604   C     0.84874   0.49891   0.37312   0.00000  Uiso   1.00
C605   C     0.93590   0.49632   0.41808   0.00000  Uiso   1.00
C606   C     0.97979   0.52605   0.43056   0.00000  Uiso   1.00
C607   C     0.07974   0.56672   0.46781   0.00000  Uiso   1.00
C608   C     0.22749   0.96478   0.28897   0.00000  Uiso   1.00
C609   C     0.21273   0.93350   0.26316   0.00000  Uiso   1.00
C610   C     0.15456   0.93449   0.20479   0.00000  Uiso   1.00
C611   C     0.06625   0.92217   0.11138   0.00000  Uiso   1.00
C612   C     0.21144   0.02705   0.29442   0.00000  Uiso   1.00
C613   C     0.19457   0.01579   0.32354   0.00000  Uiso   1.00
C614   C     0.14390   0.03351   0.32067   0.00000  Uiso   1.00
C615   C     0.13655   0.01893   0.35032   0.00000  Uiso   1.00
C616   C     0.80690   0.53008   0.34174   0.00000  Uiso   1.00
C617   C     0.85067   0.55982   0.35415   0.00000  Uiso   1.00
C618   C     0.93788   0.55728   0.39912   0.00000  Uiso   1.00
C619   C     0.18565   0.99595   0.25758   0.00000  Uiso   1.00
C620   C     0.12750   0.99699   0.19924   0.00000  Uiso   1.00
C621   C     0.11264   0.96571   0.17335   0.00000  Uiso   1.00
H622   H     0.32105   0.94539   0.37664   0.00000  Uiso   1.00
H623   H     0.26153   0.94589   0.40888   0.00000  Uiso   1.00
H624   H     0.46826   0.97220   0.44236   0.00000  Uiso   1.00
H625   H     0.24512   0.90938   0.28746   0.00000  Uiso   1.00
H626   H     0.17710   0.96020   0.43081   0.00000  Uiso   1.00
H627   H     0.61301   0.01566   0.50138   0.00000  Uiso   1.00
H628   H     0.64248   0.38320   0.17476   0.00000  Uiso   1.00
H629   H     0.17886   0.05132   0.26999   0.00000  Uiso   1.00
H630   H     0.11153   0.05763   0.29638   0.00000  Uiso   1.00
H631   H     0.81827   0.58393   0.32986   0.00000  Uiso   1.00
H632   H     0.09513   0.02112   0.17496   0.00000  Uiso   1.00
H633   H     0.05536   0.05089   0.33950   0.00000  Uiso   1.00
H634   H     0.99128   0.60635   0.41007   0.00000  Uiso   1.00
H635   H     0.02074   0.97389   0.08345   0.00000  Uiso   1.00
O636   O     0.07453   0.00779   0.40445   0.00000  Uiso   1.00
O637   O     0.64643   0.08055   0.49704   0.00000  Uiso   1.00
O638   O     0.52909   0.40676   0.06852   0.00000  Uiso   1.00
N639   N     0.15768   0.98067   0.40568   0.00000  Uiso   1.00
N640   N     0.56523   0.03253   0.47167   0.00000  Uiso   1.00
N641   N     0.62534   0.40869   0.16631   0.00000  Uiso   1.00
N642   N     0.09217   0.02947   0.35655   0.00000  Uiso   1.00
N643   N     0.99972   0.58133   0.42254   0.00000  Uiso   1.00
N644   N     0.05983   0.95749   0.11718   0.00000  Uiso   1.00
C645   C     0.12271   0.82765   0.95981   0.00000  Uiso   1.00
C646   C     0.55242   0.30109   0.92909   0.00000  Uiso   1.00
C647   C     0.50303   0.28525   0.87702   0.00000  Uiso   1.00
C648   C     0.44205   0.26166   0.85608   0.00000  Uiso   1.00
C649   C     0.33462   0.22153   0.80382   0.00000  Uiso   1.00
C650   C     0.20153   0.81224   0.01884   0.00000  Uiso   1.00
C651   C     0.27750   0.80579   0.04225   0.00000  Uiso   1.00
C652   C     0.34203   0.79160   0.09687   0.00000  Uiso   1.00
C653   C     0.46612   0.76882   0.18398   0.00000  Uiso   1.00
C654   C     0.10017   0.86021   0.96946   0.00000  Uiso   1.00
C655   C     0.09094   0.89410   0.95135   0.00000  Uiso   1.00
C656   C     0.07016   0.92030   0.96440   0.00000  Uiso   1.00
C657   C     0.03686   0.97199   0.97482   0.00000  Uiso   1.00
C658   C     0.60224   0.31392   0.01521   0.00000  Uiso   1.00
C659   C     0.54131   0.29363   0.95918   0.00000  Uiso   1.00
C660   C     0.48038   0.27006   0.93832   0.00000  Uiso   1.00
C661   C     0.43090   0.25419   0.88623   0.00000  Uiso   1.00
C662   C     0.69041   0.30478   0.04894   0.00000  Uiso   1.00
C663   C     0.75485   0.29060   0.10354   0.00000  Uiso   1.00
C664   C     0.33090   0.78413   0.12702   0.00000  Uiso   1.00
C665   C     0.58905   0.35276   0.99955   0.00000  Uiso   1.00
C666   C     0.56829   0.37891   0.01264   0.00000  Uiso   1.00
C667   C     0.05902   0.91282   0.99455   0.00000  Uiso   1.00
H668   H     0.13137   0.83346   0.93638   0.00000  Uiso   1.00
H669   H     0.51166   0.29102   0.85375   0.00000  Uiso   1.00
H670   H     0.28609   0.81157   0.01895   0.00000  Uiso   1.00
H671   H     0.09955   0.89986   0.92806   0.00000  Uiso   1.00
H672   H     0.37405   0.24068   0.77541   0.00000  Uiso   1.00
H673   H     0.45270   0.78401   0.12376   0.00000  Uiso   1.00
H674   H     0.05935   0.97019   0.93210   0.00000  Uiso   1.00
H675   H     0.59359   0.30811   0.03864   0.00000  Uiso   1.00
H676   H     0.47179   0.26429   0.96161   0.00000  Uiso   1.00
H677   H     0.74623   0.28484   0.12682   0.00000  Uiso   1.00
H678   H     0.55969   0.37313   0.03593   0.00000  Uiso   1.00
H679   H     0.34169   0.21899   0.86296   0.00000  Uiso   1.00
H680   H     0.42035   0.76232   0.21131   0.00000  Uiso   1.00
H681   H     0.52700   0.44849   0.01965   0.00000  Uiso   1.00
O682   O     0.27845   0.20146   0.76668   0.00000  Uiso   1.00
O683   O     0.53763   0.75831   0.22370   0.00000  Uiso   1.00
O684   O     0.52156   0.50257   0.97225   0.00000  Uiso   1.00
N685   N     0.38314   0.24160   0.80658   0.00000  Uiso   1.00
N686   N     0.42414   0.78210   0.13226   0.00000  Uiso   1.00
N687   N     0.05642   0.95616   0.95309   0.00000  Uiso   1.00
N688   N     0.36573   0.22992   0.85369   0.00000  Uiso   1.00
N689   N     0.40673   0.77043   0.17937   0.00000  Uiso   1.00
N690   N     0.03901   0.94449   0.00020   0.00000  Uiso   1.00
C691   C     0.19775   0.21657   0.06655   0.00000  Uiso   1.00
C692   C     0.10947   0.22235   0.00476   0.00000  Uiso   1.00
C693   C     0.06984   0.25468   0.97965   0.00000  Uiso   1.00
C694   C     0.98903   0.25439   0.92260   0.00000  Uiso   1.00
C695   C     0.85800   0.26815   0.83133   0.00000  Uiso   1.00
C696   C     0.24612   0.19641   0.06387   0.00000  Uiso   1.00
C697   C     0.32139   0.20694   0.08848   0.00000  Uiso   1.00
C698   C     0.85562   0.68482   0.08120   0.00000  Uiso   1.00
C699   C     0.93677   0.65831   0.08175   0.00000  Uiso   1.00
C700   C     0.18763   0.19121   0.09217   0.00000  Uiso   1.00
C701   C     0.21374   0.19735   0.14057   0.00000  Uiso   1.00
C702   C     0.19874   0.17084   0.15711   0.00000  Uiso   1.00
C703   C     0.18907   0.13624   0.20158   0.00000  Uiso   1.00
C704   C     0.12472   0.15858   0.00987   0.00000  Uiso   1.00
C705   C     0.06980   0.19085   0.97398   0.00000  Uiso   1.00
C706   C     0.98904   0.19051   0.91695   0.00000  Uiso   1.00
C707   C     0.94929   0.22283   0.89176   0.00000  Uiso   1.00
C708   C     0.20645   0.16492   0.03309   0.00000  Uiso   1.00
C709   C     0.74059   0.64277   0.02578   0.00000  Uiso   1.00
C710   C     0.81588   0.65326   0.05036   0.00000  Uiso   1.00
C711   C     0.14796   0.15971   0.06138   0.00000  Uiso   1.00
C712   C     0.13293   0.13318   0.07786   0.00000  Uiso   1.00
C713   C     0.15900   0.13928   0.12627   0.00000  Uiso   1.00
H714   H     0.22864   0.24109   0.09051   0.00000  Uiso   1.00
H715   H     0.10056   0.27905   0.00349   0.00000  Uiso   1.00
H716   H     0.35207   0.23131   0.11230   0.00000  Uiso   1.00
H717   H     0.24443   0.22172   0.16438   0.00000  Uiso   1.00
H718   H     0.94108   0.30724   0.89342   0.00000  Uiso   1.00
H719   H     0.97142   0.70658   0.12288   0.00000  Uiso   1.00
H720   H     0.24444   0.18636   0.23269   0.00000  Uiso   1.00
H721   H     0.09384   0.13405   0.98591   0.00000  Uiso   1.00
H722   H     0.95835   0.16613   0.89314   0.00000  Uiso   1.00
H723   H     0.70987   0.61840   0.00195   0.00000  Uiso   1.00
H724   H     0.10223   0.10881   0.05403   0.00000  Uiso   1.00
H725   H     0.82566   0.21559   0.80385   0.00000  Uiso   1.00
H726   H     0.85601   0.61493   0.03332   0.00000  Uiso   1.00
H727   H     0.12902   0.09471   0.14313   0.00000  Uiso   1.00
O728   O     0.79669   0.28445   0.78949   0.00000  Uiso   1.00
O729   O     0.99249   0.65239   0.09055   0.00000  Uiso   1.00
O730   O     0.19469   0.12586   0.23461   0.00000  Uiso   1.00
N731   N     0.93250   0.28126   0.88508   0.00000  Uiso   1.00
N732   N     0.92834   0.68716   0.09960   0.00000  Uiso   1.00
N733   N     0.21615   0.16825   0.20227   0.00000  Uiso   1.00
N734   N     0.87040   0.23195   0.83688   0.00000  Uiso   1.00
N735   N     0.86623   0.63784   0.05141   0.00000  Uiso   1.00
N736   N     0.15404   0.11894   0.15408   0.00000  Uiso   1.00
C737   C     0.78847   0.46966   0.35220   0.00000  Uiso   1.00
C738   C     0.73641   0.48462   0.35493   0.00000  Uiso   1.00
C739   C     0.72913   0.47001   0.38459   0.00000  Uiso   1.00
C740   C     0.67847   0.48770   0.38177   0.00000  Uiso   1.00
C741   C     0.60402   0.50620   0.39079   0.00000  Uiso   1.00
C742   C     0.34874   0.99891   0.37312   0.00000  Uiso   1.00
C743   C     0.43590   0.99632   0.41808   0.00000  Uiso   1.00
C744   C     0.47979   0.02605   0.43056   0.00000  Uiso   1.00
C745   C     0.57974   0.06672   0.46781   0.00000  Uiso   1.00
C746   C     0.72749   0.46478   0.28897   0.00000  Uiso   1.00
C747   C     0.71273   0.43350   0.26316   0.00000  Uiso   1.00
C748   C     0.65456   0.43449   0.20479   0.00000  Uiso   1.00
C749   C     0.56625   0.42217   0.11138   0.00000  Uiso   1.00
C750   C     0.71144   0.52705   0.29442   0.00000  Uiso   1.00
C751   C     0.69457   0.51579   0.32354   0.00000  Uiso   1.00
C752   C     0.64390   0.53351   0.32067   0.00000  Uiso   1.00
C753   C     0.63655   0.51893   0.35032   0.00000  Uiso   1.00
C754   C     0.30690   0.03008   0.34174   0.00000  Uiso   1.00
C755   C     0.35067   0.05982   0.35415   0.00000  Uiso   1.00
C756   C     0.43788   0.05728   0.39912   0.00000  Uiso   1.00
C757   C     0.68565   0.49595   0.25758   0.00000  Uiso   1.00
C758   C     0.62750   0.49699   0.19924   0.00000  Uiso   1.00
C759   C     0.61264   0.46571   0.17335   0.00000  Uiso   1.00
H760   H     0.82105   0.44539   0.37664   0.00000  Uiso   1.00
H761   H     0.76153   0.44589   0.40888   0.00000  Uiso   1.00
H762   H     0.96826   0.47220   0.44236   0.00000  Uiso   1.00
H763   H     0.74512   0.40938   0.28746   0.00000  Uiso   1.00
H764   H     0.67710   0.46020   0.43081   0.00000  Uiso   1.00
H765   H     0.11301   0.51566   0.50138   0.00000  Uiso   1.00
H766   H     0.14248   0.88320   0.17476   0.00000  Uiso   1.00
H767   H     0.67886   0.55132   0.26999   0.00000  Uiso   1.00
H768   H     0.61153   0.55763   0.29638   0.00000  Uiso   1.00
H769   H     0.31827   0.08393   0.32986   0.00000  Uiso   1.00
H770   H     0.59513   0.52112   0.17496   0.00000  Uiso   1.00
H771   H     0.55536   0.55089   0.33950   0.00000  Uiso   1.00
H772   H     0.49128   0.10635   0.41007   0.00000  Uiso   1.00
H773   H     0.52074   0.47389   0.08345   0.00000  Uiso   1.00
O774   O     0.57453   0.50779   0.40445   0.00000  Uiso   1.00
O775   O     0.14643   0.58055   0.49704   0.00000  Uiso   1.00
O776   O     0.02909   0.90676   0.06852   0.00000  Uiso   1.00
N777   N     0.65768   0.48067   0.40568   0.00000  Uiso   1.00
N778   N     0.06523   0.53253   0.47167   0.00000  Uiso   1.00
N779   N     0.12534   0.90869   0.16631   0.00000  Uiso   1.00
N780   N     0.59217   0.52947   0.35655   0.00000  Uiso   1.00
N781   N     0.49972   0.08133   0.42254   0.00000  Uiso   1.00
N782   N     0.55983   0.45749   0.11718   0.00000  Uiso   1.00
C783   C     0.62271   0.32765   0.95981   0.00000  Uiso   1.00
C784   C     0.05242   0.80109   0.92909   0.00000  Uiso   1.00
C785   C     0.00303   0.78525   0.87702   0.00000  Uiso   1.00
C786   C     0.94205   0.76166   0.85608   0.00000  Uiso   1.00
C787   C     0.83462   0.72153   0.80382   0.00000  Uiso   1.00
C788   C     0.70153   0.31224   0.01884   0.00000  Uiso   1.00
C789   C     0.77750   0.30579   0.04225   0.00000  Uiso   1.00
C790   C     0.84203   0.29160   0.09687   0.00000  Uiso   1.00
C791   C     0.96612   0.26882   0.18398   0.00000  Uiso   1.00
C792   C     0.60017   0.36021   0.96946   0.00000  Uiso   1.00
C793   C     0.59094   0.39410   0.95135   0.00000  Uiso   1.00
C794   C     0.57016   0.42030   0.96440   0.00000  Uiso   1.00
C795   C     0.53686   0.47199   0.97482   0.00000  Uiso   1.00
C796   C     0.10224   0.81392   0.01521   0.00000  Uiso   1.00
C797   C     0.04131   0.79363   0.95918   0.00000  Uiso   1.00
C798   C     0.98038   0.77006   0.93832   0.00000  Uiso   1.00
C799   C     0.93090   0.75419   0.88623   0.00000  Uiso   1.00
C800   C     0.19041   0.80478   0.04894   0.00000  Uiso   1.00
C801   C     0.25485   0.79060   0.10354   0.00000  Uiso   1.00
C802   C     0.83090   0.28413   0.12702   0.00000  Uiso   1.00
C803   C     0.08905   0.85276   0.99955   0.00000  Uiso   1.00
C804   C     0.06829   0.87891   0.01264   0.00000  Uiso   1.00
C805   C     0.55902   0.41282   0.99455   0.00000  Uiso   1.00
H806   H     0.63137   0.33346   0.93638   0.00000  Uiso   1.00
H807   H     0.01166   0.79102   0.85375   0.00000  Uiso   1.00
H808   H     0.78609   0.31157   0.01895   0.00000  Uiso   1.00
H809   H     0.59955   0.39986   0.92806   0.00000  Uiso   1.00
H810   H     0.87405   0.74068   0.77541   0.00000  Uiso   1.00
H811   H     0.95270   0.28401   0.12376   0.00000  Uiso   1.00
H812   H     0.55935   0.47019   0.93210   0.00000  Uiso   1.00
H813   H     0.09359   0.80811   0.03864   0.00000  Uiso   1.00
H814   H     0.97179   0.76429   0.96161   0.00000  Uiso   1.00
H815   H     0.24623   0.78484   0.12682   0.00000  Uiso   1.00
H816   H     0.05969   0.87313   0.03593   0.00000  Uiso   1.00
H817   H     0.84169   0.71899   0.86296   0.00000  Uiso   1.00
H818   H     0.92035   0.26232   0.21131   0.00000  Uiso   1.00
H819   H     0.02700   0.94849   0.01965   0.00000  Uiso   1.00
O820   O     0.77845   0.70146   0.76668   0.00000  Uiso   1.00
O821   O     0.03763   0.25831   0.22370   0.00000  Uiso   1.00
O822   O     0.02156   0.00257   0.97225   0.00000  Uiso   1.00
N823   N     0.88314   0.74160   0.80658   0.00000  Uiso   1.00
N824   N     0.92414   0.28210   0.13226   0.00000  Uiso   1.00
N825   N     0.55642   0.45616   0.95309   0.00000  Uiso   1.00
N826   N     0.86573   0.72992   0.85369   0.00000  Uiso   1.00
N827   N     0.90673   0.27043   0.17937   0.00000  Uiso   1.00
N828   N     0.53901   0.44449   0.00020   0.00000  Uiso   1.00
C829   C     0.30225   0.71657   0.43345   0.00000  Uiso   1.00
C830   C     0.39053   0.72235   0.49524   0.00000  Uiso   1.00
C831   C     0.43016   0.75468   0.52035   0.00000  Uiso   1.00
C832   C     0.51097   0.75439   0.57740   0.00000  Uiso   1.00
C833   C     0.64200   0.76815   0.66867   0.00000  Uiso   1.00
C834   C     0.25388   0.69641   0.43613   0.00000  Uiso   1.00
C835   C     0.17861   0.70694   0.41152   0.00000  Uiso   1.00
C836   C     0.64438   0.18482   0.41880   0.00000  Uiso   1.00
C837   C     0.56323   0.15831   0.41825   0.00000  Uiso   1.00
C838   C     0.31237   0.69121   0.40783   0.00000  Uiso   1.00
C839   C     0.28626   0.69735   0.35943   0.00000  Uiso   1.00
C840   C     0.30126   0.67084   0.34289   0.00000  Uiso   1.00
C841   C     0.31093   0.63624   0.29842   0.00000  Uiso   1.00
C842   C     0.37528   0.65858   0.49013   0.00000  Uiso   1.00
C843   C     0.43020   0.69085   0.52602   0.00000  Uiso   1.00
C844   C     0.51096   0.69051   0.58305   0.00000  Uiso   1.00
C845   C     0.55071   0.72283   0.60824   0.00000  Uiso   1.00
C846   C     0.29355   0.66492   0.46691   0.00000  Uiso   1.00
C847   C     0.75941   0.14277   0.47422   0.00000  Uiso   1.00
C848   C     0.68412   0.15326   0.44964   0.00000  Uiso   1.00
C849   C     0.35204   0.65971   0.43862   0.00000  Uiso   1.00
C850   C     0.36707   0.63318   0.42214   0.00000  Uiso   1.00
C851   C     0.34100   0.63928   0.37373   0.00000  Uiso   1.00
H852   H     0.27136   0.74109   0.40949   0.00000  Uiso   1.00
H853   H     0.39944   0.77905   0.49651   0.00000  Uiso   1.00
H854   H     0.14793   0.73131   0.38770   0.00000  Uiso   1.00
H855   H     0.25557   0.72172   0.33562   0.00000  Uiso   1.00
H856   H     0.55892   0.80724   0.60658   0.00000  Uiso   1.00
H857   H     0.52858   0.20658   0.37712   0.00000  Uiso   1.00
H858   H     0.25556   0.68636   0.26731   0.00000  Uiso   1.00
H859   H     0.40616   0.63405   0.51409   0.00000  Uiso   1.00
H860   H     0.54165   0.66613   0.60686   0.00000  Uiso   1.00
H861   H     0.79013   0.11840   0.49805   0.00000  Uiso   1.00
H862   H     0.39777   0.60881   0.44597   0.00000  Uiso   1.00
H863   H     0.67434   0.71559   0.69615   0.00000  Uiso   1.00
H864   H     0.64399   0.11493   0.46668   0.00000  Uiso   1.00
H865   H     0.37098   0.59471   0.35687   0.00000  Uiso   1.00
O866   O     0.70331   0.78445   0.71051   0.00000  Uiso   1.00
O867   O     0.50751   0.15239   0.40945   0.00000  Uiso   1.00
O868   O     0.30531   0.62586   0.26539   0.00000  Uiso   1.00
N869   N     0.56750   0.78126   0.61492   0.00000  Uiso   1.00
N870   N     0.57166   0.18716   0.40040   0.00000  Uiso   1.00
N871   N     0.28385   0.66825   0.29773   0.00000  Uiso   1.00
N872   N     0.62960   0.73195   0.66312   0.00000  Uiso   1.00
N873   N     0.63377   0.13784   0.44859   0.00000  Uiso   1.00
N874   N     0.34596   0.61894   0.34592   0.00000  Uiso   1.00
C875   C     0.71153   0.96966   0.14780   0.00000  Uiso   1.00
C876   C     0.76359   0.98462   0.14507   0.00000  Uiso   1.00
C877   C     0.77087   0.97001   0.11541   0.00000  Uiso   1.00
C878   C     0.82153   0.98770   0.11823   0.00000  Uiso   1.00
C879   C     0.89598   0.00620   0.10921   0.00000  Uiso   1.00
C880   C     0.15126   0.49891   0.12688   0.00000  Uiso   1.00
C881   C     0.06410   0.49632   0.08192   0.00000  Uiso   1.00
C882   C     0.02021   0.52605   0.06944   0.00000  Uiso   1.00
C883   C     0.92026   0.56672   0.03219   0.00000  Uiso   1.00
C884   C     0.77251   0.96478   0.21103   0.00000  Uiso   1.00
C885   C     0.78727   0.93350   0.23684   0.00000  Uiso   1.00
C886   C     0.84544   0.93449   0.29521   0.00000  Uiso   1.00
C887   C     0.93375   0.92217   0.38862   0.00000  Uiso   1.00
C888   C     0.78856   0.02705   0.20558   0.00000  Uiso   1.00
C889   C     0.80543   0.01579   0.17646   0.00000  Uiso   1.00
C890   C     0.85610   0.03351   0.17933   0.00000  Uiso   1.00
C891   C     0.86345   0.01893   0.14968   0.00000  Uiso   1.00
C892   C     0.19310   0.53008   0.15826   0.00000  Uiso   1.00
C893   C     0.14933   0.55982   0.14585   0.00000  Uiso   1.00
C894   C     0.06212   0.55728   0.10088   0.00000  Uiso   1.00
C895   C     0.81435   0.99595   0.24242   0.00000  Uiso   1.00
C896   C     0.87250   0.99699   0.30076   0.00000  Uiso   1.00
C897   C     0.88736   0.96571   0.32665   0.00000  Uiso   1.00
H898   H     0.67895   0.94539   0.12336   0.00000  Uiso   1.00
H899   H     0.73847   0.94589   0.09112   0.00000  Uiso   1.00
H900   H     0.53174   0.97220   0.05764   0.00000  Uiso   1.00
H901   H     0.75488   0.90938   0.21254   0.00000  Uiso   1.00
H902   H     0.82290   0.96020   0.06919   0.00000  Uiso   1.00
H903   H     0.38699   0.01566   0.99862   0.00000  Uiso   1.00
H904   H     0.35752   0.38320   0.32524   0.00000  Uiso   1.00
H905   H     0.82114   0.05132   0.23001   0.00000  Uiso   1.00
H906   H     0.88847   0.05763   0.20362   0.00000  Uiso   1.00
H907   H     0.18173   0.58393   0.17014   0.00000  Uiso   1.00
H908   H     0.90487   0.02112   0.32504   0.00000  Uiso   1.00
H909   H     0.94464   0.05089   0.16050   0.00000  Uiso   1.00
H910   H     0.00872   0.60635   0.08993   0.00000  Uiso   1.00
H911   H     0.97926   0.97389   0.41655   0.00000  Uiso   1.00
O912   O     0.92547   0.00779   0.09555   0.00000  Uiso   1.00
O913   O     0.35357   0.08055   0.00296   0.00000  Uiso   1.00
O914   O     0.47091   0.40676   0.43148   0.00000  Uiso   1.00
N915   N     0.84232   0.98067   0.09432   0.00000  Uiso   1.00
N916   N     0.43477   0.03253   0.02833   0.00000  Uiso   1.00
N917   N     0.37466   0.40869   0.33369   0.00000  Uiso   1.00
N918   N     0.90783   0.02947   0.14345   0.00000  Uiso   1.00
N919   N     0.00028   0.58133   0.07746   0.00000  Uiso   1.00
N920   N     0.94017   0.95749   0.38282   0.00000  Uiso   1.00
C921   C     0.87729   0.82765   0.54019   0.00000  Uiso   1.00
C922   C     0.44758   0.30109   0.57091   0.00000  Uiso   1.00
C923   C     0.49697   0.28525   0.62298   0.00000  Uiso   1.00
C924   C     0.55795   0.26166   0.64392   0.00000  Uiso   1.00
C925   C     0.66538   0.22153   0.69618   0.00000  Uiso   1.00
C926   C     0.79847   0.81224   0.48116   0.00000  Uiso   1.00
C927   C     0.72250   0.80579   0.45775   0.00000  Uiso   1.00
C928   C     0.65797   0.79160   0.40313   0.00000  Uiso   1.00
C929   C     0.53388   0.76882   0.31602   0.00000  Uiso   1.00
C930   C     0.89983   0.86021   0.53054   0.00000  Uiso   1.00
C931   C     0.90906   0.89410   0.54865   0.00000  Uiso   1.00
C932   C     0.92984   0.92030   0.53560   0.00000  Uiso   1.00
C933   C     0.96314   0.97199   0.52518   0.00000  Uiso   1.00
C934   C     0.39776   0.31392   0.48479   0.00000  Uiso   1.00
C935   C     0.45869   0.29363   0.54082   0.00000  Uiso   1.00
C936   C     0.51962   0.27006   0.56168   0.00000  Uiso   1.00
C937   C     0.56910   0.25419   0.61377   0.00000  Uiso   1.00
C938   C     0.30959   0.30478   0.45106   0.00000  Uiso   1.00
C939   C     0.24515   0.29060   0.39646   0.00000  Uiso   1.00
C940   C     0.66910   0.78413   0.37298   0.00000  Uiso   1.00
C941   C     0.41095   0.35276   0.50045   0.00000  Uiso   1.00
C942   C     0.43171   0.37891   0.48736   0.00000  Uiso   1.00
C943   C     0.94098   0.91282   0.50545   0.00000  Uiso   1.00
H944   H     0.86863   0.83346   0.56362   0.00000  Uiso   1.00
H945   H     0.48834   0.29102   0.64625   0.00000  Uiso   1.00
H946   H     0.71391   0.81157   0.48105   0.00000  Uiso   1.00
H947   H     0.90045   0.89986   0.57194   0.00000  Uiso   1.00
H948   H     0.62595   0.24068   0.72459   0.00000  Uiso   1.00
H949   H     0.54730   0.78401   0.37624   0.00000  Uiso   1.00
H950   H     0.94065   0.97019   0.56790   0.00000  Uiso   1.00
H951   H     0.40641   0.30811   0.46136   0.00000  Uiso   1.00
H952   H     0.52821   0.26429   0.53839   0.00000  Uiso   1.00
H953   H     0.25377   0.28484   0.37318   0.00000  Uiso   1.00
H954   H     0.44031   0.37313   0.46407   0.00000  Uiso   1.00
H955   H     0.65831   0.21899   0.63704   0.00000  Uiso   1.00
H956   H     0.57965   0.76232   0.28869   0.00000  Uiso   1.00
H957   H     0.47300   0.44849   0.48035   0.00000  Uiso   1.00
O958   O     0.72155   0.20146   0.73332   0.00000  Uiso   1.00
O959   O     0.46237   0.75831   0.27630   0.00000  Uiso   1.00
O960   O     0.47844   0.50257   0.52775   0.00000  Uiso   1.00
N961   N     0.61686   0.24160   0.69342   0.00000  Uiso   1.00
N962   N     0.57586   0.78210   0.36774   0.00000  Uiso   1.00
N963   N     0.94358   0.95616   0.54691   0.00000  Uiso   1.00
N964   N     0.63427   0.22992   0.64631   0.00000  Uiso   1.00
N965   N     0.59327   0.77043   0.32063   0.00000  Uiso   1.00
N966   N     0.96099   0.94449   0.49980   0.00000  Uiso   1.00
C967   C     0.80225   0.21657   0.43345   0.00000  Uiso   1.00
C968   C     0.89053   0.22235   0.49524   0.00000  Uiso   1.00
C969   C     0.93016   0.25468   0.52035   0.00000  Uiso   1.00
C970   C     0.01097   0.25439   0.57740   0.00000  Uiso   1.00
C971   C     0.14200   0.26815   0.66867   0.00000  Uiso   1.00
C972   C     0.75388   0.19641   0.43613   0.00000  Uiso   1.00
C973   C     0.67861   0.20694   0.41152   0.00000  Uiso   1.00
C974   C     0.14438   0.68482   0.41880   0.00000  Uiso   1.00
C975   C     0.06323   0.65831   0.41825   0.00000  Uiso   1.00
C976   C     0.81237   0.19121   0.40783   0.00000  Uiso   1.00
C977   C     0.78626   0.19735   0.35943   0.00000  Uiso   1.00
C978   C     0.80126   0.17084   0.34289   0.00000  Uiso   1.00
C979   C     0.81093   0.13624   0.29842   0.00000  Uiso   1.00
C980   C     0.87528   0.15858   0.49013   0.00000  Uiso   1.00
C981   C     0.93020   0.19085   0.52602   0.00000  Uiso   1.00
C982   C     0.01096   0.19051   0.58305   0.00000  Uiso   1.00
C983   C     0.05071   0.22283   0.60824   0.00000  Uiso   1.00
C984   C     0.79355   0.16492   0.46691   0.00000  Uiso   1.00
C985   C     0.25941   0.64277   0.47422   0.00000  Uiso   1.00
C986   C     0.18412   0.65326   0.44964   0.00000  Uiso   1.00
C987   C     0.85204   0.15971   0.43862   0.00000  Uiso   1.00
C988   C     0.86707   0.13318   0.42214   0.00000  Uiso   1.00
C989   C     0.84100   0.13928   0.37373   0.00000  Uiso   1.00
H990   H     0.77136   0.24109   0.40949   0.00000  Uiso   1.00
H991   H     0.89944   0.27905   0.49651   0.00000  Uiso   1.00
H992   H     0.64793   0.23131   0.38770   0.00000  Uiso   1.00
H993   H     0.75557   0.22172   0.33562   0.00000  Uiso   1.00
H994   H     0.05892   0.30724   0.60658   0.00000  Uiso   1.00
H995   H     0.02858   0.70658   0.37712   0.00000  Uiso   1.00
H996   H     0.75556   0.18636   0.26731   0.00000  Uiso   1.00
H997   H     0.90616   0.13405   0.51409   0.00000  Uiso   1.00
H998   H     0.04165   0.16613   0.60686   0.00000  Uiso   1.00
H999   H     0.29013   0.61840   0.49805   0.00000  Uiso   1.00
H1000  H     0.89777   0.10881   0.44597   0.00000  Uiso   1.00
H1001  H     0.17434   0.21559   0.69615   0.00000  Uiso   1.00
H1002  H     0.14399   0.61493   0.46668   0.00000  Uiso   1.00
H1003  H     0.87098   0.09471   0.35687   0.00000  Uiso   1.00
O1004  O     0.20331   0.28445   0.71051   0.00000  Uiso   1.00
O1005  O     0.00751   0.65239   0.40945   0.00000  Uiso   1.00
O1006  O     0.80531   0.12586   0.26539   0.00000  Uiso   1.00
N1007  N     0.06750   0.28126   0.61492   0.00000  Uiso   1.00
N1008  N     0.07166   0.68716   0.40040   0.00000  Uiso   1.00
N1009  N     0.78385   0.16825   0.29773   0.00000  Uiso   1.00
N1010  N     0.12960   0.23195   0.66312   0.00000  Uiso   1.00
N1011  N     0.13377   0.63784   0.44859   0.00000  Uiso   1.00
N1012  N     0.84596   0.11894   0.34592   0.00000  Uiso   1.00
C1013  C     0.21153   0.46966   0.14780   0.00000  Uiso   1.00
C1014  C     0.26359   0.48462   0.14507   0.00000  Uiso   1.00
C1015  C     0.27087   0.47001   0.11541   0.00000  Uiso   1.00
C1016  C     0.32153   0.48770   0.11823   0.00000  Uiso   1.00
C1017  C     0.39598   0.50620   0.10921   0.00000  Uiso   1.00
C1018  C     0.65126   0.99891   0.12688   0.00000  Uiso   1.00
C1019  C     0.56410   0.99632   0.08192   0.00000  Uiso   1.00
C1020  C     0.52021   0.02605   0.06944   0.00000  Uiso   1.00
C1021  C     0.42026   0.06672   0.03219   0.00000  Uiso   1.00
C1022  C     0.27251   0.46478   0.21103   0.00000  Uiso   1.00
C1023  C     0.28727   0.43350   0.23684   0.00000  Uiso   1.00
C1024  C     0.34544   0.43449   0.29521   0.00000  Uiso   1.00
C1025  C     0.43375   0.42217   0.38862   0.00000  Uiso   1.00
C1026  C     0.28856   0.52705   0.20558   0.00000  Uiso   1.00
C1027  C     0.30543   0.51579   0.17646   0.00000  Uiso   1.00
C1028  C     0.35610   0.53351   0.17933   0.00000  Uiso   1.00
C1029  C     0.36345   0.51893   0.14968   0.00000  Uiso   1.00
C1030  C     0.69310   0.03008   0.15826   0.00000  Uiso   1.00
C1031  C     0.64933   0.05982   0.14585   0.00000  Uiso   1.00
C1032  C     0.56212   0.05728   0.10088   0.00000  Uiso   1.00
C1033  C     0.31435   0.49595   0.24242   0.00000  Uiso   1.00
C1034  C     0.37250   0.49699   0.30076   0.00000  Uiso   1.00
C1035  C     0.38736   0.46571   0.32665   0.00000  Uiso   1.00
H1036  H     0.17895   0.44539   0.12336   0.00000  Uiso   1.00
H1037  H     0.23847   0.44589   0.09112   0.00000  Uiso   1.00
H1038  H     0.03174   0.47220   0.05764   0.00000  Uiso   1.00
H1039  H     0.25488   0.40938   0.21254   0.00000  Uiso   1.00
H1040  H     0.32290   0.46020   0.06919   0.00000  Uiso   1.00
H1041  H     0.88699   0.51566   0.99862   0.00000  Uiso   1.00
H1042  H     0.85752   0.88320   0.32524   0.00000  Uiso   1.00
H1043  H     0.32114   0.55132   0.23001   0.00000  Uiso   1.00
H1044  H     0.38847   0.55763   0.20362   0.00000  Uiso   1.00
H1045  H     0.68173   0.08393   0.17014   0.00000  Uiso   1.00
H1046  H     0.40487   0.52112   0.32504   0.00000  Uiso   1.00
H1047  H     0.44464   0.55089   0.16050   0.00000  Uiso   1.00
H1048  H     0.50872   0.10635   0.08993   0.00000  Uiso   1.00
H1049  H     0.47926   0.47389   0.41655   0.00000  Uiso   1.00
O1050  O     0.42547   0.50779   0.09555   0.00000  Uiso   1.00
O1051  O     0.85357   0.58055   0.00296   0.00000  Uiso   1.00
O1052  O     0.97091   0.90676   0.43148   0.00000  Uiso   1.00
N1053  N     0.34232   0.48067   0.09432   0.00000  Uiso   1.00
N1054  N     0.93477   0.53253   0.02833   0.00000  Uiso   1.00
N1055  N     0.87466   0.90869   0.33369   0.00000  Uiso   1.00
N1056  N     0.40783   0.52947   0.14345   0.00000  Uiso   1.00
N1057  N     0.50028   0.08133   0.07746   0.00000  Uiso   1.00
N1058  N     0.44017   0.45749   0.38282   0.00000  Uiso   1.00
C1059  C     0.37729   0.32765   0.54019   0.00000  Uiso   1.00
C1060  C     0.94758   0.80109   0.57091   0.00000  Uiso   1.00
C1061  C     0.99697   0.78525   0.62298   0.00000  Uiso   1.00
C1062  C     0.05795   0.76166   0.64392   0.00000  Uiso   1.00
C1063  C     0.16538   0.72153   0.69618   0.00000  Uiso   1.00
C1064  C     0.29847   0.31224   0.48116   0.00000  Uiso   1.00
C1065  C     0.22250   0.30579   0.45775   0.00000  Uiso   1.00
C1066  C     0.15797   0.29160   0.40313   0.00000  Uiso   1.00
C1067  C     0.03388   0.26882   0.31602   0.00000  Uiso   1.00
C1068  C     0.39983   0.36021   0.53054   0.00000  Uiso   1.00
C1069  C     0.40906   0.39410   0.54865   0.00000  Uiso   1.00
C1070  C     0.42984   0.42030   0.53560   0.00000  Uiso   1.00
C1071  C     0.46314   0.47199   0.52518   0.00000  Uiso   1.00
C1072  C     0.89776   0.81392   0.48479   0.00000  Uiso   1.00
C1073  C     0.95869   0.79363   0.54082   0.00000  Uiso   1.00
C1074  C     0.01962   0.77006   0.56168   0.00000  Uiso   1.00
C1075  C     0.06910   0.75419   0.61377   0.00000  Uiso   1.00
C1076  C     0.80959   0.80478   0.45106   0.00000  Uiso   1.00
C1077  C     0.74515   0.79060   0.39646   0.00000  Uiso   1.00
C1078  C     0.16910   0.28413   0.37298   0.00000  Uiso   1.00
C1079  C     0.91095   0.85276   0.50045   0.00000  Uiso   1.00
C1080  C     0.93171   0.87891   0.48736   0.00000  Uiso   1.00
C1081  C     0.44098   0.41282   0.50545   0.00000  Uiso   1.00
H1082  H     0.36863   0.33346   0.56362   0.00000  Uiso   1.00
H1083  H     0.98834   0.79102   0.64625   0.00000  Uiso   1.00
H1084  H     0.21391   0.31157   0.48105   0.00000  Uiso   1.00
H1085  H     0.40045   0.39986   0.57194   0.00000  Uiso   1.00
H1086  H     0.12595   0.74068   0.72459   0.00000  Uiso   1.00
H1087  H     0.04730   0.28401   0.37624   0.00000  Uiso   1.00
H1088  H     0.44065   0.47019   0.56790   0.00000  Uiso   1.00
H1089  H     0.90641   0.80811   0.46136   0.00000  Uiso   1.00
H1090  H     0.02821   0.76429   0.53839   0.00000  Uiso   1.00
H1091  H     0.75377   0.78484   0.37318   0.00000  Uiso   1.00
H1092  H     0.94031   0.87313   0.46407   0.00000  Uiso   1.00
H1093  H     0.15831   0.71899   0.63704   0.00000  Uiso   1.00
H1094  H     0.07965   0.26232   0.28869   0.00000  Uiso   1.00
H1095  H     0.97300   0.94849   0.48035   0.00000  Uiso   1.00
O1096  O     0.22155   0.70146   0.73332   0.00000  Uiso   1.00
O1097  O     0.96237   0.25831   0.27630   0.00000  Uiso   1.00
O1098  O     0.97844   0.00257   0.52775   0.00000  Uiso   1.00
N1099  N     0.11686   0.74160   0.69342   0.00000  Uiso   1.00
N1100  N     0.07586   0.28210   0.36774   0.00000  Uiso   1.00
N1101  N     0.44358   0.45616   0.54691   0.00000  Uiso   1.00
N1102  N     0.13427   0.72992   0.64631   0.00000  Uiso   1.00
N1103  N     0.09327   0.27043   0.32063   0.00000  Uiso   1.00
N1104  N     0.46099   0.44449   0.49980   0.00000  Uiso   1.00
