data_job_01652
_audit_creation_date              2018-12-19
_audit_creation_method            'Materials Studio'
_symmetry_space_group_name_H-M    'P1'
_symmetry_Int_Tables_number       1
_symmetry_cell_setting            triclinic
loop_
_symmetry_equiv_pos_as_xyz
  x,y,z
_cell_length_a                    22.6531
_cell_length_b                    26.6811
_cell_length_c                    18.9023
_cell_angle_alpha                 90.0000
_cell_angle_beta                  90.0000
_cell_angle_gamma                 90.0000
loop_
_atom_site_label
_atom_site_type_symbol
_atom_site_fract_x
_atom_site_fract_y
_atom_site_fract_z
_atom_site_U_iso_or_equiv
_atom_site_adp_type
_atom_site_occupancy
C1     C     0.85188   0.93246   0.33868   0.00000  Uiso   1.00
C2     C     0.83676   0.90098   0.27383   0.00000  Uiso   1.00
C3     C     0.85448   0.91091   0.20496   0.00000  Uiso   1.00
C4     C     0.83603   0.87759   0.15305   0.00000  Uiso   1.00
C5     C     0.81784   0.83508   0.04984   0.00000  Uiso   1.00
C6     C     0.79304   0.94682   0.37222   0.00000  Uiso   1.00
C7     C     0.77401   0.99528   0.38609   0.00000  Uiso   1.00
C8     C     0.71877   0.00054   0.41702   0.00000  Uiso   1.00
C9     C     0.63272   0.02919   0.46662   0.00000  Uiso   1.00
C10    C     0.88179   0.89694   0.39074   0.00000  Uiso   1.00
C11    C     0.93737   0.90347   0.42020   0.00000  Uiso   1.00
C12    C     0.95684   0.86675   0.46672   0.00000  Uiso   1.00
C13    C     0.00858   0.81795   0.54507   0.00000  Uiso   1.00
C14    C     0.78760   0.85565   0.36895   0.00000  Uiso   1.00
C15    C     0.80184   0.85927   0.29027   0.00000  Uiso   1.00
C16    C     0.78336   0.82593   0.23845   0.00000  Uiso   1.00
C17    C     0.80106   0.83580   0.16952   0.00000  Uiso   1.00
C18    C     0.75812   0.90510   0.38866   0.00000  Uiso   1.00
C19    C     0.70289   0.91030   0.41958   0.00000  Uiso   1.00
C20    C     0.68379   0.95875   0.43349   0.00000  Uiso   1.00
C21    C     0.84687   0.85522   0.40718   0.00000  Uiso   1.00
C22    C     0.86625   0.81849   0.45368   0.00000  Uiso   1.00
C23    C     0.92186   0.82495   0.48320   0.00000  Uiso   1.00
H24    H     0.87906   0.96494   0.32589   0.00000  Uiso   1.00
H25    H     0.88150   0.94320   0.19226   0.00000  Uiso   1.00
H26    H     0.80105   0.02755   0.37337   0.00000  Uiso   1.00
H27    H     0.96438   0.93576   0.40746   0.00000  Uiso   1.00
H28    H     0.86879   0.90071   0.05135   0.00000  Uiso   1.00
H29    H     0.69916   0.07857   0.43326   0.00000  Uiso   1.00
H30    H     0.04358   0.88500   0.50515   0.00000  Uiso   1.00
H31    H     0.76041   0.82317   0.38175   0.00000  Uiso   1.00
H32    H     0.75634   0.79365   0.25119   0.00000  Uiso   1.00
H33    H     0.67588   0.87800   0.43230   0.00000  Uiso   1.00
H34    H     0.83922   0.78621   0.46639   0.00000  Uiso   1.00
H35    H     0.76720   0.77933   0.09918   0.00000  Uiso   1.00
H36    H     0.59757   0.95720   0.48109   0.00000  Uiso   1.00
H37    H     0.94199   0.76362   0.55298   0.00000  Uiso   1.00
O38    O     0.81744   0.82316   0.98837   0.00000  Uiso   1.00
O39    O     0.59490   0.05652   0.48942   0.00000  Uiso   1.00
O40    O     0.04677   0.80256   0.58374   0.00000  Uiso   1.00
N41    N     0.84545   0.87618   0.08053   0.00000  Uiso   1.00
N42    N     0.68685   0.04248   0.43758   0.00000  Uiso   1.00
N43    N     0.00885   0.86152   0.50481   0.00000  Uiso   1.00
N44    N     0.79078   0.81087   0.10627   0.00000  Uiso   1.00
N45    N     0.63219   0.97717   0.46332   0.00000  Uiso   1.00
N46    N     0.95419   0.79620   0.53054   0.00000  Uiso   1.00
C47    C     0.35188   0.43246   0.83868   0.00000  Uiso   1.00
C48    C     0.33676   0.40098   0.77383   0.00000  Uiso   1.00
C49    C     0.35448   0.41091   0.70496   0.00000  Uiso   1.00
C50    C     0.33603   0.37759   0.65305   0.00000  Uiso   1.00
C51    C     0.31784   0.33508   0.54984   0.00000  Uiso   1.00
C52    C     0.29304   0.44682   0.87222   0.00000  Uiso   1.00
C53    C     0.27401   0.49528   0.88609   0.00000  Uiso   1.00
C54    C     0.21877   0.50054   0.91702   0.00000  Uiso   1.00
C55    C     0.13272   0.52919   0.96662   0.00000  Uiso   1.00
C56    C     0.38179   0.39694   0.89074   0.00000  Uiso   1.00
C57    C     0.43737   0.40347   0.92020   0.00000  Uiso   1.00
C58    C     0.45684   0.36675   0.96672   0.00000  Uiso   1.00
C59    C     0.50858   0.31795   0.04507   0.00000  Uiso   1.00
C60    C     0.28760   0.35565   0.86895   0.00000  Uiso   1.00
C61    C     0.30184   0.35927   0.79027   0.00000  Uiso   1.00
C62    C     0.28336   0.32593   0.73845   0.00000  Uiso   1.00
C63    C     0.30106   0.33580   0.66952   0.00000  Uiso   1.00
C64    C     0.25812   0.40510   0.88866   0.00000  Uiso   1.00
C65    C     0.20289   0.41030   0.91958   0.00000  Uiso   1.00
C66    C     0.18379   0.45875   0.93349   0.00000  Uiso   1.00
C67    C     0.34687   0.35522   0.90718   0.00000  Uiso   1.00
C68    C     0.36625   0.31849   0.95368   0.00000  Uiso   1.00
C69    C     0.42186   0.32495   0.98320   0.00000  Uiso   1.00
H70    H     0.37906   0.46494   0.82589   0.00000  Uiso   1.00
H71    H     0.38150   0.44320   0.69226   0.00000  Uiso   1.00
H72    H     0.30105   0.52755   0.87337   0.00000  Uiso   1.00
H73    H     0.46438   0.43576   0.90746   0.00000  Uiso   1.00
H74    H     0.36879   0.40071   0.55135   0.00000  Uiso   1.00
H75    H     0.19916   0.57857   0.93326   0.00000  Uiso   1.00
H76    H     0.54358   0.38500   0.00515   0.00000  Uiso   1.00
H77    H     0.26041   0.32317   0.88175   0.00000  Uiso   1.00
H78    H     0.25634   0.29365   0.75119   0.00000  Uiso   1.00
H79    H     0.17588   0.37800   0.93230   0.00000  Uiso   1.00
H80    H     0.33922   0.28621   0.96639   0.00000  Uiso   1.00
H81    H     0.26720   0.27933   0.59918   0.00000  Uiso   1.00
H82    H     0.09757   0.45720   0.98109   0.00000  Uiso   1.00
H83    H     0.44199   0.26362   0.05298   0.00000  Uiso   1.00
O84    O     0.31744   0.32316   0.48837   0.00000  Uiso   1.00
O85    O     0.09490   0.55652   0.98942   0.00000  Uiso   1.00
O86    O     0.54677   0.30256   0.08374   0.00000  Uiso   1.00
N87    N     0.34545   0.37618   0.58053   0.00000  Uiso   1.00
N88    N     0.18685   0.54248   0.93758   0.00000  Uiso   1.00
N89    N     0.50885   0.36152   0.00481   0.00000  Uiso   1.00
N90    N     0.29078   0.31087   0.60627   0.00000  Uiso   1.00
N91    N     0.13219   0.47717   0.96332   0.00000  Uiso   1.00
N92    N     0.45419   0.29620   0.03054   0.00000  Uiso   1.00
C93    C     0.64812   0.06754   0.83868   0.00000  Uiso   1.00
C94    C     0.66324   0.09902   0.77383   0.00000  Uiso   1.00
C95    C     0.64552   0.08909   0.70496   0.00000  Uiso   1.00
C96    C     0.66397   0.12241   0.65305   0.00000  Uiso   1.00
C97    C     0.68216   0.16492   0.54984   0.00000  Uiso   1.00
C98    C     0.70696   0.05318   0.87222   0.00000  Uiso   1.00
C99    C     0.72599   0.00472   0.88609   0.00000  Uiso   1.00
C100   C     0.78123   0.99946   0.91702   0.00000  Uiso   1.00
C101   C     0.86728   0.97081   0.96662   0.00000  Uiso   1.00
C102   C     0.61821   0.10306   0.89074   0.00000  Uiso   1.00
C103   C     0.56263   0.09653   0.92020   0.00000  Uiso   1.00
C104   C     0.54316   0.13325   0.96672   0.00000  Uiso   1.00
C105   C     0.49142   0.18205   0.04507   0.00000  Uiso   1.00
C106   C     0.71240   0.14435   0.86895   0.00000  Uiso   1.00
C107   C     0.69816   0.14073   0.79027   0.00000  Uiso   1.00
C108   C     0.71664   0.17407   0.73845   0.00000  Uiso   1.00
C109   C     0.69894   0.16420   0.66952   0.00000  Uiso   1.00
C110   C     0.74188   0.09490   0.88866   0.00000  Uiso   1.00
C111   C     0.79711   0.08970   0.91958   0.00000  Uiso   1.00
C112   C     0.81621   0.04125   0.93349   0.00000  Uiso   1.00
C113   C     0.65313   0.14478   0.90718   0.00000  Uiso   1.00
C114   C     0.63375   0.18151   0.95368   0.00000  Uiso   1.00
C115   C     0.57814   0.17505   0.98320   0.00000  Uiso   1.00
H116   H     0.62094   0.03506   0.82589   0.00000  Uiso   1.00
H117   H     0.61850   0.05680   0.69226   0.00000  Uiso   1.00
H118   H     0.69895   0.97245   0.87337   0.00000  Uiso   1.00
H119   H     0.53562   0.06424   0.90746   0.00000  Uiso   1.00
H120   H     0.63121   0.09929   0.55135   0.00000  Uiso   1.00
H121   H     0.80084   0.92143   0.93326   0.00000  Uiso   1.00
H122   H     0.45642   0.11500   0.00515   0.00000  Uiso   1.00
H123   H     0.73959   0.17683   0.88175   0.00000  Uiso   1.00
H124   H     0.74366   0.20635   0.75119   0.00000  Uiso   1.00
H125   H     0.82412   0.12200   0.93230   0.00000  Uiso   1.00
H126   H     0.66078   0.21379   0.96639   0.00000  Uiso   1.00
H127   H     0.73280   0.22067   0.59918   0.00000  Uiso   1.00
H128   H     0.90243   0.04280   0.98109   0.00000  Uiso   1.00
H129   H     0.55801   0.23638   0.05298   0.00000  Uiso   1.00
O130   O     0.68256   0.17684   0.48837   0.00000  Uiso   1.00
O131   O     0.90510   0.94348   0.98942   0.00000  Uiso   1.00
O132   O     0.45323   0.19744   0.08374   0.00000  Uiso   1.00
N133   N     0.65455   0.12382   0.58053   0.00000  Uiso   1.00
N134   N     0.81315   0.95752   0.93758   0.00000  Uiso   1.00
N135   N     0.49115   0.13848   0.00481   0.00000  Uiso   1.00
N136   N     0.70922   0.18913   0.60627   0.00000  Uiso   1.00
N137   N     0.86781   0.02283   0.96332   0.00000  Uiso   1.00
N138   N     0.54581   0.20380   0.03054   0.00000  Uiso   1.00
C139   C     0.14812   0.56754   0.33868   0.00000  Uiso   1.00
C140   C     0.16324   0.59902   0.27383   0.00000  Uiso   1.00
C141   C     0.14552   0.58909   0.20496   0.00000  Uiso   1.00
C142   C     0.16397   0.62241   0.15305   0.00000  Uiso   1.00
C143   C     0.18216   0.66492   0.04984   0.00000  Uiso   1.00
C144   C     0.20696   0.55318   0.37222   0.00000  Uiso   1.00
C145   C     0.22599   0.50472   0.38609   0.00000  Uiso   1.00
C146   C     0.28123   0.49946   0.41702   0.00000  Uiso   1.00
C147   C     0.36728   0.47081   0.46662   0.00000  Uiso   1.00
C148   C     0.11821   0.60306   0.39074   0.00000  Uiso   1.00
C149   C     0.06263   0.59653   0.42020   0.00000  Uiso   1.00
C150   C     0.04316   0.63325   0.46672   0.00000  Uiso   1.00
C151   C     0.99142   0.68205   0.54507   0.00000  Uiso   1.00
C152   C     0.21240   0.64435   0.36895   0.00000  Uiso   1.00
C153   C     0.19816   0.64073   0.29027   0.00000  Uiso   1.00
C154   C     0.21664   0.67407   0.23845   0.00000  Uiso   1.00
C155   C     0.19894   0.66420   0.16952   0.00000  Uiso   1.00
C156   C     0.24188   0.59490   0.38866   0.00000  Uiso   1.00
C157   C     0.29711   0.58970   0.41958   0.00000  Uiso   1.00
C158   C     0.31621   0.54125   0.43349   0.00000  Uiso   1.00
C159   C     0.15313   0.64478   0.40718   0.00000  Uiso   1.00
C160   C     0.13375   0.68151   0.45368   0.00000  Uiso   1.00
C161   C     0.07814   0.67505   0.48320   0.00000  Uiso   1.00
H162   H     0.12094   0.53506   0.32589   0.00000  Uiso   1.00
H163   H     0.11850   0.55680   0.19226   0.00000  Uiso   1.00
H164   H     0.19895   0.47245   0.37337   0.00000  Uiso   1.00
H165   H     0.03562   0.56424   0.40746   0.00000  Uiso   1.00
H166   H     0.13121   0.59929   0.05135   0.00000  Uiso   1.00
H167   H     0.30084   0.42143   0.43326   0.00000  Uiso   1.00
H168   H     0.95642   0.61500   0.50515   0.00000  Uiso   1.00
H169   H     0.23959   0.67683   0.38175   0.00000  Uiso   1.00
H170   H     0.24366   0.70635   0.25119   0.00000  Uiso   1.00
H171   H     0.32412   0.62200   0.43230   0.00000  Uiso   1.00
H172   H     0.16078   0.71379   0.46639   0.00000  Uiso   1.00
H173   H     0.23280   0.72067   0.09918   0.00000  Uiso   1.00
H174   H     0.40243   0.54280   0.48109   0.00000  Uiso   1.00
H175   H     0.05801   0.73638   0.55298   0.00000  Uiso   1.00
O176   O     0.18256   0.67684   0.98837   0.00000  Uiso   1.00
O177   O     0.40510   0.44348   0.48942   0.00000  Uiso   1.00
O178   O     0.95323   0.69744   0.58374   0.00000  Uiso   1.00
N179   N     0.15455   0.62382   0.08053   0.00000  Uiso   1.00
N180   N     0.31315   0.45752   0.43758   0.00000  Uiso   1.00
N181   N     0.99115   0.63848   0.50481   0.00000  Uiso   1.00
N182   N     0.20922   0.68913   0.10627   0.00000  Uiso   1.00
N183   N     0.36781   0.52283   0.46332   0.00000  Uiso   1.00
N184   N     0.04581   0.70380   0.53054   0.00000  Uiso   1.00
C185   C     0.14812   0.43246   0.16132   0.00000  Uiso   1.00
C186   C     0.16324   0.40098   0.22617   0.00000  Uiso   1.00
C187   C     0.14552   0.41091   0.29504   0.00000  Uiso   1.00
C188   C     0.16397   0.37759   0.34695   0.00000  Uiso   1.00
C189   C     0.18216   0.33508   0.45016   0.00000  Uiso   1.00
C190   C     0.20696   0.44682   0.12778   0.00000  Uiso   1.00
C191   C     0.22599   0.49528   0.11391   0.00000  Uiso   1.00
C192   C     0.28123   0.50054   0.08298   0.00000  Uiso   1.00
C193   C     0.36728   0.52919   0.03338   0.00000  Uiso   1.00
C194   C     0.11821   0.39694   0.10926   0.00000  Uiso   1.00
C195   C     0.06263   0.40347   0.07980   0.00000  Uiso   1.00
C196   C     0.04316   0.36675   0.03328   0.00000  Uiso   1.00
C197   C     0.99142   0.31795   0.95493   0.00000  Uiso   1.00
C198   C     0.21240   0.35565   0.13105   0.00000  Uiso   1.00
C199   C     0.19816   0.35927   0.20973   0.00000  Uiso   1.00
C200   C     0.21664   0.32593   0.26155   0.00000  Uiso   1.00
C201   C     0.19894   0.33580   0.33048   0.00000  Uiso   1.00
C202   C     0.24188   0.40510   0.11134   0.00000  Uiso   1.00
C203   C     0.29711   0.41030   0.08042   0.00000  Uiso   1.00
C204   C     0.31621   0.45875   0.06651   0.00000  Uiso   1.00
C205   C     0.15313   0.35522   0.09282   0.00000  Uiso   1.00
C206   C     0.13375   0.31849   0.04632   0.00000  Uiso   1.00
C207   C     0.07814   0.32495   0.01680   0.00000  Uiso   1.00
H208   H     0.12094   0.46494   0.17411   0.00000  Uiso   1.00
H209   H     0.11850   0.44320   0.30774   0.00000  Uiso   1.00
H210   H     0.19895   0.52755   0.12663   0.00000  Uiso   1.00
H211   H     0.03562   0.43576   0.09254   0.00000  Uiso   1.00
H212   H     0.13121   0.40071   0.44865   0.00000  Uiso   1.00
H213   H     0.30084   0.57857   0.06674   0.00000  Uiso   1.00
H214   H     0.95642   0.38500   0.99485   0.00000  Uiso   1.00
H215   H     0.23959   0.32317   0.11825   0.00000  Uiso   1.00
H216   H     0.24366   0.29365   0.24881   0.00000  Uiso   1.00
H217   H     0.32412   0.37800   0.06770   0.00000  Uiso   1.00
H218   H     0.16078   0.28621   0.03361   0.00000  Uiso   1.00
H219   H     0.23280   0.27933   0.40082   0.00000  Uiso   1.00
H220   H     0.40243   0.45720   0.01891   0.00000  Uiso   1.00
H221   H     0.05801   0.26362   0.94702   0.00000  Uiso   1.00
O222   O     0.18256   0.32316   0.51163   0.00000  Uiso   1.00
O223   O     0.40510   0.55652   0.01058   0.00000  Uiso   1.00
O224   O     0.95323   0.30256   0.91626   0.00000  Uiso   1.00
N225   N     0.15455   0.37618   0.41947   0.00000  Uiso   1.00
N226   N     0.31315   0.54248   0.06242   0.00000  Uiso   1.00
N227   N     0.99115   0.36152   0.99519   0.00000  Uiso   1.00
N228   N     0.20922   0.31087   0.39373   0.00000  Uiso   1.00
N229   N     0.36781   0.47717   0.03668   0.00000  Uiso   1.00
N230   N     0.04581   0.29620   0.96946   0.00000  Uiso   1.00
C231   C     0.64812   0.93246   0.66132   0.00000  Uiso   1.00
C232   C     0.66324   0.90098   0.72617   0.00000  Uiso   1.00
C233   C     0.64552   0.91091   0.79504   0.00000  Uiso   1.00
C234   C     0.66397   0.87759   0.84695   0.00000  Uiso   1.00
C235   C     0.68216   0.83508   0.95016   0.00000  Uiso   1.00
C236   C     0.70696   0.94682   0.62778   0.00000  Uiso   1.00
C237   C     0.72599   0.99528   0.61391   0.00000  Uiso   1.00
C238   C     0.78123   0.00054   0.58298   0.00000  Uiso   1.00
C239   C     0.86728   0.02919   0.53338   0.00000  Uiso   1.00
C240   C     0.61821   0.89694   0.60926   0.00000  Uiso   1.00
C241   C     0.56263   0.90347   0.57980   0.00000  Uiso   1.00
C242   C     0.54316   0.86675   0.53328   0.00000  Uiso   1.00
C243   C     0.49142   0.81795   0.45493   0.00000  Uiso   1.00
C244   C     0.71240   0.85565   0.63105   0.00000  Uiso   1.00
C245   C     0.69816   0.85927   0.70973   0.00000  Uiso   1.00
C246   C     0.71664   0.82593   0.76155   0.00000  Uiso   1.00
C247   C     0.69894   0.83580   0.83048   0.00000  Uiso   1.00
C248   C     0.74188   0.90510   0.61134   0.00000  Uiso   1.00
C249   C     0.79711   0.91030   0.58042   0.00000  Uiso   1.00
C250   C     0.81621   0.95875   0.56651   0.00000  Uiso   1.00
C251   C     0.65313   0.85522   0.59282   0.00000  Uiso   1.00
C252   C     0.63375   0.81849   0.54632   0.00000  Uiso   1.00
C253   C     0.57814   0.82495   0.51680   0.00000  Uiso   1.00
H254   H     0.62094   0.96494   0.67411   0.00000  Uiso   1.00
H255   H     0.61850   0.94320   0.80774   0.00000  Uiso   1.00
H256   H     0.69895   0.02755   0.62663   0.00000  Uiso   1.00
H257   H     0.53562   0.93576   0.59254   0.00000  Uiso   1.00
H258   H     0.63121   0.90071   0.94865   0.00000  Uiso   1.00
H259   H     0.80084   0.07857   0.56674   0.00000  Uiso   1.00
H260   H     0.45642   0.88500   0.49485   0.00000  Uiso   1.00
H261   H     0.73959   0.82317   0.61825   0.00000  Uiso   1.00
H262   H     0.74366   0.79365   0.74881   0.00000  Uiso   1.00
H263   H     0.82412   0.87800   0.56770   0.00000  Uiso   1.00
H264   H     0.66078   0.78621   0.53361   0.00000  Uiso   1.00
H265   H     0.73280   0.77933   0.90082   0.00000  Uiso   1.00
H266   H     0.90243   0.95720   0.51891   0.00000  Uiso   1.00
H267   H     0.55801   0.76362   0.44702   0.00000  Uiso   1.00
O268   O     0.68256   0.82316   0.01163   0.00000  Uiso   1.00
O269   O     0.90510   0.05652   0.51058   0.00000  Uiso   1.00
O270   O     0.45323   0.80256   0.41626   0.00000  Uiso   1.00
N271   N     0.65455   0.87618   0.91947   0.00000  Uiso   1.00
N272   N     0.81315   0.04248   0.56242   0.00000  Uiso   1.00
N273   N     0.49115   0.86152   0.49519   0.00000  Uiso   1.00
N274   N     0.70922   0.81087   0.89373   0.00000  Uiso   1.00
N275   N     0.86781   0.97717   0.53668   0.00000  Uiso   1.00
N276   N     0.54581   0.79620   0.46946   0.00000  Uiso   1.00
C277   C     0.35188   0.56754   0.66132   0.00000  Uiso   1.00
C278   C     0.33676   0.59902   0.72617   0.00000  Uiso   1.00
C279   C     0.35448   0.58909   0.79504   0.00000  Uiso   1.00
C280   C     0.33603   0.62241   0.84695   0.00000  Uiso   1.00
C281   C     0.31784   0.66492   0.95016   0.00000  Uiso   1.00
C282   C     0.29304   0.55318   0.62778   0.00000  Uiso   1.00
C283   C     0.27401   0.50472   0.61391   0.00000  Uiso   1.00
C284   C     0.21877   0.49946   0.58298   0.00000  Uiso   1.00
C285   C     0.13272   0.47081   0.53338   0.00000  Uiso   1.00
C286   C     0.38179   0.60306   0.60926   0.00000  Uiso   1.00
C287   C     0.43737   0.59653   0.57980   0.00000  Uiso   1.00
C288   C     0.45684   0.63325   0.53328   0.00000  Uiso   1.00
C289   C     0.50858   0.68205   0.45493   0.00000  Uiso   1.00
C290   C     0.28760   0.64435   0.63105   0.00000  Uiso   1.00
C291   C     0.30184   0.64073   0.70973   0.00000  Uiso   1.00
C292   C     0.28336   0.67407   0.76155   0.00000  Uiso   1.00
C293   C     0.30106   0.66420   0.83048   0.00000  Uiso   1.00
C294   C     0.25812   0.59490   0.61134   0.00000  Uiso   1.00
C295   C     0.20289   0.58970   0.58042   0.00000  Uiso   1.00
C296   C     0.18379   0.54125   0.56651   0.00000  Uiso   1.00
C297   C     0.34687   0.64478   0.59282   0.00000  Uiso   1.00
C298   C     0.36625   0.68151   0.54632   0.00000  Uiso   1.00
C299   C     0.42186   0.67505   0.51680   0.00000  Uiso   1.00
H300   H     0.37906   0.53506   0.67411   0.00000  Uiso   1.00
H301   H     0.38150   0.55680   0.80774   0.00000  Uiso   1.00
H302   H     0.30105   0.47245   0.62663   0.00000  Uiso   1.00
H303   H     0.46438   0.56424   0.59254   0.00000  Uiso   1.00
H304   H     0.36879   0.59929   0.94865   0.00000  Uiso   1.00
H305   H     0.19916   0.42143   0.56674   0.00000  Uiso   1.00
H306   H     0.54358   0.61500   0.49485   0.00000  Uiso   1.00
H307   H     0.26041   0.67683   0.61825   0.00000  Uiso   1.00
H308   H     0.25634   0.70635   0.74881   0.00000  Uiso   1.00
H309   H     0.17588   0.62200   0.56770   0.00000  Uiso   1.00
H310   H     0.33922   0.71379   0.53361   0.00000  Uiso   1.00
H311   H     0.26720   0.72067   0.90082   0.00000  Uiso   1.00
H312   H     0.09757   0.54280   0.51891   0.00000  Uiso   1.00
H313   H     0.44199   0.73638   0.44702   0.00000  Uiso   1.00
O314   O     0.31744   0.67684   0.01163   0.00000  Uiso   1.00
O315   O     0.09490   0.44348   0.51058   0.00000  Uiso   1.00
O316   O     0.54677   0.69744   0.41626   0.00000  Uiso   1.00
N317   N     0.34545   0.62382   0.91947   0.00000  Uiso   1.00
N318   N     0.18685   0.45752   0.56242   0.00000  Uiso   1.00
N319   N     0.50885   0.63848   0.49519   0.00000  Uiso   1.00
N320   N     0.29078   0.68913   0.89373   0.00000  Uiso   1.00
N321   N     0.13219   0.52283   0.53668   0.00000  Uiso   1.00
N322   N     0.45419   0.70380   0.46946   0.00000  Uiso   1.00
C323   C     0.85188   0.06754   0.16132   0.00000  Uiso   1.00
C324   C     0.83676   0.09902   0.22617   0.00000  Uiso   1.00
C325   C     0.85448   0.08909   0.29504   0.00000  Uiso   1.00
C326   C     0.83603   0.12241   0.34695   0.00000  Uiso   1.00
C327   C     0.81784   0.16492   0.45016   0.00000  Uiso   1.00
C328   C     0.79304   0.05318   0.12778   0.00000  Uiso   1.00
C329   C     0.77401   0.00472   0.11391   0.00000  Uiso   1.00
C330   C     0.71877   0.99946   0.08298   0.00000  Uiso   1.00
C331   C     0.63272   0.97081   0.03338   0.00000  Uiso   1.00
C332   C     0.88179   0.10306   0.10926   0.00000  Uiso   1.00
C333   C     0.93737   0.09653   0.07980   0.00000  Uiso   1.00
C334   C     0.95684   0.13325   0.03328   0.00000  Uiso   1.00
C335   C     0.00858   0.18205   0.95493   0.00000  Uiso   1.00
C336   C     0.78760   0.14435   0.13105   0.00000  Uiso   1.00
C337   C     0.80184   0.14073   0.20973   0.00000  Uiso   1.00
C338   C     0.78336   0.17407   0.26155   0.00000  Uiso   1.00
C339   C     0.80106   0.16420   0.33048   0.00000  Uiso   1.00
C340   C     0.75812   0.09490   0.11134   0.00000  Uiso   1.00
C341   C     0.70289   0.08970   0.08042   0.00000  Uiso   1.00
C342   C     0.68379   0.04125   0.06651   0.00000  Uiso   1.00
C343   C     0.84687   0.14478   0.09282   0.00000  Uiso   1.00
C344   C     0.86625   0.18151   0.04632   0.00000  Uiso   1.00
C345   C     0.92186   0.17505   0.01680   0.00000  Uiso   1.00
H346   H     0.87906   0.03506   0.17411   0.00000  Uiso   1.00
H347   H     0.88150   0.05680   0.30774   0.00000  Uiso   1.00
H348   H     0.80105   0.97245   0.12663   0.00000  Uiso   1.00
H349   H     0.96438   0.06424   0.09254   0.00000  Uiso   1.00
H350   H     0.86879   0.09929   0.44865   0.00000  Uiso   1.00
H351   H     0.69916   0.92143   0.06674   0.00000  Uiso   1.00
H352   H     0.04358   0.11500   0.99485   0.00000  Uiso   1.00
H353   H     0.76041   0.17683   0.11825   0.00000  Uiso   1.00
H354   H     0.75634   0.20635   0.24881   0.00000  Uiso   1.00
H355   H     0.67588   0.12200   0.06770   0.00000  Uiso   1.00
H356   H     0.83922   0.21379   0.03361   0.00000  Uiso   1.00
H357   H     0.76720   0.22067   0.40082   0.00000  Uiso   1.00
H358   H     0.59757   0.04280   0.01891   0.00000  Uiso   1.00
H359   H     0.94199   0.23638   0.94702   0.00000  Uiso   1.00
O360   O     0.81744   0.17684   0.51163   0.00000  Uiso   1.00
O361   O     0.59490   0.94348   0.01058   0.00000  Uiso   1.00
O362   O     0.04677   0.19744   0.91626   0.00000  Uiso   1.00
N363   N     0.84545   0.12382   0.41947   0.00000  Uiso   1.00
N364   N     0.68685   0.95752   0.06242   0.00000  Uiso   1.00
N365   N     0.00885   0.13848   0.99519   0.00000  Uiso   1.00
N366   N     0.79078   0.18913   0.39373   0.00000  Uiso   1.00
N367   N     0.63219   0.02283   0.03668   0.00000  Uiso   1.00
N368   N     0.95419   0.20380   0.96946   0.00000  Uiso   1.00
C369   C     0.14812   0.06754   0.66132   0.00000  Uiso   1.00
C370   C     0.16324   0.09902   0.72617   0.00000  Uiso   1.00
C371   C     0.14552   0.08909   0.79504   0.00000  Uiso   1.00
C372   C     0.16397   0.12241   0.84695   0.00000  Uiso   1.00
C373   C     0.18216   0.16492   0.95016   0.00000  Uiso   1.00
C374   C     0.20696   0.05318   0.62778   0.00000  Uiso   1.00
C375   C     0.22599   0.00472   0.61391   0.00000  Uiso   1.00
C376   C     0.28123   0.99946   0.58298   0.00000  Uiso   1.00
C377   C     0.36728   0.97081   0.53338   0.00000  Uiso   1.00
C378   C     0.11821   0.10306   0.60926   0.00000  Uiso   1.00
C379   C     0.06263   0.09653   0.57980   0.00000  Uiso   1.00
C380   C     0.04316   0.13325   0.53328   0.00000  Uiso   1.00
C381   C     0.99142   0.18205   0.45493   0.00000  Uiso   1.00
C382   C     0.21240   0.14435   0.63105   0.00000  Uiso   1.00
C383   C     0.19816   0.14073   0.70973   0.00000  Uiso   1.00
C384   C     0.21664   0.17407   0.76155   0.00000  Uiso   1.00
C385   C     0.19894   0.16420   0.83048   0.00000  Uiso   1.00
C386   C     0.24188   0.09490   0.61134   0.00000  Uiso   1.00
C387   C     0.29711   0.08970   0.58042   0.00000  Uiso   1.00
C388   C     0.31621   0.04125   0.56651   0.00000  Uiso   1.00
C389   C     0.15313   0.14478   0.59282   0.00000  Uiso   1.00
C390   C     0.13375   0.18151   0.54632   0.00000  Uiso   1.00
C391   C     0.07814   0.17505   0.51680   0.00000  Uiso   1.00
H392   H     0.12094   0.03506   0.67411   0.00000  Uiso   1.00
H393   H     0.11850   0.05680   0.80774   0.00000  Uiso   1.00
H394   H     0.19895   0.97245   0.62663   0.00000  Uiso   1.00
H395   H     0.03562   0.06424   0.59254   0.00000  Uiso   1.00
H396   H     0.13121   0.09929   0.94865   0.00000  Uiso   1.00
H397   H     0.30084   0.92143   0.56674   0.00000  Uiso   1.00
H398   H     0.95642   0.11500   0.49485   0.00000  Uiso   1.00
H399   H     0.23959   0.17683   0.61825   0.00000  Uiso   1.00
H400   H     0.24366   0.20635   0.74881   0.00000  Uiso   1.00
H401   H     0.32412   0.12200   0.56770   0.00000  Uiso   1.00
H402   H     0.16078   0.21379   0.53361   0.00000  Uiso   1.00
H403   H     0.23280   0.22067   0.90082   0.00000  Uiso   1.00
H404   H     0.40243   0.04280   0.51891   0.00000  Uiso   1.00
H405   H     0.05801   0.23638   0.44702   0.00000  Uiso   1.00
O406   O     0.18256   0.17684   0.01163   0.00000  Uiso   1.00
O407   O     0.40510   0.94348   0.51058   0.00000  Uiso   1.00
O408   O     0.95323   0.19744   0.41626   0.00000  Uiso   1.00
N409   N     0.15455   0.12382   0.91947   0.00000  Uiso   1.00
N410   N     0.31315   0.95752   0.56242   0.00000  Uiso   1.00
N411   N     0.99115   0.13848   0.49519   0.00000  Uiso   1.00
N412   N     0.20922   0.18913   0.89373   0.00000  Uiso   1.00
N413   N     0.36781   0.02283   0.53668   0.00000  Uiso   1.00
N414   N     0.04581   0.20380   0.46946   0.00000  Uiso   1.00
C415   C     0.64812   0.56754   0.16132   0.00000  Uiso   1.00
C416   C     0.66324   0.59902   0.22617   0.00000  Uiso   1.00
C417   C     0.64552   0.58909   0.29504   0.00000  Uiso   1.00
C418   C     0.66397   0.62241   0.34695   0.00000  Uiso   1.00
C419   C     0.68216   0.66492   0.45016   0.00000  Uiso   1.00
C420   C     0.70696   0.55318   0.12778   0.00000  Uiso   1.00
C421   C     0.72599   0.50472   0.11391   0.00000  Uiso   1.00
C422   C     0.78123   0.49946   0.08298   0.00000  Uiso   1.00
C423   C     0.86728   0.47081   0.03338   0.00000  Uiso   1.00
C424   C     0.61821   0.60306   0.10926   0.00000  Uiso   1.00
C425   C     0.56263   0.59653   0.07980   0.00000  Uiso   1.00
C426   C     0.54316   0.63325   0.03328   0.00000  Uiso   1.00
C427   C     0.49142   0.68205   0.95493   0.00000  Uiso   1.00
C428   C     0.71240   0.64435   0.13105   0.00000  Uiso   1.00
C429   C     0.69816   0.64073   0.20973   0.00000  Uiso   1.00
C430   C     0.71664   0.67407   0.26155   0.00000  Uiso   1.00
C431   C     0.69894   0.66420   0.33048   0.00000  Uiso   1.00
C432   C     0.74188   0.59490   0.11134   0.00000  Uiso   1.00
C433   C     0.79711   0.58970   0.08042   0.00000  Uiso   1.00
C434   C     0.81621   0.54125   0.06651   0.00000  Uiso   1.00
C435   C     0.65313   0.64478   0.09282   0.00000  Uiso   1.00
C436   C     0.63375   0.68151   0.04632   0.00000  Uiso   1.00
C437   C     0.57814   0.67505   0.01680   0.00000  Uiso   1.00
H438   H     0.62094   0.53506   0.17411   0.00000  Uiso   1.00
H439   H     0.61850   0.55680   0.30774   0.00000  Uiso   1.00
H440   H     0.69895   0.47245   0.12663   0.00000  Uiso   1.00
H441   H     0.53562   0.56424   0.09254   0.00000  Uiso   1.00
H442   H     0.63121   0.59929   0.44865   0.00000  Uiso   1.00
H443   H     0.80084   0.42143   0.06674   0.00000  Uiso   1.00
H444   H     0.45642   0.61500   0.99485   0.00000  Uiso   1.00
H445   H     0.73959   0.67683   0.11825   0.00000  Uiso   1.00
H446   H     0.74366   0.70635   0.24881   0.00000  Uiso   1.00
H447   H     0.82412   0.62200   0.06770   0.00000  Uiso   1.00
H448   H     0.66078   0.71379   0.03361   0.00000  Uiso   1.00
H449   H     0.73280   0.72067   0.40082   0.00000  Uiso   1.00
H450   H     0.90243   0.54280   0.01891   0.00000  Uiso   1.00
H451   H     0.55801   0.73638   0.94702   0.00000  Uiso   1.00
O452   O     0.68256   0.67684   0.51163   0.00000  Uiso   1.00
O453   O     0.90510   0.44348   0.01058   0.00000  Uiso   1.00
O454   O     0.45323   0.69744   0.91626   0.00000  Uiso   1.00
N455   N     0.65455   0.62382   0.41947   0.00000  Uiso   1.00
N456   N     0.81315   0.45752   0.06242   0.00000  Uiso   1.00
N457   N     0.49115   0.63848   0.99519   0.00000  Uiso   1.00
N458   N     0.70922   0.68913   0.39373   0.00000  Uiso   1.00
N459   N     0.86781   0.52283   0.03668   0.00000  Uiso   1.00
N460   N     0.54581   0.70380   0.96946   0.00000  Uiso   1.00
C461   C     0.35188   0.93246   0.16132   0.00000  Uiso   1.00
C462   C     0.33676   0.90098   0.22617   0.00000  Uiso   1.00
C463   C     0.35448   0.91091   0.29504   0.00000  Uiso   1.00
C464   C     0.33603   0.87759   0.34695   0.00000  Uiso   1.00
C465   C     0.31784   0.83508   0.45016   0.00000  Uiso   1.00
C466   C     0.29304   0.94682   0.12778   0.00000  Uiso   1.00
C467   C     0.27401   0.99528   0.11391   0.00000  Uiso   1.00
C468   C     0.21877   0.00054   0.08298   0.00000  Uiso   1.00
C469   C     0.13272   0.02919   0.03338   0.00000  Uiso   1.00
C470   C     0.38179   0.89694   0.10926   0.00000  Uiso   1.00
C471   C     0.43737   0.90347   0.07980   0.00000  Uiso   1.00
C472   C     0.45684   0.86675   0.03328   0.00000  Uiso   1.00
C473   C     0.50858   0.81795   0.95493   0.00000  Uiso   1.00
C474   C     0.28760   0.85565   0.13105   0.00000  Uiso   1.00
C475   C     0.30184   0.85927   0.20973   0.00000  Uiso   1.00
C476   C     0.28336   0.82593   0.26155   0.00000  Uiso   1.00
C477   C     0.30106   0.83580   0.33048   0.00000  Uiso   1.00
C478   C     0.25812   0.90510   0.11134   0.00000  Uiso   1.00
C479   C     0.20289   0.91030   0.08042   0.00000  Uiso   1.00
C480   C     0.18379   0.95875   0.06651   0.00000  Uiso   1.00
C481   C     0.34687   0.85522   0.09282   0.00000  Uiso   1.00
C482   C     0.36625   0.81849   0.04632   0.00000  Uiso   1.00
C483   C     0.42186   0.82495   0.01680   0.00000  Uiso   1.00
H484   H     0.37906   0.96494   0.17411   0.00000  Uiso   1.00
H485   H     0.38150   0.94320   0.30774   0.00000  Uiso   1.00
H486   H     0.30105   0.02755   0.12663   0.00000  Uiso   1.00
H487   H     0.46438   0.93576   0.09254   0.00000  Uiso   1.00
H488   H     0.36879   0.90071   0.44865   0.00000  Uiso   1.00
H489   H     0.19916   0.07857   0.06674   0.00000  Uiso   1.00
H490   H     0.54358   0.88500   0.99485   0.00000  Uiso   1.00
H491   H     0.26041   0.82317   0.11825   0.00000  Uiso   1.00
H492   H     0.25634   0.79365   0.24881   0.00000  Uiso   1.00
H493   H     0.17588   0.87800   0.06770   0.00000  Uiso   1.00
H494   H     0.33922   0.78621   0.03361   0.00000  Uiso   1.00
H495   H     0.26720   0.77933   0.40082   0.00000  Uiso   1.00
H496   H     0.09757   0.95720   0.01891   0.00000  Uiso   1.00
H497   H     0.44199   0.76362   0.94702   0.00000  Uiso   1.00
O498   O     0.31744   0.82316   0.51163   0.00000  Uiso   1.00
O499   O     0.09490   0.05652   0.01058   0.00000  Uiso   1.00
O500   O     0.54677   0.80256   0.91626   0.00000  Uiso   1.00
N501   N     0.34545   0.87618   0.41947   0.00000  Uiso   1.00
N502   N     0.18685   0.04248   0.06242   0.00000  Uiso   1.00
N503   N     0.50885   0.86152   0.99519   0.00000  Uiso   1.00
N504   N     0.29078   0.81087   0.39373   0.00000  Uiso   1.00
N505   N     0.13219   0.97717   0.03668   0.00000  Uiso   1.00
N506   N     0.45419   0.79620   0.96946   0.00000  Uiso   1.00
C507   C     0.85188   0.43246   0.66132   0.00000  Uiso   1.00
C508   C     0.83676   0.40098   0.72617   0.00000  Uiso   1.00
C509   C     0.85448   0.41091   0.79504   0.00000  Uiso   1.00
C510   C     0.83603   0.37759   0.84695   0.00000  Uiso   1.00
C511   C     0.81784   0.33508   0.95016   0.00000  Uiso   1.00
C512   C     0.79304   0.44682   0.62778   0.00000  Uiso   1.00
C513   C     0.77401   0.49528   0.61391   0.00000  Uiso   1.00
C514   C     0.71877   0.50054   0.58298   0.00000  Uiso   1.00
C515   C     0.63272   0.52919   0.53338   0.00000  Uiso   1.00
C516   C     0.88179   0.39694   0.60926   0.00000  Uiso   1.00
C517   C     0.93737   0.40347   0.57980   0.00000  Uiso   1.00
C518   C     0.95684   0.36675   0.53328   0.00000  Uiso   1.00
C519   C     0.00858   0.31795   0.45493   0.00000  Uiso   1.00
C520   C     0.78760   0.35565   0.63105   0.00000  Uiso   1.00
C521   C     0.80184   0.35927   0.70973   0.00000  Uiso   1.00
C522   C     0.78336   0.32593   0.76155   0.00000  Uiso   1.00
C523   C     0.80106   0.33580   0.83048   0.00000  Uiso   1.00
C524   C     0.75812   0.40510   0.61134   0.00000  Uiso   1.00
C525   C     0.70289   0.41030   0.58042   0.00000  Uiso   1.00
C526   C     0.68379   0.45875   0.56651   0.00000  Uiso   1.00
C527   C     0.84687   0.35522   0.59282   0.00000  Uiso   1.00
C528   C     0.86625   0.31849   0.54632   0.00000  Uiso   1.00
C529   C     0.92186   0.32495   0.51680   0.00000  Uiso   1.00
H530   H     0.87906   0.46494   0.67411   0.00000  Uiso   1.00
H531   H     0.88150   0.44320   0.80774   0.00000  Uiso   1.00
H532   H     0.80105   0.52755   0.62663   0.00000  Uiso   1.00
H533   H     0.96438   0.43576   0.59254   0.00000  Uiso   1.00
H534   H     0.86879   0.40071   0.94865   0.00000  Uiso   1.00
H535   H     0.69916   0.57857   0.56674   0.00000  Uiso   1.00
H536   H     0.04358   0.38500   0.49485   0.00000  Uiso   1.00
H537   H     0.76041   0.32317   0.61825   0.00000  Uiso   1.00
H538   H     0.75634   0.29365   0.74881   0.00000  Uiso   1.00
H539   H     0.67588   0.37800   0.56770   0.00000  Uiso   1.00
H540   H     0.83922   0.28621   0.53361   0.00000  Uiso   1.00
H541   H     0.76720   0.27933   0.90082   0.00000  Uiso   1.00
H542   H     0.59757   0.45720   0.51891   0.00000  Uiso   1.00
H543   H     0.94199   0.26362   0.44702   0.00000  Uiso   1.00
O544   O     0.81744   0.32316   0.01163   0.00000  Uiso   1.00
O545   O     0.59490   0.55652   0.51058   0.00000  Uiso   1.00
O546   O     0.04677   0.30256   0.41626   0.00000  Uiso   1.00
N547   N     0.84545   0.37618   0.91947   0.00000  Uiso   1.00
N548   N     0.68685   0.54248   0.56242   0.00000  Uiso   1.00
N549   N     0.00885   0.36152   0.49519   0.00000  Uiso   1.00
N550   N     0.79078   0.31087   0.89373   0.00000  Uiso   1.00
N551   N     0.63219   0.47717   0.53668   0.00000  Uiso   1.00
N552   N     0.95419   0.29620   0.46946   0.00000  Uiso   1.00
C553   C     0.85188   0.56754   0.83868   0.00000  Uiso   1.00
C554   C     0.83676   0.59902   0.77383   0.00000  Uiso   1.00
C555   C     0.85448   0.58909   0.70496   0.00000  Uiso   1.00
C556   C     0.83603   0.62241   0.65305   0.00000  Uiso   1.00
C557   C     0.81784   0.66492   0.54984   0.00000  Uiso   1.00
C558   C     0.79304   0.55318   0.87222   0.00000  Uiso   1.00
C559   C     0.77401   0.50472   0.88609   0.00000  Uiso   1.00
C560   C     0.71877   0.49946   0.91702   0.00000  Uiso   1.00
C561   C     0.63272   0.47081   0.96662   0.00000  Uiso   1.00
C562   C     0.88179   0.60306   0.89074   0.00000  Uiso   1.00
C563   C     0.93737   0.59653   0.92020   0.00000  Uiso   1.00
C564   C     0.95684   0.63325   0.96672   0.00000  Uiso   1.00
C565   C     0.00858   0.68205   0.04507   0.00000  Uiso   1.00
C566   C     0.78760   0.64435   0.86895   0.00000  Uiso   1.00
C567   C     0.80184   0.64073   0.79027   0.00000  Uiso   1.00
C568   C     0.78336   0.67407   0.73845   0.00000  Uiso   1.00
C569   C     0.80106   0.66420   0.66952   0.00000  Uiso   1.00
C570   C     0.75812   0.59490   0.88866   0.00000  Uiso   1.00
C571   C     0.70289   0.58970   0.91958   0.00000  Uiso   1.00
C572   C     0.68379   0.54125   0.93349   0.00000  Uiso   1.00
C573   C     0.84687   0.64478   0.90718   0.00000  Uiso   1.00
C574   C     0.86625   0.68151   0.95368   0.00000  Uiso   1.00
C575   C     0.92186   0.67505   0.98320   0.00000  Uiso   1.00
H576   H     0.87906   0.53506   0.82589   0.00000  Uiso   1.00
H577   H     0.88150   0.55680   0.69226   0.00000  Uiso   1.00
H578   H     0.80105   0.47245   0.87337   0.00000  Uiso   1.00
H579   H     0.96438   0.56424   0.90746   0.00000  Uiso   1.00
H580   H     0.86879   0.59929   0.55135   0.00000  Uiso   1.00
H581   H     0.69916   0.42143   0.93326   0.00000  Uiso   1.00
H582   H     0.04358   0.61500   0.00515   0.00000  Uiso   1.00
H583   H     0.76041   0.67683   0.88175   0.00000  Uiso   1.00
H584   H     0.75634   0.70635   0.75119   0.00000  Uiso   1.00
H585   H     0.67588   0.62200   0.93230   0.00000  Uiso   1.00
H586   H     0.83922   0.71379   0.96639   0.00000  Uiso   1.00
H587   H     0.76720   0.72067   0.59918   0.00000  Uiso   1.00
H588   H     0.59757   0.54280   0.98109   0.00000  Uiso   1.00
H589   H     0.94199   0.73638   0.05298   0.00000  Uiso   1.00
O590   O     0.81744   0.67684   0.48837   0.00000  Uiso   1.00
O591   O     0.59490   0.44348   0.98942   0.00000  Uiso   1.00
O592   O     0.04677   0.69744   0.08374   0.00000  Uiso   1.00
N593   N     0.84545   0.62382   0.58053   0.00000  Uiso   1.00
N594   N     0.68685   0.45752   0.93758   0.00000  Uiso   1.00
N595   N     0.00885   0.63848   0.00481   0.00000  Uiso   1.00
N596   N     0.79078   0.68913   0.60627   0.00000  Uiso   1.00
N597   N     0.63219   0.52283   0.96332   0.00000  Uiso   1.00
N598   N     0.95419   0.70380   0.03054   0.00000  Uiso   1.00
C599   C     0.35188   0.06754   0.33868   0.00000  Uiso   1.00
C600   C     0.33676   0.09902   0.27383   0.00000  Uiso   1.00
C601   C     0.35448   0.08909   0.20496   0.00000  Uiso   1.00
C602   C     0.33603   0.12241   0.15305   0.00000  Uiso   1.00
C603   C     0.31784   0.16492   0.04984   0.00000  Uiso   1.00
C604   C     0.29304   0.05318   0.37222   0.00000  Uiso   1.00
C605   C     0.27401   0.00472   0.38609   0.00000  Uiso   1.00
C606   C     0.21877   0.99946   0.41702   0.00000  Uiso   1.00
C607   C     0.13272   0.97081   0.46662   0.00000  Uiso   1.00
C608   C     0.38179   0.10306   0.39074   0.00000  Uiso   1.00
C609   C     0.43737   0.09653   0.42020   0.00000  Uiso   1.00
C610   C     0.45684   0.13325   0.46672   0.00000  Uiso   1.00
C611   C     0.50858   0.18205   0.54507   0.00000  Uiso   1.00
C612   C     0.28760   0.14435   0.36895   0.00000  Uiso   1.00
C613   C     0.30184   0.14073   0.29027   0.00000  Uiso   1.00
C614   C     0.28336   0.17407   0.23845   0.00000  Uiso   1.00
C615   C     0.30106   0.16420   0.16952   0.00000  Uiso   1.00
C616   C     0.25812   0.09490   0.38866   0.00000  Uiso   1.00
C617   C     0.20289   0.08970   0.41958   0.00000  Uiso   1.00
C618   C     0.18379   0.04125   0.43349   0.00000  Uiso   1.00
C619   C     0.34687   0.14478   0.40718   0.00000  Uiso   1.00
C620   C     0.36625   0.18151   0.45368   0.00000  Uiso   1.00
C621   C     0.42186   0.17505   0.48320   0.00000  Uiso   1.00
H622   H     0.37906   0.03506   0.32589   0.00000  Uiso   1.00
H623   H     0.38150   0.05680   0.19226   0.00000  Uiso   1.00
H624   H     0.30105   0.97245   0.37337   0.00000  Uiso   1.00
H625   H     0.46438   0.06424   0.40746   0.00000  Uiso   1.00
H626   H     0.36879   0.09929   0.05135   0.00000  Uiso   1.00
H627   H     0.19916   0.92143   0.43326   0.00000  Uiso   1.00
H628   H     0.54358   0.11500   0.50515   0.00000  Uiso   1.00
H629   H     0.26041   0.17683   0.38175   0.00000  Uiso   1.00
H630   H     0.25634   0.20635   0.25119   0.00000  Uiso   1.00
H631   H     0.17588   0.12200   0.43230   0.00000  Uiso   1.00
H632   H     0.33922   0.21379   0.46639   0.00000  Uiso   1.00
H633   H     0.26720   0.22067   0.09918   0.00000  Uiso   1.00
H634   H     0.09757   0.04280   0.48109   0.00000  Uiso   1.00
H635   H     0.44199   0.23638   0.55298   0.00000  Uiso   1.00
O636   O     0.31744   0.17684   0.98837   0.00000  Uiso   1.00
O637   O     0.09490   0.94348   0.48942   0.00000  Uiso   1.00
O638   O     0.54677   0.19744   0.58374   0.00000  Uiso   1.00
N639   N     0.34545   0.12382   0.08053   0.00000  Uiso   1.00
N640   N     0.18685   0.95752   0.43758   0.00000  Uiso   1.00
N641   N     0.50885   0.13848   0.50481   0.00000  Uiso   1.00
N642   N     0.29078   0.18913   0.10627   0.00000  Uiso   1.00
N643   N     0.13219   0.02283   0.46332   0.00000  Uiso   1.00
N644   N     0.45419   0.20380   0.53054   0.00000  Uiso   1.00
C645   C     0.64812   0.43246   0.33868   0.00000  Uiso   1.00
C646   C     0.66324   0.40098   0.27383   0.00000  Uiso   1.00
C647   C     0.64552   0.41091   0.20496   0.00000  Uiso   1.00
C648   C     0.66397   0.37759   0.15305   0.00000  Uiso   1.00
C649   C     0.68216   0.33508   0.04984   0.00000  Uiso   1.00
C650   C     0.70696   0.44682   0.37222   0.00000  Uiso   1.00
C651   C     0.72599   0.49528   0.38609   0.00000  Uiso   1.00
C652   C     0.78123   0.50054   0.41702   0.00000  Uiso   1.00
C653   C     0.86728   0.52919   0.46662   0.00000  Uiso   1.00
C654   C     0.61821   0.39694   0.39074   0.00000  Uiso   1.00
C655   C     0.56263   0.40347   0.42020   0.00000  Uiso   1.00
C656   C     0.54316   0.36675   0.46672   0.00000  Uiso   1.00
C657   C     0.49142   0.31795   0.54507   0.00000  Uiso   1.00
C658   C     0.71240   0.35565   0.36895   0.00000  Uiso   1.00
C659   C     0.69816   0.35927   0.29027   0.00000  Uiso   1.00
C660   C     0.71664   0.32593   0.23845   0.00000  Uiso   1.00
C661   C     0.69894   0.33580   0.16952   0.00000  Uiso   1.00
C662   C     0.74188   0.40510   0.38866   0.00000  Uiso   1.00
C663   C     0.79711   0.41030   0.41958   0.00000  Uiso   1.00
C664   C     0.81621   0.45875   0.43349   0.00000  Uiso   1.00
C665   C     0.65313   0.35522   0.40718   0.00000  Uiso   1.00
C666   C     0.63375   0.31849   0.45368   0.00000  Uiso   1.00
C667   C     0.57814   0.32495   0.48320   0.00000  Uiso   1.00
H668   H     0.62094   0.46494   0.32589   0.00000  Uiso   1.00
H669   H     0.61850   0.44320   0.19226   0.00000  Uiso   1.00
H670   H     0.69895   0.52755   0.37337   0.00000  Uiso   1.00
H671   H     0.53562   0.43576   0.40746   0.00000  Uiso   1.00
H672   H     0.63121   0.40071   0.05135   0.00000  Uiso   1.00
H673   H     0.80084   0.57857   0.43326   0.00000  Uiso   1.00
H674   H     0.45642   0.38500   0.50515   0.00000  Uiso   1.00
H675   H     0.73959   0.32317   0.38175   0.00000  Uiso   1.00
H676   H     0.74366   0.29365   0.25119   0.00000  Uiso   1.00
H677   H     0.82412   0.37800   0.43230   0.00000  Uiso   1.00
H678   H     0.66078   0.28621   0.46639   0.00000  Uiso   1.00
H679   H     0.73280   0.27933   0.09918   0.00000  Uiso   1.00
H680   H     0.90243   0.45720   0.48109   0.00000  Uiso   1.00
H681   H     0.55801   0.26362   0.55298   0.00000  Uiso   1.00
O682   O     0.68256   0.32316   0.98837   0.00000  Uiso   1.00
O683   O     0.90510   0.55652   0.48942   0.00000  Uiso   1.00
O684   O     0.45323   0.30256   0.58374   0.00000  Uiso   1.00
N685   N     0.65455   0.37618   0.08053   0.00000  Uiso   1.00
N686   N     0.81315   0.54248   0.43758   0.00000  Uiso   1.00
N687   N     0.49115   0.36152   0.50481   0.00000  Uiso   1.00
N688   N     0.70922   0.31087   0.10627   0.00000  Uiso   1.00
N689   N     0.86781   0.47717   0.46332   0.00000  Uiso   1.00
N690   N     0.54581   0.29620   0.53054   0.00000  Uiso   1.00
C691   C     0.14812   0.93246   0.83868   0.00000  Uiso   1.00
C692   C     0.16324   0.90098   0.77383   0.00000  Uiso   1.00
C693   C     0.14552   0.91091   0.70496   0.00000  Uiso   1.00
C694   C     0.16397   0.87759   0.65305   0.00000  Uiso   1.00
C695   C     0.18216   0.83508   0.54984   0.00000  Uiso   1.00
C696   C     0.20696   0.94682   0.87222   0.00000  Uiso   1.00
C697   C     0.22599   0.99528   0.88609   0.00000  Uiso   1.00
C698   C     0.28123   0.00054   0.91702   0.00000  Uiso   1.00
C699   C     0.36728   0.02919   0.96662   0.00000  Uiso   1.00
C700   C     0.11821   0.89694   0.89074   0.00000  Uiso   1.00
C701   C     0.06263   0.90347   0.92020   0.00000  Uiso   1.00
C702   C     0.04316   0.86675   0.96672   0.00000  Uiso   1.00
C703   C     0.99142   0.81795   0.04507   0.00000  Uiso   1.00
C704   C     0.21240   0.85565   0.86895   0.00000  Uiso   1.00
C705   C     0.19816   0.85927   0.79027   0.00000  Uiso   1.00
C706   C     0.21664   0.82593   0.73845   0.00000  Uiso   1.00
C707   C     0.19894   0.83580   0.66952   0.00000  Uiso   1.00
C708   C     0.24188   0.90510   0.88866   0.00000  Uiso   1.00
C709   C     0.29711   0.91030   0.91958   0.00000  Uiso   1.00
C710   C     0.31621   0.95875   0.93349   0.00000  Uiso   1.00
C711   C     0.15313   0.85522   0.90718   0.00000  Uiso   1.00
C712   C     0.13375   0.81849   0.95368   0.00000  Uiso   1.00
C713   C     0.07814   0.82495   0.98320   0.00000  Uiso   1.00
H714   H     0.12094   0.96494   0.82589   0.00000  Uiso   1.00
H715   H     0.11850   0.94320   0.69226   0.00000  Uiso   1.00
H716   H     0.19895   0.02755   0.87337   0.00000  Uiso   1.00
H717   H     0.03562   0.93576   0.90746   0.00000  Uiso   1.00
H718   H     0.13121   0.90071   0.55135   0.00000  Uiso   1.00
H719   H     0.30084   0.07857   0.93326   0.00000  Uiso   1.00
H720   H     0.95642   0.88500   0.00515   0.00000  Uiso   1.00
H721   H     0.23959   0.82317   0.88175   0.00000  Uiso   1.00
H722   H     0.24366   0.79365   0.75119   0.00000  Uiso   1.00
H723   H     0.32412   0.87800   0.93230   0.00000  Uiso   1.00
H724   H     0.16078   0.78621   0.96639   0.00000  Uiso   1.00
H725   H     0.23280   0.77933   0.59918   0.00000  Uiso   1.00
H726   H     0.40243   0.95720   0.98109   0.00000  Uiso   1.00
H727   H     0.05801   0.76362   0.05298   0.00000  Uiso   1.00
O728   O     0.18256   0.82316   0.48837   0.00000  Uiso   1.00
O729   O     0.40510   0.05652   0.98942   0.00000  Uiso   1.00
O730   O     0.95323   0.80256   0.08374   0.00000  Uiso   1.00
N731   N     0.15455   0.87618   0.58053   0.00000  Uiso   1.00
N732   N     0.31315   0.04248   0.93758   0.00000  Uiso   1.00
N733   N     0.99115   0.86152   0.00481   0.00000  Uiso   1.00
N734   N     0.20922   0.81087   0.60627   0.00000  Uiso   1.00
N735   N     0.36781   0.97717   0.96332   0.00000  Uiso   1.00
N736   N     0.04581   0.79620   0.03054   0.00000  Uiso   1.00
