data_job_04718
_audit_creation_date              2018-12-19
_audit_creation_method            'Materials Studio'
_symmetry_space_group_name_H-M    'P1'
_symmetry_Int_Tables_number       1
_symmetry_cell_setting            triclinic
loop_
_symmetry_equiv_pos_as_xyz
  x,y,z
_cell_length_a                    23.7403
_cell_length_b                    43.5068
_cell_length_c                    13.7370
_cell_angle_alpha                 90.0000
_cell_angle_beta                  90.0000
_cell_angle_gamma                 90.0000
loop_
_atom_site_label
_atom_site_type_symbol
_atom_site_fract_x
_atom_site_fract_y
_atom_site_fract_z
_atom_site_U_iso_or_equiv
_atom_site_adp_type
_atom_site_occupancy
C1     C     0.15772   0.60215   0.11359   0.00000  Uiso   1.00
C2     C     0.10205   0.58629   0.13695   0.00000  Uiso   1.00
C3     C     0.05744   0.58234   0.07288   0.00000  Uiso   1.00
C4     C     0.01016   0.56723   0.10824   0.00000  Uiso   1.00
C5     C     0.92410   0.54426   0.12991   0.00000  Uiso   1.00
C6     C     0.16418   0.62779   0.18846   0.00000  Uiso   1.00
C7     C     0.17180   0.65873   0.16771   0.00000  Uiso   1.00
C8     C     0.17683   0.67855   0.24643   0.00000  Uiso   1.00
C9     C     0.18725   0.72000   0.34809   0.00000  Uiso   1.00
C10    C     0.20376   0.57880   0.13648   0.00000  Uiso   1.00
C11    C     0.24467   0.56856   0.07202   0.00000  Uiso   1.00
C12    C     0.28303   0.54714   0.10699   0.00000  Uiso   1.00
C13    C     0.35491   0.51253   0.12793   0.00000  Uiso   1.00
C14    C     0.15310   0.58234   0.29031   0.00000  Uiso   1.00
C15    C     0.09954   0.57553   0.23294   0.00000  Uiso   1.00
C16    C     0.05232   0.56043   0.26840   0.00000  Uiso   1.00
C17    C     0.00764   0.55645   0.20440   0.00000  Uiso   1.00
C18    C     0.16166   0.61703   0.28445   0.00000  Uiso   1.00
C19    C     0.16668   0.63681   0.36322   0.00000  Uiso   1.00
C20    C     0.17431   0.66778   0.34259   0.00000  Uiso   1.00
C21    C     0.20125   0.56804   0.23246   0.00000  Uiso   1.00
C22    C     0.23955   0.54664   0.26754   0.00000  Uiso   1.00
C23    C     0.28051   0.53637   0.20315   0.00000  Uiso   1.00
H24    H     0.15968   0.61053   0.03887   0.00000  Uiso   1.00
H25    H     0.05940   0.59067   0.99861   0.00000  Uiso   1.00
H26    H     0.17375   0.66704   0.09342   0.00000  Uiso   1.00
H27    H     0.24660   0.57689   0.99775   0.00000  Uiso   1.00
H28    H     0.94710   0.56392   0.99631   0.00000  Uiso   1.00
H29    H     0.18824   0.72496   0.19623   0.00000  Uiso   1.00
H30    H     0.34187   0.53485   0.99449   0.00000  Uiso   1.00
H31    H     0.15114   0.57397   0.36504   0.00000  Uiso   1.00
H32    H     0.05039   0.55210   0.34268   0.00000  Uiso   1.00
H33    H     0.16474   0.62848   0.43749   0.00000  Uiso   1.00
H34    H     0.23760   0.53832   0.34182   0.00000  Uiso   1.00
H35    H     0.93979   0.53262   0.27558   0.00000  Uiso   1.00
H36    H     0.18093   0.69366   0.47549   0.00000  Uiso   1.00
H37    H     0.33456   0.50355   0.27375   0.00000  Uiso   1.00
O38    O     0.87732   0.53456   0.11536   0.00000  Uiso   1.00
O39    O     0.19369   0.74583   0.37764   0.00000  Uiso   1.00
O40    O     0.39524   0.49641   0.11296   0.00000  Uiso   1.00
N41    N     0.95921   0.55955   0.06510   0.00000  Uiso   1.00
N42    N     0.18465   0.71011   0.25201   0.00000  Uiso   1.00
N43    N     0.32829   0.53238   0.06341   0.00000  Uiso   1.00
N44    N     0.95528   0.54271   0.21537   0.00000  Uiso   1.00
N45    N     0.18072   0.69327   0.40228   0.00000  Uiso   1.00
N46    N     0.32436   0.51554   0.21367   0.00000  Uiso   1.00
C47    C     0.61612   0.60001   0.38807   0.00000  Uiso   1.00
C48    C     0.67173   0.58410   0.36465   0.00000  Uiso   1.00
C49    C     0.71622   0.57995   0.42884   0.00000  Uiso   1.00
C50    C     0.76347   0.56483   0.39340   0.00000  Uiso   1.00
C51    C     0.84943   0.54175   0.37166   0.00000  Uiso   1.00
C52    C     0.60993   0.62581   0.31370   0.00000  Uiso   1.00
C53    C     0.60245   0.65672   0.33505   0.00000  Uiso   1.00
C54    C     0.59766   0.67672   0.25671   0.00000  Uiso   1.00
C55    C     0.58763   0.71839   0.15586   0.00000  Uiso   1.00
C56    C     0.56998   0.57679   0.36449   0.00000  Uiso   1.00
C57    C     0.52891   0.56648   0.42854   0.00000  Uiso   1.00
C58    C     0.49048   0.54521   0.39296   0.00000  Uiso   1.00
C59    C     0.41844   0.51076   0.37098   0.00000  Uiso   1.00
C60    C     0.62091   0.58056   0.21097   0.00000  Uiso   1.00
C61    C     0.67433   0.57354   0.26846   0.00000  Uiso   1.00
C62    C     0.72152   0.55842   0.23291   0.00000  Uiso   1.00
C63    C     0.76608   0.55425   0.29704   0.00000  Uiso   1.00
C64    C     0.61253   0.61525   0.21751   0.00000  Uiso   1.00
C65    C     0.60775   0.63520   0.13911   0.00000  Uiso   1.00
C66    C     0.60027   0.66613   0.16034   0.00000  Uiso   1.00
C67    C     0.57259   0.56622   0.26830   0.00000  Uiso   1.00
C68    C     0.53421   0.54496   0.23261   0.00000  Uiso   1.00
C69    C     0.49309   0.53462   0.29659   0.00000  Uiso   1.00
H70    H     0.61409   0.60824   0.46295   0.00000  Uiso   1.00
H71    H     0.71419   0.58813   0.50328   0.00000  Uiso   1.00
H72    H     0.60043   0.66489   0.40950   0.00000  Uiso   1.00
H73    H     0.52691   0.57467   0.50297   0.00000  Uiso   1.00
H74    H     0.82633   0.56119   0.50555   0.00000  Uiso   1.00
H75    H     0.58643   0.72304   0.30781   0.00000  Uiso   1.00
H76    H     0.43140   0.53278   0.50493   0.00000  Uiso   1.00
H77    H     0.62293   0.57233   0.13608   0.00000  Uiso   1.00
H78    H     0.72352   0.55025   0.15847   0.00000  Uiso   1.00
H79    H     0.60976   0.62701   0.06469   0.00000  Uiso   1.00
H80    H     0.53624   0.53679   0.15817   0.00000  Uiso   1.00
H81    H     0.83390   0.53044   0.22569   0.00000  Uiso   1.00
H82    H     0.59400   0.69230   0.02795   0.00000  Uiso   1.00
H83    H     0.43897   0.50204   0.22507   0.00000  Uiso   1.00
O84    O     0.89614   0.53195   0.38624   0.00000  Uiso   1.00
O85    O     0.58139   0.74429   0.12681   0.00000  Uiso   1.00
O86    O     0.37799   0.49468   0.38543   0.00000  Uiso   1.00
N87    N     0.81430   0.55698   0.43662   0.00000  Uiso   1.00
N88    N     0.59002   0.70830   0.25174   0.00000  Uiso   1.00
N89    N     0.44507   0.53043   0.43603   0.00000  Uiso   1.00
N90    N     0.81838   0.54043   0.28603   0.00000  Uiso   1.00
N91    N     0.59410   0.69176   0.10115   0.00000  Uiso   1.00
N92    N     0.44914   0.51389   0.28544   0.00000  Uiso   1.00
C93    C     0.34228   0.39785   0.11359   0.00000  Uiso   1.00
C94    C     0.39795   0.41371   0.13695   0.00000  Uiso   1.00
C95    C     0.44256   0.41766   0.07288   0.00000  Uiso   1.00
C96    C     0.48984   0.43277   0.10824   0.00000  Uiso   1.00
C97    C     0.57590   0.45574   0.12991   0.00000  Uiso   1.00
C98    C     0.33582   0.37221   0.18846   0.00000  Uiso   1.00
C99    C     0.32820   0.34127   0.16771   0.00000  Uiso   1.00
C100   C     0.32317   0.32145   0.24643   0.00000  Uiso   1.00
C101   C     0.31275   0.28000   0.34809   0.00000  Uiso   1.00
C102   C     0.29624   0.42120   0.13648   0.00000  Uiso   1.00
C103   C     0.25533   0.43144   0.07202   0.00000  Uiso   1.00
C104   C     0.21697   0.45286   0.10699   0.00000  Uiso   1.00
C105   C     0.14509   0.48747   0.12793   0.00000  Uiso   1.00
C106   C     0.34690   0.41766   0.29031   0.00000  Uiso   1.00
C107   C     0.40046   0.42447   0.23294   0.00000  Uiso   1.00
C108   C     0.44768   0.43957   0.26840   0.00000  Uiso   1.00
C109   C     0.49236   0.44355   0.20440   0.00000  Uiso   1.00
C110   C     0.33834   0.38297   0.28445   0.00000  Uiso   1.00
C111   C     0.33332   0.36319   0.36322   0.00000  Uiso   1.00
C112   C     0.32569   0.33222   0.34259   0.00000  Uiso   1.00
C113   C     0.29875   0.43196   0.23246   0.00000  Uiso   1.00
C114   C     0.26045   0.45336   0.26754   0.00000  Uiso   1.00
C115   C     0.21949   0.46363   0.20315   0.00000  Uiso   1.00
H116   H     0.34032   0.38947   0.03887   0.00000  Uiso   1.00
H117   H     0.44060   0.40933   0.99861   0.00000  Uiso   1.00
H118   H     0.32625   0.33296   0.09342   0.00000  Uiso   1.00
H119   H     0.25340   0.42311   0.99775   0.00000  Uiso   1.00
H120   H     0.55290   0.43608   0.99631   0.00000  Uiso   1.00
H121   H     0.31176   0.27504   0.19623   0.00000  Uiso   1.00
H122   H     0.15813   0.46515   0.99449   0.00000  Uiso   1.00
H123   H     0.34886   0.42603   0.36504   0.00000  Uiso   1.00
H124   H     0.44961   0.44790   0.34268   0.00000  Uiso   1.00
H125   H     0.33526   0.37152   0.43749   0.00000  Uiso   1.00
H126   H     0.26240   0.46168   0.34182   0.00000  Uiso   1.00
H127   H     0.56021   0.46738   0.27558   0.00000  Uiso   1.00
H128   H     0.31907   0.30634   0.47549   0.00000  Uiso   1.00
H129   H     0.16544   0.49645   0.27375   0.00000  Uiso   1.00
O130   O     0.62268   0.46544   0.11536   0.00000  Uiso   1.00
O131   O     0.30631   0.25417   0.37764   0.00000  Uiso   1.00
O132   O     0.10476   0.50359   0.11296   0.00000  Uiso   1.00
N133   N     0.54079   0.44045   0.06510   0.00000  Uiso   1.00
N134   N     0.31535   0.28989   0.25201   0.00000  Uiso   1.00
N135   N     0.17171   0.46762   0.06341   0.00000  Uiso   1.00
N136   N     0.54472   0.45729   0.21537   0.00000  Uiso   1.00
N137   N     0.31928   0.30673   0.40228   0.00000  Uiso   1.00
N138   N     0.17564   0.48446   0.21367   0.00000  Uiso   1.00
C139   C     0.88388   0.39999   0.38807   0.00000  Uiso   1.00
C140   C     0.82827   0.41590   0.36465   0.00000  Uiso   1.00
C141   C     0.78378   0.42005   0.42884   0.00000  Uiso   1.00
C142   C     0.73653   0.43517   0.39340   0.00000  Uiso   1.00
C143   C     0.65057   0.45825   0.37166   0.00000  Uiso   1.00
C144   C     0.89007   0.37419   0.31370   0.00000  Uiso   1.00
C145   C     0.89755   0.34328   0.33505   0.00000  Uiso   1.00
C146   C     0.90234   0.32328   0.25671   0.00000  Uiso   1.00
C147   C     0.91237   0.28161   0.15586   0.00000  Uiso   1.00
C148   C     0.93002   0.42321   0.36449   0.00000  Uiso   1.00
C149   C     0.97109   0.43352   0.42854   0.00000  Uiso   1.00
C150   C     0.00952   0.45479   0.39296   0.00000  Uiso   1.00
C151   C     0.08156   0.48924   0.37098   0.00000  Uiso   1.00
C152   C     0.87909   0.41944   0.21097   0.00000  Uiso   1.00
C153   C     0.82567   0.42646   0.26846   0.00000  Uiso   1.00
C154   C     0.77848   0.44158   0.23291   0.00000  Uiso   1.00
C155   C     0.73392   0.44575   0.29704   0.00000  Uiso   1.00
C156   C     0.88747   0.38475   0.21751   0.00000  Uiso   1.00
C157   C     0.89225   0.36480   0.13911   0.00000  Uiso   1.00
C158   C     0.89973   0.33387   0.16034   0.00000  Uiso   1.00
C159   C     0.92741   0.43378   0.26830   0.00000  Uiso   1.00
C160   C     0.96579   0.45504   0.23261   0.00000  Uiso   1.00
C161   C     0.00691   0.46538   0.29659   0.00000  Uiso   1.00
H162   H     0.88591   0.39176   0.46295   0.00000  Uiso   1.00
H163   H     0.78581   0.41187   0.50328   0.00000  Uiso   1.00
H164   H     0.89957   0.33511   0.40950   0.00000  Uiso   1.00
H165   H     0.97309   0.42533   0.50297   0.00000  Uiso   1.00
H166   H     0.67367   0.43881   0.50555   0.00000  Uiso   1.00
H167   H     0.91357   0.27696   0.30781   0.00000  Uiso   1.00
H168   H     0.06860   0.46722   0.50493   0.00000  Uiso   1.00
H169   H     0.87707   0.42767   0.13608   0.00000  Uiso   1.00
H170   H     0.77648   0.44975   0.15847   0.00000  Uiso   1.00
H171   H     0.89024   0.37299   0.06469   0.00000  Uiso   1.00
H172   H     0.96376   0.46321   0.15817   0.00000  Uiso   1.00
H173   H     0.66610   0.46956   0.22569   0.00000  Uiso   1.00
H174   H     0.90600   0.30770   0.02795   0.00000  Uiso   1.00
H175   H     0.06103   0.49796   0.22507   0.00000  Uiso   1.00
O176   O     0.60386   0.46805   0.38624   0.00000  Uiso   1.00
O177   O     0.91861   0.25571   0.12681   0.00000  Uiso   1.00
O178   O     0.12201   0.50532   0.38543   0.00000  Uiso   1.00
N179   N     0.68570   0.44302   0.43662   0.00000  Uiso   1.00
N180   N     0.90998   0.29170   0.25174   0.00000  Uiso   1.00
N181   N     0.05493   0.46957   0.43603   0.00000  Uiso   1.00
N182   N     0.68162   0.45957   0.28603   0.00000  Uiso   1.00
N183   N     0.90590   0.30824   0.10115   0.00000  Uiso   1.00
N184   N     0.05086   0.48611   0.28544   0.00000  Uiso   1.00
C185   C     0.34228   0.10215   0.38641   0.00000  Uiso   1.00
C186   C     0.39795   0.08629   0.36305   0.00000  Uiso   1.00
C187   C     0.44256   0.08234   0.42712   0.00000  Uiso   1.00
C188   C     0.48984   0.06723   0.39176   0.00000  Uiso   1.00
C189   C     0.57590   0.04426   0.37009   0.00000  Uiso   1.00
C190   C     0.33582   0.12779   0.31154   0.00000  Uiso   1.00
C191   C     0.32820   0.15873   0.33229   0.00000  Uiso   1.00
C192   C     0.32317   0.17855   0.25357   0.00000  Uiso   1.00
C193   C     0.31275   0.22000   0.15191   0.00000  Uiso   1.00
C194   C     0.29624   0.07880   0.36352   0.00000  Uiso   1.00
C195   C     0.25533   0.06856   0.42798   0.00000  Uiso   1.00
C196   C     0.21697   0.04714   0.39301   0.00000  Uiso   1.00
C197   C     0.14509   0.01253   0.37207   0.00000  Uiso   1.00
C198   C     0.34690   0.08234   0.20969   0.00000  Uiso   1.00
C199   C     0.40046   0.07553   0.26706   0.00000  Uiso   1.00
C200   C     0.44768   0.06043   0.23160   0.00000  Uiso   1.00
C201   C     0.49236   0.05645   0.29560   0.00000  Uiso   1.00
C202   C     0.33834   0.11703   0.21555   0.00000  Uiso   1.00
C203   C     0.33332   0.13681   0.13678   0.00000  Uiso   1.00
C204   C     0.32569   0.16778   0.15741   0.00000  Uiso   1.00
C205   C     0.29875   0.06804   0.26754   0.00000  Uiso   1.00
C206   C     0.26045   0.04664   0.23246   0.00000  Uiso   1.00
C207   C     0.21949   0.03637   0.29685   0.00000  Uiso   1.00
H208   H     0.34032   0.11053   0.46113   0.00000  Uiso   1.00
H209   H     0.44060   0.09067   0.50139   0.00000  Uiso   1.00
H210   H     0.32625   0.16704   0.40658   0.00000  Uiso   1.00
H211   H     0.25340   0.07689   0.50225   0.00000  Uiso   1.00
H212   H     0.55290   0.06392   0.50369   0.00000  Uiso   1.00
H213   H     0.31176   0.22496   0.30377   0.00000  Uiso   1.00
H214   H     0.15813   0.03485   0.50551   0.00000  Uiso   1.00
H215   H     0.34886   0.07397   0.13496   0.00000  Uiso   1.00
H216   H     0.44961   0.05210   0.15732   0.00000  Uiso   1.00
H217   H     0.33526   0.12848   0.06251   0.00000  Uiso   1.00
H218   H     0.26240   0.03832   0.15818   0.00000  Uiso   1.00
H219   H     0.56021   0.03262   0.22442   0.00000  Uiso   1.00
H220   H     0.31907   0.19366   0.02451   0.00000  Uiso   1.00
H221   H     0.16544   0.00355   0.22625   0.00000  Uiso   1.00
O222   O     0.62268   0.03456   0.38464   0.00000  Uiso   1.00
O223   O     0.30631   0.24583   0.12236   0.00000  Uiso   1.00
O224   O     0.10476   0.99641   0.38704   0.00000  Uiso   1.00
N225   N     0.54079   0.05955   0.43490   0.00000  Uiso   1.00
N226   N     0.31535   0.21011   0.24799   0.00000  Uiso   1.00
N227   N     0.17171   0.03238   0.43659   0.00000  Uiso   1.00
N228   N     0.54472   0.04271   0.28463   0.00000  Uiso   1.00
N229   N     0.31928   0.19327   0.09772   0.00000  Uiso   1.00
N230   N     0.17564   0.01554   0.28633   0.00000  Uiso   1.00
C231   C     0.88388   0.10001   0.11193   0.00000  Uiso   1.00
C232   C     0.82827   0.08410   0.13535   0.00000  Uiso   1.00
C233   C     0.78378   0.07995   0.07116   0.00000  Uiso   1.00
C234   C     0.73653   0.06483   0.10660   0.00000  Uiso   1.00
C235   C     0.65057   0.04175   0.12834   0.00000  Uiso   1.00
C236   C     0.89007   0.12581   0.18630   0.00000  Uiso   1.00
C237   C     0.89755   0.15672   0.16495   0.00000  Uiso   1.00
C238   C     0.90234   0.17672   0.24329   0.00000  Uiso   1.00
C239   C     0.91237   0.21839   0.34414   0.00000  Uiso   1.00
C240   C     0.93002   0.07679   0.13551   0.00000  Uiso   1.00
C241   C     0.97109   0.06648   0.07146   0.00000  Uiso   1.00
C242   C     0.00952   0.04521   0.10704   0.00000  Uiso   1.00
C243   C     0.08156   0.01076   0.12902   0.00000  Uiso   1.00
C244   C     0.87909   0.08056   0.28903   0.00000  Uiso   1.00
C245   C     0.82567   0.07354   0.23154   0.00000  Uiso   1.00
C246   C     0.77848   0.05842   0.26709   0.00000  Uiso   1.00
C247   C     0.73392   0.05425   0.20296   0.00000  Uiso   1.00
C248   C     0.88747   0.11525   0.28249   0.00000  Uiso   1.00
C249   C     0.89225   0.13520   0.36089   0.00000  Uiso   1.00
C250   C     0.89973   0.16613   0.33966   0.00000  Uiso   1.00
C251   C     0.92741   0.06622   0.23170   0.00000  Uiso   1.00
C252   C     0.96579   0.04496   0.26739   0.00000  Uiso   1.00
C253   C     0.00691   0.03462   0.20341   0.00000  Uiso   1.00
H254   H     0.88591   0.10824   0.03705   0.00000  Uiso   1.00
H255   H     0.78581   0.08813   0.99672   0.00000  Uiso   1.00
H256   H     0.89957   0.16489   0.09050   0.00000  Uiso   1.00
H257   H     0.97309   0.07467   0.99703   0.00000  Uiso   1.00
H258   H     0.67367   0.06119   0.99445   0.00000  Uiso   1.00
H259   H     0.91357   0.22304   0.19219   0.00000  Uiso   1.00
H260   H     0.06860   0.03278   0.99507   0.00000  Uiso   1.00
H261   H     0.87707   0.07233   0.36392   0.00000  Uiso   1.00
H262   H     0.77648   0.05025   0.34153   0.00000  Uiso   1.00
H263   H     0.89024   0.12701   0.43531   0.00000  Uiso   1.00
H264   H     0.96376   0.03679   0.34183   0.00000  Uiso   1.00
H265   H     0.66610   0.03044   0.27431   0.00000  Uiso   1.00
H266   H     0.90600   0.19230   0.47205   0.00000  Uiso   1.00
H267   H     0.06103   0.00204   0.27493   0.00000  Uiso   1.00
O268   O     0.60386   0.03195   0.11376   0.00000  Uiso   1.00
O269   O     0.91861   0.24429   0.37319   0.00000  Uiso   1.00
O270   O     0.12201   0.99468   0.11457   0.00000  Uiso   1.00
N271   N     0.68570   0.05698   0.06338   0.00000  Uiso   1.00
N272   N     0.90998   0.20830   0.24826   0.00000  Uiso   1.00
N273   N     0.05493   0.03043   0.06397   0.00000  Uiso   1.00
N274   N     0.68162   0.04043   0.21397   0.00000  Uiso   1.00
N275   N     0.90590   0.19176   0.39885   0.00000  Uiso   1.00
N276   N     0.05086   0.01389   0.21456   0.00000  Uiso   1.00
C277   C     0.15772   0.89785   0.38641   0.00000  Uiso   1.00
C278   C     0.10205   0.91371   0.36305   0.00000  Uiso   1.00
C279   C     0.05744   0.91766   0.42712   0.00000  Uiso   1.00
C280   C     0.01016   0.93277   0.39176   0.00000  Uiso   1.00
C281   C     0.92410   0.95574   0.37009   0.00000  Uiso   1.00
C282   C     0.16418   0.87221   0.31154   0.00000  Uiso   1.00
C283   C     0.17180   0.84127   0.33229   0.00000  Uiso   1.00
C284   C     0.17683   0.82145   0.25357   0.00000  Uiso   1.00
C285   C     0.18725   0.78000   0.15191   0.00000  Uiso   1.00
C286   C     0.20376   0.92120   0.36352   0.00000  Uiso   1.00
C287   C     0.24467   0.93144   0.42798   0.00000  Uiso   1.00
C288   C     0.28303   0.95286   0.39301   0.00000  Uiso   1.00
C289   C     0.35491   0.98747   0.37207   0.00000  Uiso   1.00
C290   C     0.15310   0.91766   0.20969   0.00000  Uiso   1.00
C291   C     0.09954   0.92447   0.26706   0.00000  Uiso   1.00
C292   C     0.05232   0.93957   0.23160   0.00000  Uiso   1.00
C293   C     0.00764   0.94355   0.29560   0.00000  Uiso   1.00
C294   C     0.16166   0.88297   0.21555   0.00000  Uiso   1.00
C295   C     0.16668   0.86319   0.13678   0.00000  Uiso   1.00
C296   C     0.17431   0.83222   0.15741   0.00000  Uiso   1.00
C297   C     0.20125   0.93196   0.26754   0.00000  Uiso   1.00
C298   C     0.23955   0.95336   0.23246   0.00000  Uiso   1.00
C299   C     0.28051   0.96363   0.29685   0.00000  Uiso   1.00
H300   H     0.15968   0.88947   0.46113   0.00000  Uiso   1.00
H301   H     0.05940   0.90933   0.50139   0.00000  Uiso   1.00
H302   H     0.17375   0.83296   0.40658   0.00000  Uiso   1.00
H303   H     0.24660   0.92311   0.50225   0.00000  Uiso   1.00
H304   H     0.94710   0.93608   0.50369   0.00000  Uiso   1.00
H305   H     0.18824   0.77504   0.30377   0.00000  Uiso   1.00
H306   H     0.34187   0.96515   0.50551   0.00000  Uiso   1.00
H307   H     0.15114   0.92603   0.13496   0.00000  Uiso   1.00
H308   H     0.05039   0.94790   0.15732   0.00000  Uiso   1.00
H309   H     0.16474   0.87152   0.06251   0.00000  Uiso   1.00
H310   H     0.23760   0.96168   0.15818   0.00000  Uiso   1.00
H311   H     0.93979   0.96738   0.22442   0.00000  Uiso   1.00
H312   H     0.18093   0.80634   0.02451   0.00000  Uiso   1.00
H313   H     0.33456   0.99645   0.22625   0.00000  Uiso   1.00
O314   O     0.87732   0.96544   0.38464   0.00000  Uiso   1.00
O315   O     0.19369   0.75417   0.12236   0.00000  Uiso   1.00
O316   O     0.39524   0.00359   0.38704   0.00000  Uiso   1.00
N317   N     0.95921   0.94045   0.43490   0.00000  Uiso   1.00
N318   N     0.18465   0.78989   0.24799   0.00000  Uiso   1.00
N319   N     0.32829   0.96762   0.43659   0.00000  Uiso   1.00
N320   N     0.95528   0.95729   0.28463   0.00000  Uiso   1.00
N321   N     0.18072   0.80673   0.09772   0.00000  Uiso   1.00
N322   N     0.32436   0.98446   0.28633   0.00000  Uiso   1.00
C323   C     0.61612   0.89999   0.11193   0.00000  Uiso   1.00
C324   C     0.67173   0.91590   0.13535   0.00000  Uiso   1.00
C325   C     0.71622   0.92005   0.07116   0.00000  Uiso   1.00
C326   C     0.76347   0.93517   0.10660   0.00000  Uiso   1.00
C327   C     0.84943   0.95825   0.12834   0.00000  Uiso   1.00
C328   C     0.60993   0.87419   0.18630   0.00000  Uiso   1.00
C329   C     0.60245   0.84328   0.16495   0.00000  Uiso   1.00
C330   C     0.59766   0.82328   0.24329   0.00000  Uiso   1.00
C331   C     0.58763   0.78161   0.34414   0.00000  Uiso   1.00
C332   C     0.56998   0.92321   0.13551   0.00000  Uiso   1.00
C333   C     0.52891   0.93352   0.07146   0.00000  Uiso   1.00
C334   C     0.49048   0.95479   0.10704   0.00000  Uiso   1.00
C335   C     0.41844   0.98924   0.12902   0.00000  Uiso   1.00
C336   C     0.62091   0.91944   0.28903   0.00000  Uiso   1.00
C337   C     0.67433   0.92646   0.23154   0.00000  Uiso   1.00
C338   C     0.72152   0.94158   0.26709   0.00000  Uiso   1.00
C339   C     0.76608   0.94575   0.20296   0.00000  Uiso   1.00
C340   C     0.61253   0.88475   0.28249   0.00000  Uiso   1.00
C341   C     0.60775   0.86480   0.36089   0.00000  Uiso   1.00
C342   C     0.60027   0.83387   0.33966   0.00000  Uiso   1.00
C343   C     0.57259   0.93378   0.23170   0.00000  Uiso   1.00
C344   C     0.53421   0.95504   0.26739   0.00000  Uiso   1.00
C345   C     0.49309   0.96538   0.20341   0.00000  Uiso   1.00
H346   H     0.61409   0.89176   0.03705   0.00000  Uiso   1.00
H347   H     0.71419   0.91187   0.99672   0.00000  Uiso   1.00
H348   H     0.60043   0.83511   0.09050   0.00000  Uiso   1.00
H349   H     0.52691   0.92533   0.99703   0.00000  Uiso   1.00
H350   H     0.82633   0.93881   0.99445   0.00000  Uiso   1.00
H351   H     0.58643   0.77696   0.19219   0.00000  Uiso   1.00
H352   H     0.43140   0.96722   0.99507   0.00000  Uiso   1.00
H353   H     0.62293   0.92767   0.36392   0.00000  Uiso   1.00
H354   H     0.72352   0.94975   0.34153   0.00000  Uiso   1.00
H355   H     0.60976   0.87299   0.43531   0.00000  Uiso   1.00
H356   H     0.53624   0.96321   0.34183   0.00000  Uiso   1.00
H357   H     0.83390   0.96956   0.27431   0.00000  Uiso   1.00
H358   H     0.59400   0.80770   0.47205   0.00000  Uiso   1.00
H359   H     0.43897   0.99796   0.27493   0.00000  Uiso   1.00
O360   O     0.89614   0.96805   0.11376   0.00000  Uiso   1.00
O361   O     0.58139   0.75571   0.37319   0.00000  Uiso   1.00
O362   O     0.37799   0.00532   0.11457   0.00000  Uiso   1.00
N363   N     0.81430   0.94302   0.06338   0.00000  Uiso   1.00
N364   N     0.59002   0.79170   0.24826   0.00000  Uiso   1.00
N365   N     0.44507   0.96957   0.06397   0.00000  Uiso   1.00
N366   N     0.81838   0.95957   0.21397   0.00000  Uiso   1.00
N367   N     0.59410   0.80824   0.39885   0.00000  Uiso   1.00
N368   N     0.44914   0.98611   0.21456   0.00000  Uiso   1.00
C369   C     0.84228   0.39785   0.88641   0.00000  Uiso   1.00
C370   C     0.89795   0.41371   0.86305   0.00000  Uiso   1.00
C371   C     0.94256   0.41766   0.92712   0.00000  Uiso   1.00
C372   C     0.98984   0.43277   0.89176   0.00000  Uiso   1.00
C373   C     0.07590   0.45574   0.87009   0.00000  Uiso   1.00
C374   C     0.83582   0.37221   0.81154   0.00000  Uiso   1.00
C375   C     0.82820   0.34127   0.83229   0.00000  Uiso   1.00
C376   C     0.82317   0.32145   0.75357   0.00000  Uiso   1.00
C377   C     0.81275   0.28000   0.65191   0.00000  Uiso   1.00
C378   C     0.79624   0.42120   0.86352   0.00000  Uiso   1.00
C379   C     0.75533   0.43144   0.92798   0.00000  Uiso   1.00
C380   C     0.71697   0.45286   0.89301   0.00000  Uiso   1.00
C381   C     0.64509   0.48747   0.87207   0.00000  Uiso   1.00
C382   C     0.84690   0.41766   0.70969   0.00000  Uiso   1.00
C383   C     0.90046   0.42447   0.76706   0.00000  Uiso   1.00
C384   C     0.94768   0.43957   0.73160   0.00000  Uiso   1.00
C385   C     0.99236   0.44355   0.79560   0.00000  Uiso   1.00
C386   C     0.83834   0.38297   0.71555   0.00000  Uiso   1.00
C387   C     0.83332   0.36319   0.63678   0.00000  Uiso   1.00
C388   C     0.82569   0.33222   0.65741   0.00000  Uiso   1.00
C389   C     0.79875   0.43196   0.76754   0.00000  Uiso   1.00
C390   C     0.76045   0.45336   0.73246   0.00000  Uiso   1.00
C391   C     0.71949   0.46363   0.79685   0.00000  Uiso   1.00
H392   H     0.84032   0.38947   0.96113   0.00000  Uiso   1.00
H393   H     0.94060   0.40933   0.00139   0.00000  Uiso   1.00
H394   H     0.82625   0.33296   0.90658   0.00000  Uiso   1.00
H395   H     0.75340   0.42311   0.00225   0.00000  Uiso   1.00
H396   H     0.05290   0.43608   0.00369   0.00000  Uiso   1.00
H397   H     0.81176   0.27504   0.80377   0.00000  Uiso   1.00
H398   H     0.65813   0.46515   0.00551   0.00000  Uiso   1.00
H399   H     0.84886   0.42603   0.63496   0.00000  Uiso   1.00
H400   H     0.94961   0.44790   0.65732   0.00000  Uiso   1.00
H401   H     0.83526   0.37152   0.56251   0.00000  Uiso   1.00
H402   H     0.76240   0.46168   0.65818   0.00000  Uiso   1.00
H403   H     0.06021   0.46738   0.72442   0.00000  Uiso   1.00
H404   H     0.81907   0.30634   0.52451   0.00000  Uiso   1.00
H405   H     0.66544   0.49645   0.72625   0.00000  Uiso   1.00
O406   O     0.12268   0.46544   0.88464   0.00000  Uiso   1.00
O407   O     0.80631   0.25417   0.62236   0.00000  Uiso   1.00
O408   O     0.60476   0.50359   0.88704   0.00000  Uiso   1.00
N409   N     0.04079   0.44045   0.93490   0.00000  Uiso   1.00
N410   N     0.81535   0.28989   0.74799   0.00000  Uiso   1.00
N411   N     0.67171   0.46762   0.93659   0.00000  Uiso   1.00
N412   N     0.04472   0.45729   0.78463   0.00000  Uiso   1.00
N413   N     0.81928   0.30673   0.59772   0.00000  Uiso   1.00
N414   N     0.67564   0.48446   0.78633   0.00000  Uiso   1.00
C415   C     0.38388   0.39999   0.61193   0.00000  Uiso   1.00
C416   C     0.32827   0.41590   0.63535   0.00000  Uiso   1.00
C417   C     0.28378   0.42005   0.57116   0.00000  Uiso   1.00
C418   C     0.23653   0.43517   0.60660   0.00000  Uiso   1.00
C419   C     0.15057   0.45825   0.62834   0.00000  Uiso   1.00
C420   C     0.39007   0.37419   0.68630   0.00000  Uiso   1.00
C421   C     0.39755   0.34328   0.66495   0.00000  Uiso   1.00
C422   C     0.40234   0.32328   0.74329   0.00000  Uiso   1.00
C423   C     0.41237   0.28161   0.84414   0.00000  Uiso   1.00
C424   C     0.43002   0.42321   0.63551   0.00000  Uiso   1.00
C425   C     0.47109   0.43352   0.57146   0.00000  Uiso   1.00
C426   C     0.50952   0.45479   0.60704   0.00000  Uiso   1.00
C427   C     0.58156   0.48924   0.62902   0.00000  Uiso   1.00
C428   C     0.37909   0.41944   0.78903   0.00000  Uiso   1.00
C429   C     0.32567   0.42646   0.73154   0.00000  Uiso   1.00
C430   C     0.27848   0.44158   0.76709   0.00000  Uiso   1.00
C431   C     0.23392   0.44575   0.70296   0.00000  Uiso   1.00
C432   C     0.38747   0.38475   0.78249   0.00000  Uiso   1.00
C433   C     0.39225   0.36480   0.86089   0.00000  Uiso   1.00
C434   C     0.39973   0.33387   0.83966   0.00000  Uiso   1.00
C435   C     0.42741   0.43378   0.73170   0.00000  Uiso   1.00
C436   C     0.46579   0.45504   0.76739   0.00000  Uiso   1.00
C437   C     0.50691   0.46538   0.70341   0.00000  Uiso   1.00
H438   H     0.38591   0.39176   0.53705   0.00000  Uiso   1.00
H439   H     0.28581   0.41187   0.49672   0.00000  Uiso   1.00
H440   H     0.39957   0.33511   0.59050   0.00000  Uiso   1.00
H441   H     0.47309   0.42533   0.49703   0.00000  Uiso   1.00
H442   H     0.17367   0.43881   0.49445   0.00000  Uiso   1.00
H443   H     0.41357   0.27696   0.69219   0.00000  Uiso   1.00
H444   H     0.56860   0.46722   0.49507   0.00000  Uiso   1.00
H445   H     0.37707   0.42767   0.86392   0.00000  Uiso   1.00
H446   H     0.27648   0.44975   0.84153   0.00000  Uiso   1.00
H447   H     0.39024   0.37299   0.93531   0.00000  Uiso   1.00
H448   H     0.46376   0.46321   0.84183   0.00000  Uiso   1.00
H449   H     0.16610   0.46956   0.77431   0.00000  Uiso   1.00
H450   H     0.40600   0.30770   0.97205   0.00000  Uiso   1.00
H451   H     0.56103   0.49796   0.77493   0.00000  Uiso   1.00
O452   O     0.10386   0.46805   0.61376   0.00000  Uiso   1.00
O453   O     0.41861   0.25571   0.87319   0.00000  Uiso   1.00
O454   O     0.62201   0.50532   0.61457   0.00000  Uiso   1.00
N455   N     0.18570   0.44302   0.56338   0.00000  Uiso   1.00
N456   N     0.40998   0.29170   0.74826   0.00000  Uiso   1.00
N457   N     0.55493   0.46957   0.56397   0.00000  Uiso   1.00
N458   N     0.18162   0.45957   0.71397   0.00000  Uiso   1.00
N459   N     0.40590   0.30824   0.89885   0.00000  Uiso   1.00
N460   N     0.55086   0.48611   0.71456   0.00000  Uiso   1.00
C461   C     0.65772   0.60215   0.88641   0.00000  Uiso   1.00
C462   C     0.60205   0.58629   0.86305   0.00000  Uiso   1.00
C463   C     0.55744   0.58234   0.92712   0.00000  Uiso   1.00
C464   C     0.51016   0.56723   0.89176   0.00000  Uiso   1.00
C465   C     0.42410   0.54426   0.87009   0.00000  Uiso   1.00
C466   C     0.66418   0.62779   0.81154   0.00000  Uiso   1.00
C467   C     0.67180   0.65873   0.83229   0.00000  Uiso   1.00
C468   C     0.67683   0.67855   0.75357   0.00000  Uiso   1.00
C469   C     0.68725   0.72000   0.65191   0.00000  Uiso   1.00
C470   C     0.70376   0.57880   0.86352   0.00000  Uiso   1.00
C471   C     0.74467   0.56856   0.92798   0.00000  Uiso   1.00
C472   C     0.78303   0.54714   0.89301   0.00000  Uiso   1.00
C473   C     0.85491   0.51253   0.87207   0.00000  Uiso   1.00
C474   C     0.65310   0.58234   0.70969   0.00000  Uiso   1.00
C475   C     0.59954   0.57553   0.76706   0.00000  Uiso   1.00
C476   C     0.55232   0.56043   0.73160   0.00000  Uiso   1.00
C477   C     0.50764   0.55645   0.79560   0.00000  Uiso   1.00
C478   C     0.66166   0.61703   0.71555   0.00000  Uiso   1.00
C479   C     0.66668   0.63681   0.63678   0.00000  Uiso   1.00
C480   C     0.67431   0.66778   0.65741   0.00000  Uiso   1.00
C481   C     0.70125   0.56804   0.76754   0.00000  Uiso   1.00
C482   C     0.73955   0.54664   0.73246   0.00000  Uiso   1.00
C483   C     0.78051   0.53637   0.79685   0.00000  Uiso   1.00
H484   H     0.65968   0.61053   0.96113   0.00000  Uiso   1.00
H485   H     0.55940   0.59067   0.00139   0.00000  Uiso   1.00
H486   H     0.67375   0.66704   0.90658   0.00000  Uiso   1.00
H487   H     0.74660   0.57689   0.00225   0.00000  Uiso   1.00
H488   H     0.44710   0.56392   0.00369   0.00000  Uiso   1.00
H489   H     0.68824   0.72496   0.80377   0.00000  Uiso   1.00
H490   H     0.84187   0.53485   0.00551   0.00000  Uiso   1.00
H491   H     0.65114   0.57397   0.63496   0.00000  Uiso   1.00
H492   H     0.55039   0.55210   0.65732   0.00000  Uiso   1.00
H493   H     0.66474   0.62848   0.56251   0.00000  Uiso   1.00
H494   H     0.73760   0.53832   0.65818   0.00000  Uiso   1.00
H495   H     0.43979   0.53262   0.72442   0.00000  Uiso   1.00
H496   H     0.68093   0.69366   0.52451   0.00000  Uiso   1.00
H497   H     0.83456   0.50355   0.72625   0.00000  Uiso   1.00
O498   O     0.37732   0.53456   0.88464   0.00000  Uiso   1.00
O499   O     0.69369   0.74583   0.62236   0.00000  Uiso   1.00
O500   O     0.89524   0.49641   0.88704   0.00000  Uiso   1.00
N501   N     0.45921   0.55955   0.93490   0.00000  Uiso   1.00
N502   N     0.68465   0.71011   0.74799   0.00000  Uiso   1.00
N503   N     0.82829   0.53238   0.93659   0.00000  Uiso   1.00
N504   N     0.45528   0.54271   0.78463   0.00000  Uiso   1.00
N505   N     0.68072   0.69327   0.59772   0.00000  Uiso   1.00
N506   N     0.82436   0.51554   0.78633   0.00000  Uiso   1.00
C507   C     0.11612   0.60001   0.61193   0.00000  Uiso   1.00
C508   C     0.17173   0.58410   0.63535   0.00000  Uiso   1.00
C509   C     0.21622   0.57995   0.57116   0.00000  Uiso   1.00
C510   C     0.26347   0.56483   0.60660   0.00000  Uiso   1.00
C511   C     0.34943   0.54175   0.62834   0.00000  Uiso   1.00
C512   C     0.10993   0.62581   0.68630   0.00000  Uiso   1.00
C513   C     0.10245   0.65672   0.66495   0.00000  Uiso   1.00
C514   C     0.09766   0.67672   0.74329   0.00000  Uiso   1.00
C515   C     0.08763   0.71839   0.84414   0.00000  Uiso   1.00
C516   C     0.06998   0.57679   0.63551   0.00000  Uiso   1.00
C517   C     0.02891   0.56648   0.57146   0.00000  Uiso   1.00
C518   C     0.99048   0.54521   0.60704   0.00000  Uiso   1.00
C519   C     0.91844   0.51076   0.62902   0.00000  Uiso   1.00
C520   C     0.12091   0.58056   0.78903   0.00000  Uiso   1.00
C521   C     0.17433   0.57354   0.73154   0.00000  Uiso   1.00
C522   C     0.22152   0.55842   0.76709   0.00000  Uiso   1.00
C523   C     0.26608   0.55425   0.70296   0.00000  Uiso   1.00
C524   C     0.11253   0.61525   0.78249   0.00000  Uiso   1.00
C525   C     0.10775   0.63520   0.86089   0.00000  Uiso   1.00
C526   C     0.10027   0.66613   0.83966   0.00000  Uiso   1.00
C527   C     0.07259   0.56622   0.73170   0.00000  Uiso   1.00
C528   C     0.03421   0.54496   0.76739   0.00000  Uiso   1.00
C529   C     0.99309   0.53462   0.70341   0.00000  Uiso   1.00
H530   H     0.11409   0.60824   0.53705   0.00000  Uiso   1.00
H531   H     0.21419   0.58813   0.49672   0.00000  Uiso   1.00
H532   H     0.10043   0.66489   0.59050   0.00000  Uiso   1.00
H533   H     0.02691   0.57467   0.49703   0.00000  Uiso   1.00
H534   H     0.32633   0.56119   0.49445   0.00000  Uiso   1.00
H535   H     0.08643   0.72304   0.69219   0.00000  Uiso   1.00
H536   H     0.93140   0.53278   0.49507   0.00000  Uiso   1.00
H537   H     0.12293   0.57233   0.86392   0.00000  Uiso   1.00
H538   H     0.22352   0.55025   0.84153   0.00000  Uiso   1.00
H539   H     0.10976   0.62701   0.93531   0.00000  Uiso   1.00
H540   H     0.03624   0.53679   0.84183   0.00000  Uiso   1.00
H541   H     0.33390   0.53044   0.77431   0.00000  Uiso   1.00
H542   H     0.09400   0.69230   0.97205   0.00000  Uiso   1.00
H543   H     0.93897   0.50204   0.77493   0.00000  Uiso   1.00
O544   O     0.39614   0.53195   0.61376   0.00000  Uiso   1.00
O545   O     0.08139   0.74429   0.87319   0.00000  Uiso   1.00
O546   O     0.87799   0.49468   0.61457   0.00000  Uiso   1.00
N547   N     0.31430   0.55698   0.56338   0.00000  Uiso   1.00
N548   N     0.09002   0.70830   0.74826   0.00000  Uiso   1.00
N549   N     0.94507   0.53043   0.56397   0.00000  Uiso   1.00
N550   N     0.31838   0.54043   0.71397   0.00000  Uiso   1.00
N551   N     0.09410   0.69176   0.89885   0.00000  Uiso   1.00
N552   N     0.94914   0.51389   0.71456   0.00000  Uiso   1.00
C553   C     0.65772   0.89785   0.61359   0.00000  Uiso   1.00
C554   C     0.60205   0.91371   0.63695   0.00000  Uiso   1.00
C555   C     0.55744   0.91766   0.57288   0.00000  Uiso   1.00
C556   C     0.51016   0.93277   0.60824   0.00000  Uiso   1.00
C557   C     0.42410   0.95574   0.62991   0.00000  Uiso   1.00
C558   C     0.66418   0.87221   0.68846   0.00000  Uiso   1.00
C559   C     0.67180   0.84127   0.66771   0.00000  Uiso   1.00
C560   C     0.67683   0.82145   0.74643   0.00000  Uiso   1.00
C561   C     0.68725   0.78000   0.84809   0.00000  Uiso   1.00
C562   C     0.70376   0.92120   0.63648   0.00000  Uiso   1.00
C563   C     0.74467   0.93144   0.57202   0.00000  Uiso   1.00
C564   C     0.78303   0.95286   0.60699   0.00000  Uiso   1.00
C565   C     0.85491   0.98747   0.62793   0.00000  Uiso   1.00
C566   C     0.65310   0.91766   0.79031   0.00000  Uiso   1.00
C567   C     0.59954   0.92447   0.73294   0.00000  Uiso   1.00
C568   C     0.55232   0.93957   0.76840   0.00000  Uiso   1.00
C569   C     0.50764   0.94355   0.70440   0.00000  Uiso   1.00
C570   C     0.66166   0.88297   0.78445   0.00000  Uiso   1.00
C571   C     0.66668   0.86319   0.86322   0.00000  Uiso   1.00
C572   C     0.67431   0.83222   0.84259   0.00000  Uiso   1.00
C573   C     0.70125   0.93196   0.73246   0.00000  Uiso   1.00
C574   C     0.73955   0.95336   0.76754   0.00000  Uiso   1.00
C575   C     0.78051   0.96363   0.70315   0.00000  Uiso   1.00
H576   H     0.65968   0.88947   0.53887   0.00000  Uiso   1.00
H577   H     0.55940   0.90933   0.49861   0.00000  Uiso   1.00
H578   H     0.67375   0.83296   0.59342   0.00000  Uiso   1.00
H579   H     0.74660   0.92311   0.49775   0.00000  Uiso   1.00
H580   H     0.44710   0.93608   0.49631   0.00000  Uiso   1.00
H581   H     0.68824   0.77504   0.69623   0.00000  Uiso   1.00
H582   H     0.84187   0.96515   0.49449   0.00000  Uiso   1.00
H583   H     0.65114   0.92603   0.86504   0.00000  Uiso   1.00
H584   H     0.55039   0.94790   0.84268   0.00000  Uiso   1.00
H585   H     0.66474   0.87152   0.93749   0.00000  Uiso   1.00
H586   H     0.73760   0.96168   0.84182   0.00000  Uiso   1.00
H587   H     0.43979   0.96738   0.77558   0.00000  Uiso   1.00
H588   H     0.68093   0.80634   0.97549   0.00000  Uiso   1.00
H589   H     0.83456   0.99645   0.77375   0.00000  Uiso   1.00
O590   O     0.37732   0.96544   0.61536   0.00000  Uiso   1.00
O591   O     0.69369   0.75417   0.87764   0.00000  Uiso   1.00
O592   O     0.89524   0.00359   0.61296   0.00000  Uiso   1.00
N593   N     0.45921   0.94045   0.56510   0.00000  Uiso   1.00
N594   N     0.68465   0.78989   0.75201   0.00000  Uiso   1.00
N595   N     0.82829   0.96762   0.56341   0.00000  Uiso   1.00
N596   N     0.45528   0.95729   0.71537   0.00000  Uiso   1.00
N597   N     0.68072   0.80673   0.90228   0.00000  Uiso   1.00
N598   N     0.82436   0.98446   0.71367   0.00000  Uiso   1.00
C599   C     0.11612   0.89999   0.88807   0.00000  Uiso   1.00
C600   C     0.17173   0.91590   0.86465   0.00000  Uiso   1.00
C601   C     0.21622   0.92005   0.92884   0.00000  Uiso   1.00
C602   C     0.26347   0.93517   0.89340   0.00000  Uiso   1.00
C603   C     0.34943   0.95825   0.87166   0.00000  Uiso   1.00
C604   C     0.10993   0.87419   0.81370   0.00000  Uiso   1.00
C605   C     0.10245   0.84328   0.83505   0.00000  Uiso   1.00
C606   C     0.09766   0.82328   0.75671   0.00000  Uiso   1.00
C607   C     0.08763   0.78161   0.65586   0.00000  Uiso   1.00
C608   C     0.06998   0.92321   0.86449   0.00000  Uiso   1.00
C609   C     0.02891   0.93352   0.92854   0.00000  Uiso   1.00
C610   C     0.99048   0.95479   0.89296   0.00000  Uiso   1.00
C611   C     0.91844   0.98924   0.87098   0.00000  Uiso   1.00
C612   C     0.12091   0.91944   0.71097   0.00000  Uiso   1.00
C613   C     0.17433   0.92646   0.76846   0.00000  Uiso   1.00
C614   C     0.22152   0.94158   0.73291   0.00000  Uiso   1.00
C615   C     0.26608   0.94575   0.79704   0.00000  Uiso   1.00
C616   C     0.11253   0.88475   0.71751   0.00000  Uiso   1.00
C617   C     0.10775   0.86480   0.63911   0.00000  Uiso   1.00
C618   C     0.10027   0.83387   0.66034   0.00000  Uiso   1.00
C619   C     0.07259   0.93378   0.76830   0.00000  Uiso   1.00
C620   C     0.03421   0.95504   0.73261   0.00000  Uiso   1.00
C621   C     0.99309   0.96538   0.79659   0.00000  Uiso   1.00
H622   H     0.11409   0.89176   0.96295   0.00000  Uiso   1.00
H623   H     0.21419   0.91187   0.00328   0.00000  Uiso   1.00
H624   H     0.10043   0.83511   0.90950   0.00000  Uiso   1.00
H625   H     0.02691   0.92533   0.00297   0.00000  Uiso   1.00
H626   H     0.32633   0.93881   0.00555   0.00000  Uiso   1.00
H627   H     0.08643   0.77696   0.80781   0.00000  Uiso   1.00
H628   H     0.93140   0.96722   0.00493   0.00000  Uiso   1.00
H629   H     0.12293   0.92767   0.63608   0.00000  Uiso   1.00
H630   H     0.22352   0.94975   0.65847   0.00000  Uiso   1.00
H631   H     0.10976   0.87299   0.56469   0.00000  Uiso   1.00
H632   H     0.03624   0.96321   0.65817   0.00000  Uiso   1.00
H633   H     0.33390   0.96956   0.72569   0.00000  Uiso   1.00
H634   H     0.09400   0.80770   0.52795   0.00000  Uiso   1.00
H635   H     0.93897   0.99796   0.72507   0.00000  Uiso   1.00
O636   O     0.39614   0.96805   0.88624   0.00000  Uiso   1.00
O637   O     0.08139   0.75571   0.62681   0.00000  Uiso   1.00
O638   O     0.87799   0.00532   0.88543   0.00000  Uiso   1.00
N639   N     0.31430   0.94302   0.93662   0.00000  Uiso   1.00
N640   N     0.09002   0.79170   0.75174   0.00000  Uiso   1.00
N641   N     0.94507   0.96957   0.93603   0.00000  Uiso   1.00
N642   N     0.31838   0.95957   0.78603   0.00000  Uiso   1.00
N643   N     0.09410   0.80824   0.60115   0.00000  Uiso   1.00
N644   N     0.94914   0.98611   0.78544   0.00000  Uiso   1.00
C645   C     0.84228   0.10215   0.61359   0.00000  Uiso   1.00
C646   C     0.89795   0.08629   0.63695   0.00000  Uiso   1.00
C647   C     0.94256   0.08234   0.57288   0.00000  Uiso   1.00
C648   C     0.98984   0.06723   0.60824   0.00000  Uiso   1.00
C649   C     0.07590   0.04426   0.62991   0.00000  Uiso   1.00
C650   C     0.83582   0.12779   0.68846   0.00000  Uiso   1.00
C651   C     0.82820   0.15873   0.66771   0.00000  Uiso   1.00
C652   C     0.82317   0.17855   0.74643   0.00000  Uiso   1.00
C653   C     0.81275   0.22000   0.84809   0.00000  Uiso   1.00
C654   C     0.79624   0.07880   0.63648   0.00000  Uiso   1.00
C655   C     0.75533   0.06856   0.57202   0.00000  Uiso   1.00
C656   C     0.71697   0.04714   0.60699   0.00000  Uiso   1.00
C657   C     0.64509   0.01253   0.62793   0.00000  Uiso   1.00
C658   C     0.84690   0.08234   0.79031   0.00000  Uiso   1.00
C659   C     0.90046   0.07553   0.73294   0.00000  Uiso   1.00
C660   C     0.94768   0.06043   0.76840   0.00000  Uiso   1.00
C661   C     0.99236   0.05645   0.70440   0.00000  Uiso   1.00
C662   C     0.83834   0.11703   0.78445   0.00000  Uiso   1.00
C663   C     0.83332   0.13681   0.86322   0.00000  Uiso   1.00
C664   C     0.82569   0.16778   0.84259   0.00000  Uiso   1.00
C665   C     0.79875   0.06804   0.73246   0.00000  Uiso   1.00
C666   C     0.76045   0.04664   0.76754   0.00000  Uiso   1.00
C667   C     0.71949   0.03637   0.70315   0.00000  Uiso   1.00
H668   H     0.84032   0.11053   0.53887   0.00000  Uiso   1.00
H669   H     0.94060   0.09067   0.49861   0.00000  Uiso   1.00
H670   H     0.82625   0.16704   0.59342   0.00000  Uiso   1.00
H671   H     0.75340   0.07689   0.49775   0.00000  Uiso   1.00
H672   H     0.05290   0.06392   0.49631   0.00000  Uiso   1.00
H673   H     0.81176   0.22496   0.69623   0.00000  Uiso   1.00
H674   H     0.65813   0.03485   0.49449   0.00000  Uiso   1.00
H675   H     0.84886   0.07397   0.86504   0.00000  Uiso   1.00
H676   H     0.94961   0.05210   0.84268   0.00000  Uiso   1.00
H677   H     0.83526   0.12848   0.93749   0.00000  Uiso   1.00
H678   H     0.76240   0.03832   0.84182   0.00000  Uiso   1.00
H679   H     0.06021   0.03262   0.77558   0.00000  Uiso   1.00
H680   H     0.81907   0.19366   0.97549   0.00000  Uiso   1.00
H681   H     0.66544   0.00355   0.77375   0.00000  Uiso   1.00
O682   O     0.12268   0.03456   0.61536   0.00000  Uiso   1.00
O683   O     0.80631   0.24583   0.87764   0.00000  Uiso   1.00
O684   O     0.60476   0.99641   0.61296   0.00000  Uiso   1.00
N685   N     0.04079   0.05955   0.56510   0.00000  Uiso   1.00
N686   N     0.81535   0.21011   0.75201   0.00000  Uiso   1.00
N687   N     0.67171   0.03238   0.56341   0.00000  Uiso   1.00
N688   N     0.04472   0.04271   0.71537   0.00000  Uiso   1.00
N689   N     0.81928   0.19327   0.90228   0.00000  Uiso   1.00
N690   N     0.67564   0.01554   0.71367   0.00000  Uiso   1.00
C691   C     0.38388   0.10001   0.88807   0.00000  Uiso   1.00
C692   C     0.32827   0.08410   0.86465   0.00000  Uiso   1.00
C693   C     0.28378   0.07995   0.92884   0.00000  Uiso   1.00
C694   C     0.23653   0.06483   0.89340   0.00000  Uiso   1.00
C695   C     0.15057   0.04175   0.87166   0.00000  Uiso   1.00
C696   C     0.39007   0.12581   0.81370   0.00000  Uiso   1.00
C697   C     0.39755   0.15672   0.83505   0.00000  Uiso   1.00
C698   C     0.40234   0.17672   0.75671   0.00000  Uiso   1.00
C699   C     0.41237   0.21839   0.65586   0.00000  Uiso   1.00
C700   C     0.43002   0.07679   0.86449   0.00000  Uiso   1.00
C701   C     0.47109   0.06648   0.92854   0.00000  Uiso   1.00
C702   C     0.50952   0.04521   0.89296   0.00000  Uiso   1.00
C703   C     0.58156   0.01076   0.87098   0.00000  Uiso   1.00
C704   C     0.37909   0.08056   0.71097   0.00000  Uiso   1.00
C705   C     0.32567   0.07354   0.76846   0.00000  Uiso   1.00
C706   C     0.27848   0.05842   0.73291   0.00000  Uiso   1.00
C707   C     0.23392   0.05425   0.79704   0.00000  Uiso   1.00
C708   C     0.38747   0.11525   0.71751   0.00000  Uiso   1.00
C709   C     0.39225   0.13520   0.63911   0.00000  Uiso   1.00
C710   C     0.39973   0.16613   0.66034   0.00000  Uiso   1.00
C711   C     0.42741   0.06622   0.76830   0.00000  Uiso   1.00
C712   C     0.46579   0.04496   0.73261   0.00000  Uiso   1.00
C713   C     0.50691   0.03462   0.79659   0.00000  Uiso   1.00
H714   H     0.38591   0.10824   0.96295   0.00000  Uiso   1.00
H715   H     0.28581   0.08813   0.00328   0.00000  Uiso   1.00
H716   H     0.39957   0.16489   0.90950   0.00000  Uiso   1.00
H717   H     0.47309   0.07467   0.00297   0.00000  Uiso   1.00
H718   H     0.17367   0.06119   0.00555   0.00000  Uiso   1.00
H719   H     0.41357   0.22304   0.80781   0.00000  Uiso   1.00
H720   H     0.56860   0.03278   0.00493   0.00000  Uiso   1.00
H721   H     0.37707   0.07233   0.63608   0.00000  Uiso   1.00
H722   H     0.27648   0.05025   0.65847   0.00000  Uiso   1.00
H723   H     0.39024   0.12701   0.56469   0.00000  Uiso   1.00
H724   H     0.46376   0.03679   0.65817   0.00000  Uiso   1.00
H725   H     0.16610   0.03044   0.72569   0.00000  Uiso   1.00
H726   H     0.40600   0.19230   0.52795   0.00000  Uiso   1.00
H727   H     0.56103   0.00204   0.72507   0.00000  Uiso   1.00
O728   O     0.10386   0.03195   0.88624   0.00000  Uiso   1.00
O729   O     0.41861   0.24429   0.62681   0.00000  Uiso   1.00
O730   O     0.62201   0.99468   0.88543   0.00000  Uiso   1.00
N731   N     0.18570   0.05698   0.93662   0.00000  Uiso   1.00
N732   N     0.40998   0.20830   0.75174   0.00000  Uiso   1.00
N733   N     0.55493   0.03043   0.93603   0.00000  Uiso   1.00
N734   N     0.18162   0.04043   0.78603   0.00000  Uiso   1.00
N735   N     0.40590   0.19176   0.60115   0.00000  Uiso   1.00
N736   N     0.55086   0.01389   0.78544   0.00000  Uiso   1.00
