data_job_02666
_audit_creation_date              2018-12-19
_audit_creation_method            'Materials Studio'
_symmetry_space_group_name_H-M    'P1'
_symmetry_Int_Tables_number       1
_symmetry_cell_setting            triclinic
loop_
_symmetry_equiv_pos_as_xyz
  x,y,z
_cell_length_a                    18.0483
_cell_length_b                    18.0483
_cell_length_c                    30.0551
_cell_angle_alpha                 90.0000
_cell_angle_beta                  90.0000
_cell_angle_gamma                 90.0000
loop_
_atom_site_label
_atom_site_type_symbol
_atom_site_fract_x
_atom_site_fract_y
_atom_site_fract_z
_atom_site_U_iso_or_equiv
_atom_site_adp_type
_atom_site_occupancy
C1     C     0.80245   0.43019   0.13231   0.00000  Uiso   1.00
C2     C     0.73955   0.37886   0.11826   0.00000  Uiso   1.00
C3     C     0.74771   0.31100   0.09711   0.00000  Uiso   1.00
C4     C     0.68331   0.27243   0.08701   0.00000  Uiso   1.00
C5     C     0.59628   0.18844   0.06354   0.00000  Uiso   1.00
C6     C     0.78694   0.50451   0.11006   0.00000  Uiso   1.00
C7     C     0.83496   0.54230   0.08202   0.00000  Uiso   1.00
C8     C     0.81046   0.60951   0.06503   0.00000  Uiso   1.00
C9     C     0.79704   0.72063   0.02886   0.00000  Uiso   1.00
C10    C     0.79253   0.44294   0.18211   0.00000  Uiso   1.00
C11    C     0.84526   0.42898   0.21466   0.00000  Uiso   1.00
C12    C     0.82547   0.44437   0.25834   0.00000  Uiso   1.00
C13    C     0.82073   0.45989   0.33404   0.00000  Uiso   1.00
C14    C     0.67356   0.48237   0.15200   0.00000  Uiso   1.00
C15    C     0.66954   0.40721   0.12895   0.00000  Uiso   1.00
C16    C     0.60511   0.36873   0.11888   0.00000  Uiso   1.00
C17    C     0.61317   0.30082   0.09772   0.00000  Uiso   1.00
C18    C     0.71694   0.53286   0.12075   0.00000  Uiso   1.00
C19    C     0.69236   0.60003   0.10380   0.00000  Uiso   1.00
C20    C     0.74033   0.63791   0.07574   0.00000  Uiso   1.00
C21    C     0.72253   0.47128   0.19281   0.00000  Uiso   1.00
C22    C     0.70266   0.48670   0.23644   0.00000  Uiso   1.00
C23    C     0.75534   0.47276   0.26905   0.00000  Uiso   1.00
H24    H     0.85695   0.40813   0.12399   0.00000  Uiso   1.00
H25    H     0.80189   0.28909   0.08883   0.00000  Uiso   1.00
H26    H     0.88913   0.52036   0.07376   0.00000  Uiso   1.00
H27    H     0.89942   0.40705   0.20638   0.00000  Uiso   1.00
H28    H     0.70997   0.16962   0.05456   0.00000  Uiso   1.00
H29    H     0.89393   0.65728   0.02278   0.00000  Uiso   1.00
H30    H     0.91564   0.41835   0.30244   0.00000  Uiso   1.00
H31    H     0.61906   0.50443   0.16032   0.00000  Uiso   1.00
H32    H     0.55095   0.39067   0.12716   0.00000  Uiso   1.00
H33    H     0.63819   0.62195   0.11208   0.00000  Uiso   1.00
H34    H     0.64848   0.50864   0.24470   0.00000  Uiso   1.00
H35    H     0.50630   0.25208   0.08566   0.00000  Uiso   1.00
H36    H     0.69026   0.73974   0.05388   0.00000  Uiso   1.00
H37    H     0.71197   0.50080   0.33354   0.00000  Uiso   1.00
O38    O     0.56762   0.13429   0.04763   0.00000  Uiso   1.00
O39    O     0.80897   0.77408   0.00594   0.00000  Uiso   1.00
O40    O     0.83745   0.46061   0.37284   0.00000  Uiso   1.00
N41    N     0.67139   0.20463   0.06644   0.00000  Uiso   1.00
N42    N     0.84337   0.66056   0.03672   0.00000  Uiso   1.00
N43    N     0.86368   0.43720   0.29818   0.00000  Uiso   1.00
N44    N     0.56179   0.24900   0.08318   0.00000  Uiso   1.00
N45    N     0.73378   0.70493   0.05346   0.00000  Uiso   1.00
N46    N     0.75408   0.48156   0.31491   0.00000  Uiso   1.00
C47    C     0.30245   0.93019   0.63231   0.00000  Uiso   1.00
C48    C     0.23955   0.87886   0.61826   0.00000  Uiso   1.00
C49    C     0.24771   0.81100   0.59711   0.00000  Uiso   1.00
C50    C     0.18331   0.77243   0.58701   0.00000  Uiso   1.00
C51    C     0.09628   0.68844   0.56354   0.00000  Uiso   1.00
C52    C     0.28694   0.00451   0.61006   0.00000  Uiso   1.00
C53    C     0.33496   0.04230   0.58202   0.00000  Uiso   1.00
C54    C     0.31046   0.10951   0.56503   0.00000  Uiso   1.00
C55    C     0.29704   0.22063   0.52886   0.00000  Uiso   1.00
C56    C     0.29253   0.94294   0.68211   0.00000  Uiso   1.00
C57    C     0.34526   0.92898   0.71466   0.00000  Uiso   1.00
C58    C     0.32547   0.94437   0.75834   0.00000  Uiso   1.00
C59    C     0.32073   0.95989   0.83404   0.00000  Uiso   1.00
C60    C     0.17356   0.98237   0.65200   0.00000  Uiso   1.00
C61    C     0.16954   0.90721   0.62895   0.00000  Uiso   1.00
C62    C     0.10511   0.86873   0.61888   0.00000  Uiso   1.00
C63    C     0.11317   0.80082   0.59772   0.00000  Uiso   1.00
C64    C     0.21694   0.03286   0.62075   0.00000  Uiso   1.00
C65    C     0.19236   0.10003   0.60380   0.00000  Uiso   1.00
C66    C     0.24033   0.13791   0.57574   0.00000  Uiso   1.00
C67    C     0.22253   0.97128   0.69281   0.00000  Uiso   1.00
C68    C     0.20266   0.98670   0.73644   0.00000  Uiso   1.00
C69    C     0.25534   0.97276   0.76905   0.00000  Uiso   1.00
H70    H     0.35695   0.90813   0.62399   0.00000  Uiso   1.00
H71    H     0.30189   0.78909   0.58883   0.00000  Uiso   1.00
H72    H     0.38913   0.02036   0.57376   0.00000  Uiso   1.00
H73    H     0.39942   0.90705   0.70638   0.00000  Uiso   1.00
H74    H     0.20997   0.66962   0.55456   0.00000  Uiso   1.00
H75    H     0.39393   0.15728   0.52278   0.00000  Uiso   1.00
H76    H     0.41564   0.91835   0.80244   0.00000  Uiso   1.00
H77    H     0.11906   0.00443   0.66032   0.00000  Uiso   1.00
H78    H     0.05095   0.89067   0.62716   0.00000  Uiso   1.00
H79    H     0.13819   0.12195   0.61208   0.00000  Uiso   1.00
H80    H     0.14848   0.00864   0.74470   0.00000  Uiso   1.00
H81    H     0.00630   0.75208   0.58566   0.00000  Uiso   1.00
H82    H     0.19026   0.23974   0.55388   0.00000  Uiso   1.00
H83    H     0.21197   0.00080   0.83354   0.00000  Uiso   1.00
O84    O     0.06762   0.63429   0.54763   0.00000  Uiso   1.00
O85    O     0.30897   0.27408   0.50594   0.00000  Uiso   1.00
O86    O     0.33745   0.96061   0.87284   0.00000  Uiso   1.00
N87    N     0.17139   0.70463   0.56644   0.00000  Uiso   1.00
N88    N     0.34337   0.16056   0.53672   0.00000  Uiso   1.00
N89    N     0.36368   0.93720   0.79818   0.00000  Uiso   1.00
N90    N     0.06179   0.74900   0.58318   0.00000  Uiso   1.00
N91    N     0.23378   0.20493   0.55346   0.00000  Uiso   1.00
N92    N     0.25408   0.98156   0.81491   0.00000  Uiso   1.00
C93    C     0.69755   0.06981   0.63231   0.00000  Uiso   1.00
C94    C     0.76045   0.12114   0.61826   0.00000  Uiso   1.00
C95    C     0.75229   0.18900   0.59711   0.00000  Uiso   1.00
C96    C     0.81669   0.22757   0.58701   0.00000  Uiso   1.00
C97    C     0.90372   0.31156   0.56354   0.00000  Uiso   1.00
C98    C     0.71306   0.99549   0.61006   0.00000  Uiso   1.00
C99    C     0.66504   0.95770   0.58202   0.00000  Uiso   1.00
C100   C     0.68954   0.89049   0.56503   0.00000  Uiso   1.00
C101   C     0.70296   0.77937   0.52886   0.00000  Uiso   1.00
C102   C     0.70747   0.05706   0.68211   0.00000  Uiso   1.00
C103   C     0.65474   0.07102   0.71466   0.00000  Uiso   1.00
C104   C     0.67453   0.05563   0.75834   0.00000  Uiso   1.00
C105   C     0.67927   0.04011   0.83404   0.00000  Uiso   1.00
C106   C     0.82644   0.01763   0.65200   0.00000  Uiso   1.00
C107   C     0.83046   0.09279   0.62895   0.00000  Uiso   1.00
C108   C     0.89489   0.13127   0.61888   0.00000  Uiso   1.00
C109   C     0.88683   0.19918   0.59772   0.00000  Uiso   1.00
C110   C     0.78306   0.96714   0.62075   0.00000  Uiso   1.00
C111   C     0.80764   0.89997   0.60380   0.00000  Uiso   1.00
C112   C     0.75967   0.86209   0.57574   0.00000  Uiso   1.00
C113   C     0.77747   0.02872   0.69281   0.00000  Uiso   1.00
C114   C     0.79734   0.01330   0.73644   0.00000  Uiso   1.00
C115   C     0.74466   0.02724   0.76905   0.00000  Uiso   1.00
H116   H     0.64305   0.09187   0.62399   0.00000  Uiso   1.00
H117   H     0.69811   0.21091   0.58883   0.00000  Uiso   1.00
H118   H     0.61087   0.97964   0.57376   0.00000  Uiso   1.00
H119   H     0.60058   0.09295   0.70638   0.00000  Uiso   1.00
H120   H     0.79003   0.33038   0.55456   0.00000  Uiso   1.00
H121   H     0.60607   0.84272   0.52278   0.00000  Uiso   1.00
H122   H     0.58436   0.08165   0.80244   0.00000  Uiso   1.00
H123   H     0.88094   0.99557   0.66032   0.00000  Uiso   1.00
H124   H     0.94905   0.10933   0.62716   0.00000  Uiso   1.00
H125   H     0.86181   0.87805   0.61208   0.00000  Uiso   1.00
H126   H     0.85152   0.99136   0.74470   0.00000  Uiso   1.00
H127   H     0.99370   0.24792   0.58566   0.00000  Uiso   1.00
H128   H     0.80974   0.76026   0.55388   0.00000  Uiso   1.00
H129   H     0.78803   0.99920   0.83354   0.00000  Uiso   1.00
O130   O     0.93238   0.36571   0.54763   0.00000  Uiso   1.00
O131   O     0.69103   0.72592   0.50594   0.00000  Uiso   1.00
O132   O     0.66255   0.03939   0.87284   0.00000  Uiso   1.00
N133   N     0.82861   0.29537   0.56644   0.00000  Uiso   1.00
N134   N     0.65663   0.83944   0.53672   0.00000  Uiso   1.00
N135   N     0.63632   0.06280   0.79818   0.00000  Uiso   1.00
N136   N     0.93821   0.25100   0.58318   0.00000  Uiso   1.00
N137   N     0.76622   0.79507   0.55346   0.00000  Uiso   1.00
N138   N     0.74592   0.01844   0.81491   0.00000  Uiso   1.00
C139   C     0.19755   0.56981   0.13231   0.00000  Uiso   1.00
C140   C     0.26045   0.62114   0.11826   0.00000  Uiso   1.00
C141   C     0.25229   0.68900   0.09711   0.00000  Uiso   1.00
C142   C     0.31669   0.72757   0.08701   0.00000  Uiso   1.00
C143   C     0.40372   0.81156   0.06354   0.00000  Uiso   1.00
C144   C     0.21306   0.49549   0.11006   0.00000  Uiso   1.00
C145   C     0.16504   0.45770   0.08202   0.00000  Uiso   1.00
C146   C     0.18954   0.39049   0.06503   0.00000  Uiso   1.00
C147   C     0.20296   0.27937   0.02886   0.00000  Uiso   1.00
C148   C     0.20747   0.55706   0.18211   0.00000  Uiso   1.00
C149   C     0.15474   0.57102   0.21466   0.00000  Uiso   1.00
C150   C     0.17453   0.55563   0.25834   0.00000  Uiso   1.00
C151   C     0.17927   0.54011   0.33404   0.00000  Uiso   1.00
C152   C     0.32644   0.51763   0.15200   0.00000  Uiso   1.00
C153   C     0.33046   0.59279   0.12895   0.00000  Uiso   1.00
C154   C     0.39489   0.63127   0.11888   0.00000  Uiso   1.00
C155   C     0.38683   0.69918   0.09772   0.00000  Uiso   1.00
C156   C     0.28306   0.46714   0.12075   0.00000  Uiso   1.00
C157   C     0.30764   0.39997   0.10380   0.00000  Uiso   1.00
C158   C     0.25967   0.36209   0.07574   0.00000  Uiso   1.00
C159   C     0.27747   0.52872   0.19281   0.00000  Uiso   1.00
C160   C     0.29734   0.51330   0.23644   0.00000  Uiso   1.00
C161   C     0.24466   0.52724   0.26905   0.00000  Uiso   1.00
H162   H     0.14305   0.59187   0.12399   0.00000  Uiso   1.00
H163   H     0.19811   0.71091   0.08883   0.00000  Uiso   1.00
H164   H     0.11087   0.47964   0.07376   0.00000  Uiso   1.00
H165   H     0.10058   0.59295   0.20638   0.00000  Uiso   1.00
H166   H     0.29003   0.83038   0.05456   0.00000  Uiso   1.00
H167   H     0.10607   0.34272   0.02278   0.00000  Uiso   1.00
H168   H     0.08436   0.58165   0.30244   0.00000  Uiso   1.00
H169   H     0.38094   0.49557   0.16032   0.00000  Uiso   1.00
H170   H     0.44905   0.60933   0.12716   0.00000  Uiso   1.00
H171   H     0.36181   0.37805   0.11208   0.00000  Uiso   1.00
H172   H     0.35152   0.49136   0.24470   0.00000  Uiso   1.00
H173   H     0.49370   0.74792   0.08566   0.00000  Uiso   1.00
H174   H     0.30974   0.26026   0.05388   0.00000  Uiso   1.00
H175   H     0.28803   0.49920   0.33354   0.00000  Uiso   1.00
O176   O     0.43238   0.86571   0.04763   0.00000  Uiso   1.00
O177   O     0.19103   0.22592   0.00594   0.00000  Uiso   1.00
O178   O     0.16255   0.53939   0.37284   0.00000  Uiso   1.00
N179   N     0.32861   0.79537   0.06644   0.00000  Uiso   1.00
N180   N     0.15663   0.33944   0.03672   0.00000  Uiso   1.00
N181   N     0.13632   0.56280   0.29818   0.00000  Uiso   1.00
N182   N     0.43821   0.75100   0.08318   0.00000  Uiso   1.00
N183   N     0.26622   0.29507   0.05346   0.00000  Uiso   1.00
N184   N     0.24592   0.51844   0.31491   0.00000  Uiso   1.00
C185   C     0.56981   0.30245   0.38231   0.00000  Uiso   1.00
C186   C     0.62114   0.23955   0.36826   0.00000  Uiso   1.00
C187   C     0.68900   0.24771   0.34711   0.00000  Uiso   1.00
C188   C     0.72757   0.18331   0.33701   0.00000  Uiso   1.00
C189   C     0.81156   0.09628   0.31354   0.00000  Uiso   1.00
C190   C     0.49549   0.28694   0.36006   0.00000  Uiso   1.00
C191   C     0.45770   0.33496   0.33202   0.00000  Uiso   1.00
C192   C     0.39049   0.31046   0.31503   0.00000  Uiso   1.00
C193   C     0.27937   0.29704   0.27886   0.00000  Uiso   1.00
C194   C     0.55706   0.29253   0.43211   0.00000  Uiso   1.00
C195   C     0.57102   0.34526   0.46466   0.00000  Uiso   1.00
C196   C     0.55563   0.32547   0.50834   0.00000  Uiso   1.00
C197   C     0.54011   0.32073   0.58404   0.00000  Uiso   1.00
C198   C     0.51763   0.17356   0.40200   0.00000  Uiso   1.00
C199   C     0.59279   0.16954   0.37895   0.00000  Uiso   1.00
C200   C     0.63127   0.10511   0.36888   0.00000  Uiso   1.00
C201   C     0.69918   0.11317   0.34772   0.00000  Uiso   1.00
C202   C     0.46714   0.21694   0.37075   0.00000  Uiso   1.00
C203   C     0.39997   0.19236   0.35380   0.00000  Uiso   1.00
C204   C     0.36209   0.24033   0.32574   0.00000  Uiso   1.00
C205   C     0.52872   0.22253   0.44281   0.00000  Uiso   1.00
C206   C     0.51330   0.20266   0.48644   0.00000  Uiso   1.00
C207   C     0.52724   0.25534   0.51905   0.00000  Uiso   1.00
H208   H     0.59187   0.35695   0.37399   0.00000  Uiso   1.00
H209   H     0.71091   0.30189   0.33883   0.00000  Uiso   1.00
H210   H     0.47964   0.38913   0.32376   0.00000  Uiso   1.00
H211   H     0.59295   0.39942   0.45638   0.00000  Uiso   1.00
H212   H     0.83038   0.20997   0.30456   0.00000  Uiso   1.00
H213   H     0.34272   0.39393   0.27278   0.00000  Uiso   1.00
H214   H     0.58165   0.41564   0.55244   0.00000  Uiso   1.00
H215   H     0.49557   0.11906   0.41032   0.00000  Uiso   1.00
H216   H     0.60933   0.05095   0.37716   0.00000  Uiso   1.00
H217   H     0.37805   0.13819   0.36208   0.00000  Uiso   1.00
H218   H     0.49136   0.14848   0.49470   0.00000  Uiso   1.00
H219   H     0.74792   0.00630   0.33566   0.00000  Uiso   1.00
H220   H     0.26026   0.19026   0.30388   0.00000  Uiso   1.00
H221   H     0.49920   0.21197   0.58354   0.00000  Uiso   1.00
O222   O     0.86571   0.06762   0.29763   0.00000  Uiso   1.00
O223   O     0.22592   0.30897   0.25594   0.00000  Uiso   1.00
O224   O     0.53939   0.33745   0.62284   0.00000  Uiso   1.00
N225   N     0.79537   0.17139   0.31644   0.00000  Uiso   1.00
N226   N     0.33944   0.34337   0.28672   0.00000  Uiso   1.00
N227   N     0.56280   0.36368   0.54818   0.00000  Uiso   1.00
N228   N     0.75100   0.06179   0.33318   0.00000  Uiso   1.00
N229   N     0.29507   0.23378   0.30346   0.00000  Uiso   1.00
N230   N     0.51844   0.25408   0.56491   0.00000  Uiso   1.00
C231   C     0.06981   0.80245   0.88231   0.00000  Uiso   1.00
C232   C     0.12114   0.73955   0.86826   0.00000  Uiso   1.00
C233   C     0.18900   0.74771   0.84711   0.00000  Uiso   1.00
C234   C     0.22757   0.68331   0.83701   0.00000  Uiso   1.00
C235   C     0.31156   0.59628   0.81354   0.00000  Uiso   1.00
C236   C     0.99549   0.78694   0.86006   0.00000  Uiso   1.00
C237   C     0.95770   0.83496   0.83202   0.00000  Uiso   1.00
C238   C     0.89049   0.81046   0.81503   0.00000  Uiso   1.00
C239   C     0.77937   0.79704   0.77886   0.00000  Uiso   1.00
C240   C     0.05706   0.79253   0.93211   0.00000  Uiso   1.00
C241   C     0.07102   0.84526   0.96466   0.00000  Uiso   1.00
C242   C     0.05563   0.82547   0.00834   0.00000  Uiso   1.00
C243   C     0.04011   0.82073   0.08404   0.00000  Uiso   1.00
C244   C     0.01763   0.67356   0.90200   0.00000  Uiso   1.00
C245   C     0.09279   0.66954   0.87895   0.00000  Uiso   1.00
C246   C     0.13127   0.60511   0.86888   0.00000  Uiso   1.00
C247   C     0.19918   0.61317   0.84772   0.00000  Uiso   1.00
C248   C     0.96714   0.71694   0.87075   0.00000  Uiso   1.00
C249   C     0.89997   0.69236   0.85380   0.00000  Uiso   1.00
C250   C     0.86209   0.74033   0.82574   0.00000  Uiso   1.00
C251   C     0.02872   0.72253   0.94281   0.00000  Uiso   1.00
C252   C     0.01330   0.70266   0.98644   0.00000  Uiso   1.00
C253   C     0.02724   0.75534   0.01905   0.00000  Uiso   1.00
H254   H     0.09187   0.85695   0.87399   0.00000  Uiso   1.00
H255   H     0.21091   0.80189   0.83883   0.00000  Uiso   1.00
H256   H     0.97964   0.88913   0.82376   0.00000  Uiso   1.00
H257   H     0.09295   0.89942   0.95638   0.00000  Uiso   1.00
H258   H     0.33038   0.70997   0.80456   0.00000  Uiso   1.00
H259   H     0.84272   0.89393   0.77278   0.00000  Uiso   1.00
H260   H     0.08165   0.91564   0.05244   0.00000  Uiso   1.00
H261   H     0.99557   0.61906   0.91032   0.00000  Uiso   1.00
H262   H     0.10933   0.55095   0.87716   0.00000  Uiso   1.00
H263   H     0.87805   0.63819   0.86208   0.00000  Uiso   1.00
H264   H     0.99136   0.64848   0.99470   0.00000  Uiso   1.00
H265   H     0.24792   0.50630   0.83566   0.00000  Uiso   1.00
H266   H     0.76026   0.69026   0.80388   0.00000  Uiso   1.00
H267   H     0.99920   0.71197   0.08354   0.00000  Uiso   1.00
O268   O     0.36571   0.56762   0.79763   0.00000  Uiso   1.00
O269   O     0.72592   0.80897   0.75594   0.00000  Uiso   1.00
O270   O     0.03939   0.83745   0.12284   0.00000  Uiso   1.00
N271   N     0.29537   0.67139   0.81644   0.00000  Uiso   1.00
N272   N     0.83944   0.84337   0.78672   0.00000  Uiso   1.00
N273   N     0.06280   0.86368   0.04818   0.00000  Uiso   1.00
N274   N     0.25100   0.56179   0.83318   0.00000  Uiso   1.00
N275   N     0.79507   0.73378   0.80346   0.00000  Uiso   1.00
N276   N     0.01844   0.75408   0.06491   0.00000  Uiso   1.00
C277   C     0.93019   0.19755   0.88231   0.00000  Uiso   1.00
C278   C     0.87886   0.26045   0.86826   0.00000  Uiso   1.00
C279   C     0.81100   0.25229   0.84711   0.00000  Uiso   1.00
C280   C     0.77243   0.31669   0.83701   0.00000  Uiso   1.00
C281   C     0.68844   0.40372   0.81354   0.00000  Uiso   1.00
C282   C     0.00451   0.21306   0.86006   0.00000  Uiso   1.00
C283   C     0.04230   0.16504   0.83202   0.00000  Uiso   1.00
C284   C     0.10951   0.18954   0.81503   0.00000  Uiso   1.00
C285   C     0.22063   0.20296   0.77886   0.00000  Uiso   1.00
C286   C     0.94294   0.20747   0.93211   0.00000  Uiso   1.00
C287   C     0.92898   0.15474   0.96466   0.00000  Uiso   1.00
C288   C     0.94437   0.17453   0.00834   0.00000  Uiso   1.00
C289   C     0.95989   0.17927   0.08404   0.00000  Uiso   1.00
C290   C     0.98237   0.32644   0.90200   0.00000  Uiso   1.00
C291   C     0.90721   0.33046   0.87895   0.00000  Uiso   1.00
C292   C     0.86873   0.39489   0.86888   0.00000  Uiso   1.00
C293   C     0.80082   0.38683   0.84772   0.00000  Uiso   1.00
C294   C     0.03286   0.28306   0.87075   0.00000  Uiso   1.00
C295   C     0.10003   0.30764   0.85380   0.00000  Uiso   1.00
C296   C     0.13791   0.25967   0.82574   0.00000  Uiso   1.00
C297   C     0.97128   0.27747   0.94281   0.00000  Uiso   1.00
C298   C     0.98670   0.29734   0.98644   0.00000  Uiso   1.00
C299   C     0.97276   0.24466   0.01905   0.00000  Uiso   1.00
H300   H     0.90813   0.14305   0.87399   0.00000  Uiso   1.00
H301   H     0.78909   0.19811   0.83883   0.00000  Uiso   1.00
H302   H     0.02036   0.11087   0.82376   0.00000  Uiso   1.00
H303   H     0.90705   0.10058   0.95638   0.00000  Uiso   1.00
H304   H     0.66962   0.29003   0.80456   0.00000  Uiso   1.00
H305   H     0.15728   0.10607   0.77278   0.00000  Uiso   1.00
H306   H     0.91835   0.08436   0.05244   0.00000  Uiso   1.00
H307   H     0.00443   0.38094   0.91032   0.00000  Uiso   1.00
H308   H     0.89067   0.44905   0.87716   0.00000  Uiso   1.00
H309   H     0.12195   0.36181   0.86208   0.00000  Uiso   1.00
H310   H     0.00864   0.35152   0.99470   0.00000  Uiso   1.00
H311   H     0.75208   0.49370   0.83566   0.00000  Uiso   1.00
H312   H     0.23974   0.30974   0.80388   0.00000  Uiso   1.00
H313   H     0.00080   0.28803   0.08354   0.00000  Uiso   1.00
O314   O     0.63429   0.43238   0.79763   0.00000  Uiso   1.00
O315   O     0.27408   0.19103   0.75594   0.00000  Uiso   1.00
O316   O     0.96061   0.16255   0.12284   0.00000  Uiso   1.00
N317   N     0.70463   0.32861   0.81644   0.00000  Uiso   1.00
N318   N     0.16056   0.15663   0.78672   0.00000  Uiso   1.00
N319   N     0.93720   0.13632   0.04818   0.00000  Uiso   1.00
N320   N     0.74900   0.43821   0.83318   0.00000  Uiso   1.00
N321   N     0.20493   0.26622   0.80346   0.00000  Uiso   1.00
N322   N     0.98156   0.24592   0.06491   0.00000  Uiso   1.00
C323   C     0.43019   0.69755   0.38231   0.00000  Uiso   1.00
C324   C     0.37886   0.76045   0.36826   0.00000  Uiso   1.00
C325   C     0.31100   0.75229   0.34711   0.00000  Uiso   1.00
C326   C     0.27243   0.81669   0.33701   0.00000  Uiso   1.00
C327   C     0.18844   0.90372   0.31354   0.00000  Uiso   1.00
C328   C     0.50451   0.71306   0.36006   0.00000  Uiso   1.00
C329   C     0.54230   0.66504   0.33202   0.00000  Uiso   1.00
C330   C     0.60951   0.68954   0.31503   0.00000  Uiso   1.00
C331   C     0.72063   0.70296   0.27886   0.00000  Uiso   1.00
C332   C     0.44294   0.70747   0.43211   0.00000  Uiso   1.00
C333   C     0.42898   0.65474   0.46466   0.00000  Uiso   1.00
C334   C     0.44437   0.67453   0.50834   0.00000  Uiso   1.00
C335   C     0.45989   0.67927   0.58404   0.00000  Uiso   1.00
C336   C     0.48237   0.82644   0.40200   0.00000  Uiso   1.00
C337   C     0.40721   0.83046   0.37895   0.00000  Uiso   1.00
C338   C     0.36873   0.89489   0.36888   0.00000  Uiso   1.00
C339   C     0.30082   0.88683   0.34772   0.00000  Uiso   1.00
C340   C     0.53286   0.78306   0.37075   0.00000  Uiso   1.00
C341   C     0.60003   0.80764   0.35380   0.00000  Uiso   1.00
C342   C     0.63791   0.75967   0.32574   0.00000  Uiso   1.00
C343   C     0.47128   0.77747   0.44281   0.00000  Uiso   1.00
C344   C     0.48670   0.79734   0.48644   0.00000  Uiso   1.00
C345   C     0.47276   0.74466   0.51905   0.00000  Uiso   1.00
H346   H     0.40813   0.64305   0.37399   0.00000  Uiso   1.00
H347   H     0.28909   0.69811   0.33883   0.00000  Uiso   1.00
H348   H     0.52036   0.61087   0.32376   0.00000  Uiso   1.00
H349   H     0.40705   0.60058   0.45638   0.00000  Uiso   1.00
H350   H     0.16962   0.79003   0.30456   0.00000  Uiso   1.00
H351   H     0.65728   0.60607   0.27278   0.00000  Uiso   1.00
H352   H     0.41835   0.58436   0.55244   0.00000  Uiso   1.00
H353   H     0.50443   0.88094   0.41032   0.00000  Uiso   1.00
H354   H     0.39067   0.94905   0.37716   0.00000  Uiso   1.00
H355   H     0.62195   0.86181   0.36208   0.00000  Uiso   1.00
H356   H     0.50864   0.85152   0.49470   0.00000  Uiso   1.00
H357   H     0.25208   0.99370   0.33566   0.00000  Uiso   1.00
H358   H     0.73974   0.80974   0.30388   0.00000  Uiso   1.00
H359   H     0.50080   0.78803   0.58354   0.00000  Uiso   1.00
O360   O     0.13429   0.93238   0.29763   0.00000  Uiso   1.00
O361   O     0.77408   0.69103   0.25594   0.00000  Uiso   1.00
O362   O     0.46061   0.66255   0.62284   0.00000  Uiso   1.00
N363   N     0.20463   0.82861   0.31644   0.00000  Uiso   1.00
N364   N     0.66056   0.65663   0.28672   0.00000  Uiso   1.00
N365   N     0.43720   0.63632   0.54818   0.00000  Uiso   1.00
N366   N     0.24900   0.93821   0.33318   0.00000  Uiso   1.00
N367   N     0.70493   0.76622   0.30346   0.00000  Uiso   1.00
N368   N     0.48156   0.74592   0.56491   0.00000  Uiso   1.00
C369   C     0.19755   0.06981   0.11769   0.00000  Uiso   1.00
C370   C     0.26045   0.12114   0.13174   0.00000  Uiso   1.00
C371   C     0.25229   0.18900   0.15289   0.00000  Uiso   1.00
C372   C     0.31669   0.22757   0.16299   0.00000  Uiso   1.00
C373   C     0.40372   0.31156   0.18646   0.00000  Uiso   1.00
C374   C     0.21306   0.99549   0.13994   0.00000  Uiso   1.00
C375   C     0.16504   0.95770   0.16798   0.00000  Uiso   1.00
C376   C     0.18954   0.89049   0.18497   0.00000  Uiso   1.00
C377   C     0.20296   0.77937   0.22114   0.00000  Uiso   1.00
C378   C     0.20747   0.05706   0.06789   0.00000  Uiso   1.00
C379   C     0.15474   0.07102   0.03534   0.00000  Uiso   1.00
C380   C     0.17453   0.05563   0.99166   0.00000  Uiso   1.00
C381   C     0.17927   0.04011   0.91596   0.00000  Uiso   1.00
C382   C     0.32644   0.01763   0.09800   0.00000  Uiso   1.00
C383   C     0.33046   0.09279   0.12105   0.00000  Uiso   1.00
C384   C     0.39489   0.13127   0.13112   0.00000  Uiso   1.00
C385   C     0.38683   0.19918   0.15228   0.00000  Uiso   1.00
C386   C     0.28306   0.96714   0.12925   0.00000  Uiso   1.00
C387   C     0.30764   0.89997   0.14620   0.00000  Uiso   1.00
C388   C     0.25967   0.86209   0.17426   0.00000  Uiso   1.00
C389   C     0.27747   0.02872   0.05719   0.00000  Uiso   1.00
C390   C     0.29734   0.01330   0.01356   0.00000  Uiso   1.00
C391   C     0.24466   0.02724   0.98095   0.00000  Uiso   1.00
H392   H     0.14305   0.09187   0.12601   0.00000  Uiso   1.00
H393   H     0.19811   0.21091   0.16117   0.00000  Uiso   1.00
H394   H     0.11087   0.97964   0.17624   0.00000  Uiso   1.00
H395   H     0.10058   0.09295   0.04362   0.00000  Uiso   1.00
H396   H     0.29003   0.33038   0.19544   0.00000  Uiso   1.00
H397   H     0.10607   0.84272   0.22722   0.00000  Uiso   1.00
H398   H     0.08436   0.08165   0.94756   0.00000  Uiso   1.00
H399   H     0.38094   0.99557   0.08968   0.00000  Uiso   1.00
H400   H     0.44905   0.10933   0.12284   0.00000  Uiso   1.00
H401   H     0.36181   0.87805   0.13792   0.00000  Uiso   1.00
H402   H     0.35152   0.99136   0.00530   0.00000  Uiso   1.00
H403   H     0.49370   0.24792   0.16434   0.00000  Uiso   1.00
H404   H     0.30974   0.76026   0.19612   0.00000  Uiso   1.00
H405   H     0.28803   0.99920   0.91646   0.00000  Uiso   1.00
O406   O     0.43238   0.36571   0.20237   0.00000  Uiso   1.00
O407   O     0.19103   0.72592   0.24406   0.00000  Uiso   1.00
O408   O     0.16255   0.03939   0.87716   0.00000  Uiso   1.00
N409   N     0.32861   0.29537   0.18356   0.00000  Uiso   1.00
N410   N     0.15663   0.83944   0.21328   0.00000  Uiso   1.00
N411   N     0.13632   0.06280   0.95182   0.00000  Uiso   1.00
N412   N     0.43821   0.25100   0.16682   0.00000  Uiso   1.00
N413   N     0.26622   0.79507   0.19654   0.00000  Uiso   1.00
N414   N     0.24592   0.01844   0.93509   0.00000  Uiso   1.00
C415   C     0.69755   0.56981   0.61769   0.00000  Uiso   1.00
C416   C     0.76045   0.62114   0.63174   0.00000  Uiso   1.00
C417   C     0.75229   0.68900   0.65289   0.00000  Uiso   1.00
C418   C     0.81669   0.72757   0.66299   0.00000  Uiso   1.00
C419   C     0.90372   0.81156   0.68646   0.00000  Uiso   1.00
C420   C     0.71306   0.49549   0.63994   0.00000  Uiso   1.00
C421   C     0.66504   0.45770   0.66798   0.00000  Uiso   1.00
C422   C     0.68954   0.39049   0.68497   0.00000  Uiso   1.00
C423   C     0.70296   0.27937   0.72114   0.00000  Uiso   1.00
C424   C     0.70747   0.55706   0.56789   0.00000  Uiso   1.00
C425   C     0.65474   0.57102   0.53534   0.00000  Uiso   1.00
C426   C     0.67453   0.55563   0.49166   0.00000  Uiso   1.00
C427   C     0.67927   0.54011   0.41596   0.00000  Uiso   1.00
C428   C     0.82644   0.51763   0.59800   0.00000  Uiso   1.00
C429   C     0.83046   0.59279   0.62105   0.00000  Uiso   1.00
C430   C     0.89489   0.63127   0.63112   0.00000  Uiso   1.00
C431   C     0.88683   0.69918   0.65228   0.00000  Uiso   1.00
C432   C     0.78306   0.46714   0.62925   0.00000  Uiso   1.00
C433   C     0.80764   0.39997   0.64620   0.00000  Uiso   1.00
C434   C     0.75967   0.36209   0.67426   0.00000  Uiso   1.00
C435   C     0.77747   0.52872   0.55719   0.00000  Uiso   1.00
C436   C     0.79734   0.51330   0.51356   0.00000  Uiso   1.00
C437   C     0.74466   0.52724   0.48095   0.00000  Uiso   1.00
H438   H     0.64305   0.59187   0.62601   0.00000  Uiso   1.00
H439   H     0.69811   0.71091   0.66117   0.00000  Uiso   1.00
H440   H     0.61087   0.47964   0.67624   0.00000  Uiso   1.00
H441   H     0.60058   0.59295   0.54362   0.00000  Uiso   1.00
H442   H     0.79003   0.83038   0.69544   0.00000  Uiso   1.00
H443   H     0.60607   0.34272   0.72722   0.00000  Uiso   1.00
H444   H     0.58436   0.58165   0.44756   0.00000  Uiso   1.00
H445   H     0.88094   0.49557   0.58968   0.00000  Uiso   1.00
H446   H     0.94905   0.60933   0.62284   0.00000  Uiso   1.00
H447   H     0.86181   0.37805   0.63792   0.00000  Uiso   1.00
H448   H     0.85152   0.49136   0.50530   0.00000  Uiso   1.00
H449   H     0.99370   0.74792   0.66434   0.00000  Uiso   1.00
H450   H     0.80974   0.26026   0.69612   0.00000  Uiso   1.00
H451   H     0.78803   0.49920   0.41646   0.00000  Uiso   1.00
O452   O     0.93238   0.86571   0.70237   0.00000  Uiso   1.00
O453   O     0.69103   0.22592   0.74406   0.00000  Uiso   1.00
O454   O     0.66255   0.53939   0.37716   0.00000  Uiso   1.00
N455   N     0.82861   0.79537   0.68356   0.00000  Uiso   1.00
N456   N     0.65663   0.33944   0.71328   0.00000  Uiso   1.00
N457   N     0.63632   0.56280   0.45182   0.00000  Uiso   1.00
N458   N     0.93821   0.75100   0.66682   0.00000  Uiso   1.00
N459   N     0.76622   0.29507   0.69654   0.00000  Uiso   1.00
N460   N     0.74592   0.51844   0.43509   0.00000  Uiso   1.00
C461   C     0.30245   0.43019   0.61769   0.00000  Uiso   1.00
C462   C     0.23955   0.37886   0.63174   0.00000  Uiso   1.00
C463   C     0.24771   0.31100   0.65289   0.00000  Uiso   1.00
C464   C     0.18331   0.27243   0.66299   0.00000  Uiso   1.00
C465   C     0.09628   0.18844   0.68646   0.00000  Uiso   1.00
C466   C     0.28694   0.50451   0.63994   0.00000  Uiso   1.00
C467   C     0.33496   0.54230   0.66798   0.00000  Uiso   1.00
C468   C     0.31046   0.60951   0.68497   0.00000  Uiso   1.00
C469   C     0.29704   0.72063   0.72114   0.00000  Uiso   1.00
C470   C     0.29253   0.44294   0.56789   0.00000  Uiso   1.00
C471   C     0.34526   0.42898   0.53534   0.00000  Uiso   1.00
C472   C     0.32547   0.44437   0.49166   0.00000  Uiso   1.00
C473   C     0.32073   0.45989   0.41596   0.00000  Uiso   1.00
C474   C     0.17356   0.48237   0.59800   0.00000  Uiso   1.00
C475   C     0.16954   0.40721   0.62105   0.00000  Uiso   1.00
C476   C     0.10511   0.36873   0.63112   0.00000  Uiso   1.00
C477   C     0.11317   0.30082   0.65228   0.00000  Uiso   1.00
C478   C     0.21694   0.53286   0.62925   0.00000  Uiso   1.00
C479   C     0.19236   0.60003   0.64620   0.00000  Uiso   1.00
C480   C     0.24033   0.63791   0.67426   0.00000  Uiso   1.00
C481   C     0.22253   0.47128   0.55719   0.00000  Uiso   1.00
C482   C     0.20266   0.48670   0.51356   0.00000  Uiso   1.00
C483   C     0.25534   0.47276   0.48095   0.00000  Uiso   1.00
H484   H     0.35695   0.40813   0.62601   0.00000  Uiso   1.00
H485   H     0.30189   0.28909   0.66117   0.00000  Uiso   1.00
H486   H     0.38913   0.52036   0.67624   0.00000  Uiso   1.00
H487   H     0.39942   0.40705   0.54362   0.00000  Uiso   1.00
H488   H     0.20997   0.16962   0.69544   0.00000  Uiso   1.00
H489   H     0.39393   0.65728   0.72722   0.00000  Uiso   1.00
H490   H     0.41564   0.41835   0.44756   0.00000  Uiso   1.00
H491   H     0.11906   0.50443   0.58968   0.00000  Uiso   1.00
H492   H     0.05095   0.39067   0.62284   0.00000  Uiso   1.00
H493   H     0.13819   0.62195   0.63792   0.00000  Uiso   1.00
H494   H     0.14848   0.50864   0.50530   0.00000  Uiso   1.00
H495   H     0.00630   0.25208   0.66434   0.00000  Uiso   1.00
H496   H     0.19026   0.73974   0.69612   0.00000  Uiso   1.00
H497   H     0.21197   0.50080   0.41646   0.00000  Uiso   1.00
O498   O     0.06762   0.13429   0.70237   0.00000  Uiso   1.00
O499   O     0.30897   0.77408   0.74406   0.00000  Uiso   1.00
O500   O     0.33745   0.46061   0.37716   0.00000  Uiso   1.00
N501   N     0.17139   0.20463   0.68356   0.00000  Uiso   1.00
N502   N     0.34337   0.66056   0.71328   0.00000  Uiso   1.00
N503   N     0.36368   0.43720   0.45182   0.00000  Uiso   1.00
N504   N     0.06179   0.24900   0.66682   0.00000  Uiso   1.00
N505   N     0.23378   0.70493   0.69654   0.00000  Uiso   1.00
N506   N     0.25408   0.48156   0.43509   0.00000  Uiso   1.00
C507   C     0.80245   0.93019   0.11769   0.00000  Uiso   1.00
C508   C     0.73955   0.87886   0.13174   0.00000  Uiso   1.00
C509   C     0.74771   0.81100   0.15289   0.00000  Uiso   1.00
C510   C     0.68331   0.77243   0.16299   0.00000  Uiso   1.00
C511   C     0.59628   0.68844   0.18646   0.00000  Uiso   1.00
C512   C     0.78694   0.00451   0.13994   0.00000  Uiso   1.00
C513   C     0.83496   0.04230   0.16798   0.00000  Uiso   1.00
C514   C     0.81046   0.10951   0.18497   0.00000  Uiso   1.00
C515   C     0.79704   0.22063   0.22114   0.00000  Uiso   1.00
C516   C     0.79253   0.94294   0.06789   0.00000  Uiso   1.00
C517   C     0.84526   0.92898   0.03534   0.00000  Uiso   1.00
C518   C     0.82547   0.94437   0.99166   0.00000  Uiso   1.00
C519   C     0.82073   0.95989   0.91596   0.00000  Uiso   1.00
C520   C     0.67356   0.98237   0.09800   0.00000  Uiso   1.00
C521   C     0.66954   0.90721   0.12105   0.00000  Uiso   1.00
C522   C     0.60511   0.86873   0.13112   0.00000  Uiso   1.00
C523   C     0.61317   0.80082   0.15228   0.00000  Uiso   1.00
C524   C     0.71694   0.03286   0.12925   0.00000  Uiso   1.00
C525   C     0.69236   0.10003   0.14620   0.00000  Uiso   1.00
C526   C     0.74033   0.13791   0.17426   0.00000  Uiso   1.00
C527   C     0.72253   0.97128   0.05719   0.00000  Uiso   1.00
C528   C     0.70266   0.98670   0.01356   0.00000  Uiso   1.00
C529   C     0.75534   0.97276   0.98095   0.00000  Uiso   1.00
H530   H     0.85695   0.90813   0.12601   0.00000  Uiso   1.00
H531   H     0.80189   0.78909   0.16117   0.00000  Uiso   1.00
H532   H     0.88913   0.02036   0.17624   0.00000  Uiso   1.00
H533   H     0.89942   0.90705   0.04362   0.00000  Uiso   1.00
H534   H     0.70997   0.66962   0.19544   0.00000  Uiso   1.00
H535   H     0.89393   0.15728   0.22722   0.00000  Uiso   1.00
H536   H     0.91564   0.91835   0.94756   0.00000  Uiso   1.00
H537   H     0.61906   0.00443   0.08968   0.00000  Uiso   1.00
H538   H     0.55095   0.89067   0.12284   0.00000  Uiso   1.00
H539   H     0.63819   0.12195   0.13792   0.00000  Uiso   1.00
H540   H     0.64848   0.00864   0.00530   0.00000  Uiso   1.00
H541   H     0.50630   0.75208   0.16434   0.00000  Uiso   1.00
H542   H     0.69026   0.23974   0.19612   0.00000  Uiso   1.00
H543   H     0.71197   0.00080   0.91646   0.00000  Uiso   1.00
O544   O     0.56762   0.63429   0.20237   0.00000  Uiso   1.00
O545   O     0.80897   0.27408   0.24406   0.00000  Uiso   1.00
O546   O     0.83745   0.96061   0.87716   0.00000  Uiso   1.00
N547   N     0.67139   0.70463   0.18356   0.00000  Uiso   1.00
N548   N     0.84337   0.16056   0.21328   0.00000  Uiso   1.00
N549   N     0.86368   0.93720   0.95182   0.00000  Uiso   1.00
N550   N     0.56179   0.74900   0.16682   0.00000  Uiso   1.00
N551   N     0.73378   0.20493   0.19654   0.00000  Uiso   1.00
N552   N     0.75408   0.98156   0.93509   0.00000  Uiso   1.00
C553   C     0.43019   0.19755   0.86769   0.00000  Uiso   1.00
C554   C     0.37886   0.26045   0.88174   0.00000  Uiso   1.00
C555   C     0.31100   0.25229   0.90289   0.00000  Uiso   1.00
C556   C     0.27243   0.31669   0.91299   0.00000  Uiso   1.00
C557   C     0.18844   0.40372   0.93646   0.00000  Uiso   1.00
C558   C     0.50451   0.21306   0.88994   0.00000  Uiso   1.00
C559   C     0.54230   0.16504   0.91798   0.00000  Uiso   1.00
C560   C     0.60951   0.18954   0.93497   0.00000  Uiso   1.00
C561   C     0.72063   0.20296   0.97114   0.00000  Uiso   1.00
C562   C     0.44294   0.20747   0.81789   0.00000  Uiso   1.00
C563   C     0.42898   0.15474   0.78534   0.00000  Uiso   1.00
C564   C     0.44437   0.17453   0.74166   0.00000  Uiso   1.00
C565   C     0.45989   0.17927   0.66596   0.00000  Uiso   1.00
C566   C     0.48237   0.32644   0.84800   0.00000  Uiso   1.00
C567   C     0.40721   0.33046   0.87105   0.00000  Uiso   1.00
C568   C     0.36873   0.39489   0.88112   0.00000  Uiso   1.00
C569   C     0.30082   0.38683   0.90228   0.00000  Uiso   1.00
C570   C     0.53286   0.28306   0.87925   0.00000  Uiso   1.00
C571   C     0.60003   0.30764   0.89620   0.00000  Uiso   1.00
C572   C     0.63791   0.25967   0.92426   0.00000  Uiso   1.00
C573   C     0.47128   0.27747   0.80719   0.00000  Uiso   1.00
C574   C     0.48670   0.29734   0.76356   0.00000  Uiso   1.00
C575   C     0.47276   0.24466   0.73095   0.00000  Uiso   1.00
H576   H     0.40813   0.14305   0.87601   0.00000  Uiso   1.00
H577   H     0.28909   0.19811   0.91117   0.00000  Uiso   1.00
H578   H     0.52036   0.11087   0.92624   0.00000  Uiso   1.00
H579   H     0.40705   0.10058   0.79362   0.00000  Uiso   1.00
H580   H     0.16962   0.29003   0.94544   0.00000  Uiso   1.00
H581   H     0.65728   0.10607   0.97722   0.00000  Uiso   1.00
H582   H     0.41835   0.08436   0.69756   0.00000  Uiso   1.00
H583   H     0.50443   0.38094   0.83968   0.00000  Uiso   1.00
H584   H     0.39067   0.44905   0.87284   0.00000  Uiso   1.00
H585   H     0.62195   0.36181   0.88792   0.00000  Uiso   1.00
H586   H     0.50864   0.35152   0.75530   0.00000  Uiso   1.00
H587   H     0.25208   0.49370   0.91434   0.00000  Uiso   1.00
H588   H     0.73974   0.30974   0.94612   0.00000  Uiso   1.00
H589   H     0.50080   0.28803   0.66646   0.00000  Uiso   1.00
O590   O     0.13429   0.43238   0.95237   0.00000  Uiso   1.00
O591   O     0.77408   0.19103   0.99406   0.00000  Uiso   1.00
O592   O     0.46061   0.16255   0.62716   0.00000  Uiso   1.00
N593   N     0.20463   0.32861   0.93356   0.00000  Uiso   1.00
N594   N     0.66056   0.15663   0.96328   0.00000  Uiso   1.00
N595   N     0.43720   0.13632   0.70182   0.00000  Uiso   1.00
N596   N     0.24900   0.43821   0.91682   0.00000  Uiso   1.00
N597   N     0.70493   0.26622   0.94654   0.00000  Uiso   1.00
N598   N     0.48156   0.24592   0.68509   0.00000  Uiso   1.00
C599   C     0.93019   0.69755   0.36769   0.00000  Uiso   1.00
C600   C     0.87886   0.76045   0.38174   0.00000  Uiso   1.00
C601   C     0.81100   0.75229   0.40289   0.00000  Uiso   1.00
C602   C     0.77243   0.81669   0.41299   0.00000  Uiso   1.00
C603   C     0.68844   0.90372   0.43646   0.00000  Uiso   1.00
C604   C     0.00451   0.71306   0.38994   0.00000  Uiso   1.00
C605   C     0.04230   0.66504   0.41798   0.00000  Uiso   1.00
C606   C     0.10951   0.68954   0.43497   0.00000  Uiso   1.00
C607   C     0.22063   0.70296   0.47114   0.00000  Uiso   1.00
C608   C     0.94294   0.70747   0.31789   0.00000  Uiso   1.00
C609   C     0.92898   0.65474   0.28534   0.00000  Uiso   1.00
C610   C     0.94437   0.67453   0.24166   0.00000  Uiso   1.00
C611   C     0.95989   0.67927   0.16596   0.00000  Uiso   1.00
C612   C     0.98237   0.82644   0.34800   0.00000  Uiso   1.00
C613   C     0.90721   0.83046   0.37105   0.00000  Uiso   1.00
C614   C     0.86873   0.89489   0.38112   0.00000  Uiso   1.00
C615   C     0.80082   0.88683   0.40228   0.00000  Uiso   1.00
C616   C     0.03286   0.78306   0.37925   0.00000  Uiso   1.00
C617   C     0.10003   0.80764   0.39620   0.00000  Uiso   1.00
C618   C     0.13791   0.75967   0.42426   0.00000  Uiso   1.00
C619   C     0.97128   0.77747   0.30719   0.00000  Uiso   1.00
C620   C     0.98670   0.79734   0.26356   0.00000  Uiso   1.00
C621   C     0.97276   0.74466   0.23095   0.00000  Uiso   1.00
H622   H     0.90813   0.64305   0.37601   0.00000  Uiso   1.00
H623   H     0.78909   0.69811   0.41117   0.00000  Uiso   1.00
H624   H     0.02036   0.61087   0.42624   0.00000  Uiso   1.00
H625   H     0.90705   0.60058   0.29362   0.00000  Uiso   1.00
H626   H     0.66962   0.79003   0.44544   0.00000  Uiso   1.00
H627   H     0.15728   0.60607   0.47722   0.00000  Uiso   1.00
H628   H     0.91835   0.58436   0.19756   0.00000  Uiso   1.00
H629   H     0.00443   0.88094   0.33968   0.00000  Uiso   1.00
H630   H     0.89067   0.94905   0.37284   0.00000  Uiso   1.00
H631   H     0.12195   0.86181   0.38792   0.00000  Uiso   1.00
H632   H     0.00864   0.85152   0.25530   0.00000  Uiso   1.00
H633   H     0.75208   0.99370   0.41434   0.00000  Uiso   1.00
H634   H     0.23974   0.80974   0.44612   0.00000  Uiso   1.00
H635   H     0.00080   0.78803   0.16646   0.00000  Uiso   1.00
O636   O     0.63429   0.93238   0.45237   0.00000  Uiso   1.00
O637   O     0.27408   0.69103   0.49406   0.00000  Uiso   1.00
O638   O     0.96061   0.66255   0.12716   0.00000  Uiso   1.00
N639   N     0.70463   0.82861   0.43356   0.00000  Uiso   1.00
N640   N     0.16056   0.65663   0.46328   0.00000  Uiso   1.00
N641   N     0.93720   0.63632   0.20182   0.00000  Uiso   1.00
N642   N     0.74900   0.93821   0.41682   0.00000  Uiso   1.00
N643   N     0.20493   0.76622   0.44654   0.00000  Uiso   1.00
N644   N     0.98156   0.74592   0.18509   0.00000  Uiso   1.00
C645   C     0.06981   0.30245   0.36769   0.00000  Uiso   1.00
C646   C     0.12114   0.23955   0.38174   0.00000  Uiso   1.00
C647   C     0.18900   0.24771   0.40289   0.00000  Uiso   1.00
C648   C     0.22757   0.18331   0.41299   0.00000  Uiso   1.00
C649   C     0.31156   0.09628   0.43646   0.00000  Uiso   1.00
C650   C     0.99549   0.28694   0.38994   0.00000  Uiso   1.00
C651   C     0.95770   0.33496   0.41798   0.00000  Uiso   1.00
C652   C     0.89049   0.31046   0.43497   0.00000  Uiso   1.00
C653   C     0.77937   0.29704   0.47114   0.00000  Uiso   1.00
C654   C     0.05706   0.29253   0.31789   0.00000  Uiso   1.00
C655   C     0.07102   0.34526   0.28534   0.00000  Uiso   1.00
C656   C     0.05563   0.32547   0.24166   0.00000  Uiso   1.00
C657   C     0.04011   0.32073   0.16596   0.00000  Uiso   1.00
C658   C     0.01763   0.17356   0.34800   0.00000  Uiso   1.00
C659   C     0.09279   0.16954   0.37105   0.00000  Uiso   1.00
C660   C     0.13127   0.10511   0.38112   0.00000  Uiso   1.00
C661   C     0.19918   0.11317   0.40228   0.00000  Uiso   1.00
C662   C     0.96714   0.21694   0.37925   0.00000  Uiso   1.00
C663   C     0.89997   0.19236   0.39620   0.00000  Uiso   1.00
C664   C     0.86209   0.24033   0.42426   0.00000  Uiso   1.00
C665   C     0.02872   0.22253   0.30719   0.00000  Uiso   1.00
C666   C     0.01330   0.20266   0.26356   0.00000  Uiso   1.00
C667   C     0.02724   0.25534   0.23095   0.00000  Uiso   1.00
H668   H     0.09187   0.35695   0.37601   0.00000  Uiso   1.00
H669   H     0.21091   0.30189   0.41117   0.00000  Uiso   1.00
H670   H     0.97964   0.38913   0.42624   0.00000  Uiso   1.00
H671   H     0.09295   0.39942   0.29362   0.00000  Uiso   1.00
H672   H     0.33038   0.20997   0.44544   0.00000  Uiso   1.00
H673   H     0.84272   0.39393   0.47722   0.00000  Uiso   1.00
H674   H     0.08165   0.41564   0.19756   0.00000  Uiso   1.00
H675   H     0.99557   0.11906   0.33968   0.00000  Uiso   1.00
H676   H     0.10933   0.05095   0.37284   0.00000  Uiso   1.00
H677   H     0.87805   0.13819   0.38792   0.00000  Uiso   1.00
H678   H     0.99136   0.14848   0.25530   0.00000  Uiso   1.00
H679   H     0.24792   0.00630   0.41434   0.00000  Uiso   1.00
H680   H     0.76026   0.19026   0.44612   0.00000  Uiso   1.00
H681   H     0.99920   0.21197   0.16646   0.00000  Uiso   1.00
O682   O     0.36571   0.06762   0.45237   0.00000  Uiso   1.00
O683   O     0.72592   0.30897   0.49406   0.00000  Uiso   1.00
O684   O     0.03939   0.33745   0.12716   0.00000  Uiso   1.00
N685   N     0.29537   0.17139   0.43356   0.00000  Uiso   1.00
N686   N     0.83944   0.34337   0.46328   0.00000  Uiso   1.00
N687   N     0.06280   0.36368   0.20182   0.00000  Uiso   1.00
N688   N     0.25100   0.06179   0.41682   0.00000  Uiso   1.00
N689   N     0.79507   0.23378   0.44654   0.00000  Uiso   1.00
N690   N     0.01844   0.25408   0.18509   0.00000  Uiso   1.00
C691   C     0.56981   0.80245   0.86769   0.00000  Uiso   1.00
C692   C     0.62114   0.73955   0.88174   0.00000  Uiso   1.00
C693   C     0.68900   0.74771   0.90289   0.00000  Uiso   1.00
C694   C     0.72757   0.68331   0.91299   0.00000  Uiso   1.00
C695   C     0.81156   0.59628   0.93646   0.00000  Uiso   1.00
C696   C     0.49549   0.78694   0.88994   0.00000  Uiso   1.00
C697   C     0.45770   0.83496   0.91798   0.00000  Uiso   1.00
C698   C     0.39049   0.81046   0.93497   0.00000  Uiso   1.00
C699   C     0.27937   0.79704   0.97114   0.00000  Uiso   1.00
C700   C     0.55706   0.79253   0.81789   0.00000  Uiso   1.00
C701   C     0.57102   0.84526   0.78534   0.00000  Uiso   1.00
C702   C     0.55563   0.82547   0.74166   0.00000  Uiso   1.00
C703   C     0.54011   0.82073   0.66596   0.00000  Uiso   1.00
C704   C     0.51763   0.67356   0.84800   0.00000  Uiso   1.00
C705   C     0.59279   0.66954   0.87105   0.00000  Uiso   1.00
C706   C     0.63127   0.60511   0.88112   0.00000  Uiso   1.00
C707   C     0.69918   0.61317   0.90228   0.00000  Uiso   1.00
C708   C     0.46714   0.71694   0.87925   0.00000  Uiso   1.00
C709   C     0.39997   0.69236   0.89620   0.00000  Uiso   1.00
C710   C     0.36209   0.74033   0.92426   0.00000  Uiso   1.00
C711   C     0.52872   0.72253   0.80719   0.00000  Uiso   1.00
C712   C     0.51330   0.70266   0.76356   0.00000  Uiso   1.00
C713   C     0.52724   0.75534   0.73095   0.00000  Uiso   1.00
H714   H     0.59187   0.85695   0.87601   0.00000  Uiso   1.00
H715   H     0.71091   0.80189   0.91117   0.00000  Uiso   1.00
H716   H     0.47964   0.88913   0.92624   0.00000  Uiso   1.00
H717   H     0.59295   0.89942   0.79362   0.00000  Uiso   1.00
H718   H     0.83038   0.70997   0.94544   0.00000  Uiso   1.00
H719   H     0.34272   0.89393   0.97722   0.00000  Uiso   1.00
H720   H     0.58165   0.91564   0.69756   0.00000  Uiso   1.00
H721   H     0.49557   0.61906   0.83968   0.00000  Uiso   1.00
H722   H     0.60933   0.55095   0.87284   0.00000  Uiso   1.00
H723   H     0.37805   0.63819   0.88792   0.00000  Uiso   1.00
H724   H     0.49136   0.64848   0.75530   0.00000  Uiso   1.00
H725   H     0.74792   0.50630   0.91434   0.00000  Uiso   1.00
H726   H     0.26026   0.69026   0.94612   0.00000  Uiso   1.00
H727   H     0.49920   0.71197   0.66646   0.00000  Uiso   1.00
O728   O     0.86571   0.56762   0.95237   0.00000  Uiso   1.00
O729   O     0.22592   0.80897   0.99406   0.00000  Uiso   1.00
O730   O     0.53939   0.83745   0.62716   0.00000  Uiso   1.00
N731   N     0.79537   0.67139   0.93356   0.00000  Uiso   1.00
N732   N     0.33944   0.84337   0.96328   0.00000  Uiso   1.00
N733   N     0.56280   0.86368   0.70182   0.00000  Uiso   1.00
N734   N     0.75100   0.56179   0.91682   0.00000  Uiso   1.00
N735   N     0.29507   0.73378   0.94654   0.00000  Uiso   1.00
N736   N     0.51844   0.75408   0.68509   0.00000  Uiso   1.00
