data_job_02145
_audit_creation_date              2018-12-19
_audit_creation_method            'Materials Studio'
_symmetry_space_group_name_H-M    'P1'
_symmetry_Int_Tables_number       1
_symmetry_cell_setting            triclinic
loop_
_symmetry_equiv_pos_as_xyz
  x,y,z
_cell_length_a                    21.8068
_cell_length_b                    21.8068
_cell_length_c                    28.5407
_cell_angle_alpha                 90.0000
_cell_angle_beta                  90.0000
_cell_angle_gamma                 90.0000
loop_
_atom_site_label
_atom_site_type_symbol
_atom_site_fract_x
_atom_site_fract_y
_atom_site_fract_z
_atom_site_U_iso_or_equiv
_atom_site_adp_type
_atom_site_occupancy
C1     C     0.15470   0.74888   0.16102   0.00000  Uiso   1.00
C2     C     0.20278   0.70217   0.17626   0.00000  Uiso   1.00
C3     C     0.20498   0.67288   0.21939   0.00000  Uiso   1.00
C4     C     0.25262   0.63170   0.22653   0.00000  Uiso   1.00
C5     C     0.32061   0.56093   0.25549   0.00000  Uiso   1.00
C6     C     0.19007   0.80630   0.14689   0.00000  Uiso   1.00
C7     C     0.18159   0.86457   0.16534   0.00000  Uiso   1.00
C8     C     0.21853   0.91104   0.14775   0.00000  Uiso   1.00
C9     C     0.26677   0.00194   0.13109   0.00000  Uiso   1.00
C10    C     0.12657   0.72372   0.11605   0.00000  Uiso   1.00
C11    C     0.06468   0.71258   0.10855   0.00000  Uiso   1.00
C12    C     0.04816   0.68955   0.06499   0.00000  Uiso   1.00
C13    C     0.99779   0.65225   0.00043   0.00000  Uiso   1.00
C14    C     0.23540   0.72779   0.09699   0.00000  Uiso   1.00
C15    C     0.24661   0.69072   0.14148   0.00000  Uiso   1.00
C16    C     0.29425   0.64956   0.14855   0.00000  Uiso   1.00
C17    C     0.29652   0.62022   0.19169   0.00000  Uiso   1.00
C18    C     0.23390   0.79485   0.11211   0.00000  Uiso   1.00
C19    C     0.27086   0.84124   0.09449   0.00000  Uiso   1.00
C20    C     0.26244   0.89957   0.11291   0.00000  Uiso   1.00
C21    C     0.17040   0.71227   0.08126   0.00000  Uiso   1.00
C22    C     0.15396   0.68925   0.03771   0.00000  Uiso   1.00
C23    C     0.09206   0.67808   0.03015   0.00000  Uiso   1.00
H24    H     0.12058   0.75780   0.18810   0.00000  Uiso   1.00
H25    H     0.17105   0.68176   0.24630   0.00000  Uiso   1.00
H26    H     0.14766   0.87342   0.19225   0.00000  Uiso   1.00
H27    H     0.03078   0.72145   0.13547   0.00000  Uiso   1.00
H28    H     0.24635   0.59243   0.29550   0.00000  Uiso   1.00
H29    H     0.19701   0.99655   0.18151   0.00000  Uiso   1.00
H30    H     0.95054   0.67610   0.06179   0.00000  Uiso   1.00
H31    H     0.26952   0.71888   0.06991   0.00000  Uiso   1.00
H32    H     0.32817   0.64071   0.12163   0.00000  Uiso   1.00
H33    H     0.30477   0.83236   0.06758   0.00000  Uiso   1.00
H34    H     0.18789   0.68040   0.01080   0.00000  Uiso   1.00
H35    H     0.37387   0.55911   0.19431   0.00000  Uiso   1.00
H36    H     0.32453   0.96323   0.08033   0.00000  Uiso   1.00
H37    H     0.07806   0.64278   0.96060   0.00000  Uiso   1.00
O38    O     0.34601   0.52507   0.28106   0.00000  Uiso   1.00
O39    O     0.28127   0.05525   0.13151   0.00000  Uiso   1.00
O40    O     0.95791   0.63483   0.97444   0.00000  Uiso   1.00
N41    N     0.26830   0.59531   0.26458   0.00000  Uiso   1.00
N42    N     0.22219   0.97313   0.15802   0.00000  Uiso   1.00
N43    N     0.99175   0.67356   0.04608   0.00000  Uiso   1.00
N44    N     0.33692   0.57738   0.21013   0.00000  Uiso   1.00
N45    N     0.29080   0.95520   0.10357   0.00000  Uiso   1.00
N46    N     0.06037   0.65563   0.99163   0.00000  Uiso   1.00
C47    C     0.84530   0.25112   0.16102   0.00000  Uiso   1.00
C48    C     0.79722   0.29783   0.17626   0.00000  Uiso   1.00
C49    C     0.79502   0.32712   0.21939   0.00000  Uiso   1.00
C50    C     0.74738   0.36830   0.22653   0.00000  Uiso   1.00
C51    C     0.67939   0.43907   0.25549   0.00000  Uiso   1.00
C52    C     0.80993   0.19370   0.14689   0.00000  Uiso   1.00
C53    C     0.81841   0.13543   0.16534   0.00000  Uiso   1.00
C54    C     0.78147   0.08896   0.14775   0.00000  Uiso   1.00
C55    C     0.73323   0.99806   0.13109   0.00000  Uiso   1.00
C56    C     0.87343   0.27628   0.11605   0.00000  Uiso   1.00
C57    C     0.93532   0.28742   0.10855   0.00000  Uiso   1.00
C58    C     0.95184   0.31045   0.06499   0.00000  Uiso   1.00
C59    C     0.00221   0.34775   0.00043   0.00000  Uiso   1.00
C60    C     0.76460   0.27221   0.09699   0.00000  Uiso   1.00
C61    C     0.75339   0.30928   0.14148   0.00000  Uiso   1.00
C62    C     0.70575   0.35044   0.14855   0.00000  Uiso   1.00
C63    C     0.70348   0.37978   0.19169   0.00000  Uiso   1.00
C64    C     0.76610   0.20515   0.11211   0.00000  Uiso   1.00
C65    C     0.72914   0.15876   0.09449   0.00000  Uiso   1.00
C66    C     0.73756   0.10043   0.11291   0.00000  Uiso   1.00
C67    C     0.82960   0.28773   0.08126   0.00000  Uiso   1.00
C68    C     0.84604   0.31075   0.03771   0.00000  Uiso   1.00
C69    C     0.90794   0.32192   0.03015   0.00000  Uiso   1.00
H70    H     0.87942   0.24220   0.18810   0.00000  Uiso   1.00
H71    H     0.82895   0.31824   0.24630   0.00000  Uiso   1.00
H72    H     0.85234   0.12658   0.19225   0.00000  Uiso   1.00
H73    H     0.96922   0.27855   0.13547   0.00000  Uiso   1.00
H74    H     0.75365   0.40757   0.29550   0.00000  Uiso   1.00
H75    H     0.80299   0.00345   0.18151   0.00000  Uiso   1.00
H76    H     0.04946   0.32390   0.06179   0.00000  Uiso   1.00
H77    H     0.73048   0.28112   0.06991   0.00000  Uiso   1.00
H78    H     0.67183   0.35929   0.12163   0.00000  Uiso   1.00
H79    H     0.69523   0.16764   0.06758   0.00000  Uiso   1.00
H80    H     0.81211   0.31960   0.01080   0.00000  Uiso   1.00
H81    H     0.62613   0.44089   0.19431   0.00000  Uiso   1.00
H82    H     0.67547   0.03677   0.08033   0.00000  Uiso   1.00
H83    H     0.92194   0.35722   0.96060   0.00000  Uiso   1.00
O84    O     0.65399   0.47493   0.28106   0.00000  Uiso   1.00
O85    O     0.71873   0.94475   0.13151   0.00000  Uiso   1.00
O86    O     0.04209   0.36517   0.97444   0.00000  Uiso   1.00
N87    N     0.73170   0.40469   0.26458   0.00000  Uiso   1.00
N88    N     0.77781   0.02687   0.15802   0.00000  Uiso   1.00
N89    N     0.00825   0.32644   0.04608   0.00000  Uiso   1.00
N90    N     0.66308   0.42262   0.21013   0.00000  Uiso   1.00
N91    N     0.70920   0.04480   0.10357   0.00000  Uiso   1.00
N92    N     0.93963   0.34437   0.99163   0.00000  Uiso   1.00
C93    C     0.75112   0.65470   0.16102   0.00000  Uiso   1.00
C94    C     0.79783   0.70278   0.17626   0.00000  Uiso   1.00
C95    C     0.82712   0.70498   0.21939   0.00000  Uiso   1.00
C96    C     0.86830   0.75262   0.22653   0.00000  Uiso   1.00
C97    C     0.93907   0.82061   0.25549   0.00000  Uiso   1.00
C98    C     0.69370   0.69007   0.14689   0.00000  Uiso   1.00
C99    C     0.63543   0.68159   0.16534   0.00000  Uiso   1.00
C100   C     0.58896   0.71853   0.14775   0.00000  Uiso   1.00
C101   C     0.49806   0.76677   0.13109   0.00000  Uiso   1.00
C102   C     0.77628   0.62657   0.11605   0.00000  Uiso   1.00
C103   C     0.78742   0.56468   0.10855   0.00000  Uiso   1.00
C104   C     0.81045   0.54816   0.06499   0.00000  Uiso   1.00
C105   C     0.84775   0.49779   0.00043   0.00000  Uiso   1.00
C106   C     0.77221   0.73540   0.09699   0.00000  Uiso   1.00
C107   C     0.80928   0.74661   0.14148   0.00000  Uiso   1.00
C108   C     0.85044   0.79425   0.14855   0.00000  Uiso   1.00
C109   C     0.87978   0.79652   0.19169   0.00000  Uiso   1.00
C110   C     0.70515   0.73390   0.11211   0.00000  Uiso   1.00
C111   C     0.65876   0.77086   0.09449   0.00000  Uiso   1.00
C112   C     0.60043   0.76244   0.11291   0.00000  Uiso   1.00
C113   C     0.78773   0.67040   0.08126   0.00000  Uiso   1.00
C114   C     0.81075   0.65396   0.03771   0.00000  Uiso   1.00
C115   C     0.82192   0.59206   0.03015   0.00000  Uiso   1.00
H116   H     0.74220   0.62058   0.18810   0.00000  Uiso   1.00
H117   H     0.81824   0.67105   0.24630   0.00000  Uiso   1.00
H118   H     0.62658   0.64766   0.19225   0.00000  Uiso   1.00
H119   H     0.77855   0.53078   0.13547   0.00000  Uiso   1.00
H120   H     0.90757   0.74635   0.29550   0.00000  Uiso   1.00
H121   H     0.50345   0.69701   0.18151   0.00000  Uiso   1.00
H122   H     0.82390   0.45054   0.06179   0.00000  Uiso   1.00
H123   H     0.78112   0.76952   0.06991   0.00000  Uiso   1.00
H124   H     0.85929   0.82817   0.12163   0.00000  Uiso   1.00
H125   H     0.66764   0.80477   0.06758   0.00000  Uiso   1.00
H126   H     0.81960   0.68789   0.01080   0.00000  Uiso   1.00
H127   H     0.94089   0.87387   0.19431   0.00000  Uiso   1.00
H128   H     0.53677   0.82453   0.08033   0.00000  Uiso   1.00
H129   H     0.85722   0.57806   0.96060   0.00000  Uiso   1.00
O130   O     0.97493   0.84601   0.28106   0.00000  Uiso   1.00
O131   O     0.44475   0.78127   0.13151   0.00000  Uiso   1.00
O132   O     0.86517   0.45791   0.97444   0.00000  Uiso   1.00
N133   N     0.90469   0.76830   0.26458   0.00000  Uiso   1.00
N134   N     0.52687   0.72219   0.15802   0.00000  Uiso   1.00
N135   N     0.82644   0.49175   0.04608   0.00000  Uiso   1.00
N136   N     0.92262   0.83692   0.21013   0.00000  Uiso   1.00
N137   N     0.54480   0.79080   0.10357   0.00000  Uiso   1.00
N138   N     0.84437   0.56037   0.99163   0.00000  Uiso   1.00
C139   C     0.24888   0.34530   0.16102   0.00000  Uiso   1.00
C140   C     0.20217   0.29722   0.17626   0.00000  Uiso   1.00
C141   C     0.17288   0.29502   0.21939   0.00000  Uiso   1.00
C142   C     0.13170   0.24738   0.22653   0.00000  Uiso   1.00
C143   C     0.06093   0.17939   0.25549   0.00000  Uiso   1.00
C144   C     0.30630   0.30993   0.14689   0.00000  Uiso   1.00
C145   C     0.36457   0.31841   0.16534   0.00000  Uiso   1.00
C146   C     0.41104   0.28147   0.14775   0.00000  Uiso   1.00
C147   C     0.50194   0.23323   0.13109   0.00000  Uiso   1.00
C148   C     0.22372   0.37343   0.11605   0.00000  Uiso   1.00
C149   C     0.21258   0.43532   0.10855   0.00000  Uiso   1.00
C150   C     0.18955   0.45184   0.06499   0.00000  Uiso   1.00
C151   C     0.15225   0.50221   0.00043   0.00000  Uiso   1.00
C152   C     0.22779   0.26460   0.09699   0.00000  Uiso   1.00
C153   C     0.19072   0.25339   0.14148   0.00000  Uiso   1.00
C154   C     0.14956   0.20575   0.14855   0.00000  Uiso   1.00
C155   C     0.12022   0.20348   0.19169   0.00000  Uiso   1.00
C156   C     0.29485   0.26610   0.11211   0.00000  Uiso   1.00
C157   C     0.34124   0.22914   0.09449   0.00000  Uiso   1.00
C158   C     0.39957   0.23756   0.11291   0.00000  Uiso   1.00
C159   C     0.21227   0.32960   0.08126   0.00000  Uiso   1.00
C160   C     0.18925   0.34604   0.03771   0.00000  Uiso   1.00
C161   C     0.17808   0.40794   0.03015   0.00000  Uiso   1.00
H162   H     0.25780   0.37942   0.18810   0.00000  Uiso   1.00
H163   H     0.18176   0.32895   0.24630   0.00000  Uiso   1.00
H164   H     0.37342   0.35234   0.19225   0.00000  Uiso   1.00
H165   H     0.22145   0.46922   0.13547   0.00000  Uiso   1.00
H166   H     0.09243   0.25365   0.29550   0.00000  Uiso   1.00
H167   H     0.49655   0.30299   0.18151   0.00000  Uiso   1.00
H168   H     0.17610   0.54946   0.06179   0.00000  Uiso   1.00
H169   H     0.21888   0.23048   0.06991   0.00000  Uiso   1.00
H170   H     0.14071   0.17183   0.12163   0.00000  Uiso   1.00
H171   H     0.33236   0.19523   0.06758   0.00000  Uiso   1.00
H172   H     0.18040   0.31211   0.01080   0.00000  Uiso   1.00
H173   H     0.05911   0.12613   0.19431   0.00000  Uiso   1.00
H174   H     0.46323   0.17547   0.08033   0.00000  Uiso   1.00
H175   H     0.14278   0.42194   0.96060   0.00000  Uiso   1.00
O176   O     0.02507   0.15399   0.28106   0.00000  Uiso   1.00
O177   O     0.55525   0.21873   0.13151   0.00000  Uiso   1.00
O178   O     0.13483   0.54209   0.97444   0.00000  Uiso   1.00
N179   N     0.09531   0.23170   0.26458   0.00000  Uiso   1.00
N180   N     0.47313   0.27781   0.15802   0.00000  Uiso   1.00
N181   N     0.17356   0.50825   0.04608   0.00000  Uiso   1.00
N182   N     0.07738   0.16308   0.21013   0.00000  Uiso   1.00
N183   N     0.45520   0.20920   0.10357   0.00000  Uiso   1.00
N184   N     0.15563   0.43963   0.99163   0.00000  Uiso   1.00
C185   C     0.34530   0.24888   0.33898   0.00000  Uiso   1.00
C186   C     0.29722   0.20217   0.32374   0.00000  Uiso   1.00
C187   C     0.29502   0.17288   0.28061   0.00000  Uiso   1.00
C188   C     0.24738   0.13170   0.27347   0.00000  Uiso   1.00
C189   C     0.17939   0.06093   0.24451   0.00000  Uiso   1.00
C190   C     0.30993   0.30630   0.35311   0.00000  Uiso   1.00
C191   C     0.31841   0.36457   0.33466   0.00000  Uiso   1.00
C192   C     0.28147   0.41104   0.35225   0.00000  Uiso   1.00
C193   C     0.23323   0.50194   0.36891   0.00000  Uiso   1.00
C194   C     0.37343   0.22372   0.38395   0.00000  Uiso   1.00
C195   C     0.43532   0.21258   0.39145   0.00000  Uiso   1.00
C196   C     0.45184   0.18955   0.43501   0.00000  Uiso   1.00
C197   C     0.50221   0.15225   0.49957   0.00000  Uiso   1.00
C198   C     0.26460   0.22779   0.40301   0.00000  Uiso   1.00
C199   C     0.25339   0.19072   0.35852   0.00000  Uiso   1.00
C200   C     0.20575   0.14956   0.35145   0.00000  Uiso   1.00
C201   C     0.20348   0.12022   0.30831   0.00000  Uiso   1.00
C202   C     0.26610   0.29485   0.38789   0.00000  Uiso   1.00
C203   C     0.22914   0.34124   0.40551   0.00000  Uiso   1.00
C204   C     0.23756   0.39957   0.38709   0.00000  Uiso   1.00
C205   C     0.32960   0.21227   0.41874   0.00000  Uiso   1.00
C206   C     0.34604   0.18925   0.46229   0.00000  Uiso   1.00
C207   C     0.40794   0.17808   0.46985   0.00000  Uiso   1.00
H208   H     0.37942   0.25780   0.31190   0.00000  Uiso   1.00
H209   H     0.32895   0.18176   0.25370   0.00000  Uiso   1.00
H210   H     0.35234   0.37342   0.30775   0.00000  Uiso   1.00
H211   H     0.46922   0.22145   0.36453   0.00000  Uiso   1.00
H212   H     0.25365   0.09243   0.20450   0.00000  Uiso   1.00
H213   H     0.30299   0.49655   0.31849   0.00000  Uiso   1.00
H214   H     0.54946   0.17610   0.43821   0.00000  Uiso   1.00
H215   H     0.23048   0.21888   0.43009   0.00000  Uiso   1.00
H216   H     0.17183   0.14071   0.37837   0.00000  Uiso   1.00
H217   H     0.19523   0.33236   0.43242   0.00000  Uiso   1.00
H218   H     0.31211   0.18040   0.48920   0.00000  Uiso   1.00
H219   H     0.12613   0.05911   0.30569   0.00000  Uiso   1.00
H220   H     0.17547   0.46323   0.41967   0.00000  Uiso   1.00
H221   H     0.42194   0.14278   0.53940   0.00000  Uiso   1.00
O222   O     0.15399   0.02507   0.21894   0.00000  Uiso   1.00
O223   O     0.21873   0.55525   0.36849   0.00000  Uiso   1.00
O224   O     0.54209   0.13483   0.52556   0.00000  Uiso   1.00
N225   N     0.23170   0.09531   0.23542   0.00000  Uiso   1.00
N226   N     0.27781   0.47313   0.34198   0.00000  Uiso   1.00
N227   N     0.50825   0.17356   0.45392   0.00000  Uiso   1.00
N228   N     0.16308   0.07738   0.28987   0.00000  Uiso   1.00
N229   N     0.20920   0.45520   0.39643   0.00000  Uiso   1.00
N230   N     0.43963   0.15563   0.50837   0.00000  Uiso   1.00
C231   C     0.65470   0.75112   0.33898   0.00000  Uiso   1.00
C232   C     0.70278   0.79783   0.32374   0.00000  Uiso   1.00
C233   C     0.70498   0.82712   0.28061   0.00000  Uiso   1.00
C234   C     0.75262   0.86830   0.27347   0.00000  Uiso   1.00
C235   C     0.82061   0.93907   0.24451   0.00000  Uiso   1.00
C236   C     0.69007   0.69370   0.35311   0.00000  Uiso   1.00
C237   C     0.68159   0.63543   0.33466   0.00000  Uiso   1.00
C238   C     0.71853   0.58896   0.35225   0.00000  Uiso   1.00
C239   C     0.76677   0.49806   0.36891   0.00000  Uiso   1.00
C240   C     0.62657   0.77628   0.38395   0.00000  Uiso   1.00
C241   C     0.56468   0.78742   0.39145   0.00000  Uiso   1.00
C242   C     0.54816   0.81045   0.43501   0.00000  Uiso   1.00
C243   C     0.49779   0.84775   0.49957   0.00000  Uiso   1.00
C244   C     0.73540   0.77221   0.40301   0.00000  Uiso   1.00
C245   C     0.74661   0.80928   0.35852   0.00000  Uiso   1.00
C246   C     0.79425   0.85044   0.35145   0.00000  Uiso   1.00
C247   C     0.79652   0.87978   0.30831   0.00000  Uiso   1.00
C248   C     0.73390   0.70515   0.38789   0.00000  Uiso   1.00
C249   C     0.77086   0.65876   0.40551   0.00000  Uiso   1.00
C250   C     0.76244   0.60043   0.38709   0.00000  Uiso   1.00
C251   C     0.67040   0.78773   0.41874   0.00000  Uiso   1.00
C252   C     0.65396   0.81075   0.46229   0.00000  Uiso   1.00
C253   C     0.59206   0.82192   0.46985   0.00000  Uiso   1.00
H254   H     0.62058   0.74220   0.31190   0.00000  Uiso   1.00
H255   H     0.67105   0.81824   0.25370   0.00000  Uiso   1.00
H256   H     0.64766   0.62658   0.30775   0.00000  Uiso   1.00
H257   H     0.53078   0.77855   0.36453   0.00000  Uiso   1.00
H258   H     0.74635   0.90757   0.20450   0.00000  Uiso   1.00
H259   H     0.69701   0.50345   0.31849   0.00000  Uiso   1.00
H260   H     0.45054   0.82390   0.43821   0.00000  Uiso   1.00
H261   H     0.76952   0.78112   0.43009   0.00000  Uiso   1.00
H262   H     0.82817   0.85929   0.37837   0.00000  Uiso   1.00
H263   H     0.80477   0.66764   0.43242   0.00000  Uiso   1.00
H264   H     0.68789   0.81960   0.48920   0.00000  Uiso   1.00
H265   H     0.87387   0.94089   0.30569   0.00000  Uiso   1.00
H266   H     0.82453   0.53677   0.41967   0.00000  Uiso   1.00
H267   H     0.57806   0.85722   0.53940   0.00000  Uiso   1.00
O268   O     0.84601   0.97493   0.21894   0.00000  Uiso   1.00
O269   O     0.78127   0.44475   0.36849   0.00000  Uiso   1.00
O270   O     0.45791   0.86517   0.52556   0.00000  Uiso   1.00
N271   N     0.76830   0.90469   0.23542   0.00000  Uiso   1.00
N272   N     0.72219   0.52687   0.34198   0.00000  Uiso   1.00
N273   N     0.49175   0.82644   0.45392   0.00000  Uiso   1.00
N274   N     0.83692   0.92262   0.28987   0.00000  Uiso   1.00
N275   N     0.79080   0.54480   0.39643   0.00000  Uiso   1.00
N276   N     0.56037   0.84437   0.50837   0.00000  Uiso   1.00
C277   C     0.74888   0.15470   0.33898   0.00000  Uiso   1.00
C278   C     0.70217   0.20278   0.32374   0.00000  Uiso   1.00
C279   C     0.67288   0.20498   0.28061   0.00000  Uiso   1.00
C280   C     0.63170   0.25262   0.27347   0.00000  Uiso   1.00
C281   C     0.56093   0.32061   0.24451   0.00000  Uiso   1.00
C282   C     0.80630   0.19007   0.35311   0.00000  Uiso   1.00
C283   C     0.86457   0.18159   0.33466   0.00000  Uiso   1.00
C284   C     0.91104   0.21853   0.35225   0.00000  Uiso   1.00
C285   C     0.00194   0.26677   0.36891   0.00000  Uiso   1.00
C286   C     0.72372   0.12657   0.38395   0.00000  Uiso   1.00
C287   C     0.71258   0.06468   0.39145   0.00000  Uiso   1.00
C288   C     0.68955   0.04816   0.43501   0.00000  Uiso   1.00
C289   C     0.65225   0.99779   0.49957   0.00000  Uiso   1.00
C290   C     0.72779   0.23540   0.40301   0.00000  Uiso   1.00
C291   C     0.69072   0.24661   0.35852   0.00000  Uiso   1.00
C292   C     0.64956   0.29425   0.35145   0.00000  Uiso   1.00
C293   C     0.62022   0.29652   0.30831   0.00000  Uiso   1.00
C294   C     0.79485   0.23390   0.38789   0.00000  Uiso   1.00
C295   C     0.84124   0.27086   0.40551   0.00000  Uiso   1.00
C296   C     0.89957   0.26244   0.38709   0.00000  Uiso   1.00
C297   C     0.71227   0.17040   0.41874   0.00000  Uiso   1.00
C298   C     0.68925   0.15396   0.46229   0.00000  Uiso   1.00
C299   C     0.67808   0.09206   0.46985   0.00000  Uiso   1.00
H300   H     0.75780   0.12058   0.31190   0.00000  Uiso   1.00
H301   H     0.68176   0.17105   0.25370   0.00000  Uiso   1.00
H302   H     0.87342   0.14766   0.30775   0.00000  Uiso   1.00
H303   H     0.72145   0.03078   0.36453   0.00000  Uiso   1.00
H304   H     0.59243   0.24635   0.20450   0.00000  Uiso   1.00
H305   H     0.99655   0.19701   0.31849   0.00000  Uiso   1.00
H306   H     0.67610   0.95054   0.43821   0.00000  Uiso   1.00
H307   H     0.71888   0.26952   0.43009   0.00000  Uiso   1.00
H308   H     0.64071   0.32817   0.37837   0.00000  Uiso   1.00
H309   H     0.83236   0.30477   0.43242   0.00000  Uiso   1.00
H310   H     0.68040   0.18789   0.48920   0.00000  Uiso   1.00
H311   H     0.55911   0.37387   0.30569   0.00000  Uiso   1.00
H312   H     0.96323   0.32453   0.41967   0.00000  Uiso   1.00
H313   H     0.64278   0.07806   0.53940   0.00000  Uiso   1.00
O314   O     0.52507   0.34601   0.21894   0.00000  Uiso   1.00
O315   O     0.05525   0.28127   0.36849   0.00000  Uiso   1.00
O316   O     0.63483   0.95791   0.52556   0.00000  Uiso   1.00
N317   N     0.59531   0.26830   0.23542   0.00000  Uiso   1.00
N318   N     0.97313   0.22219   0.34198   0.00000  Uiso   1.00
N319   N     0.67356   0.99175   0.45392   0.00000  Uiso   1.00
N320   N     0.57738   0.33692   0.28987   0.00000  Uiso   1.00
N321   N     0.95520   0.29080   0.39643   0.00000  Uiso   1.00
N322   N     0.65563   0.06037   0.50837   0.00000  Uiso   1.00
C323   C     0.25112   0.84530   0.33898   0.00000  Uiso   1.00
C324   C     0.29783   0.79722   0.32374   0.00000  Uiso   1.00
C325   C     0.32712   0.79502   0.28061   0.00000  Uiso   1.00
C326   C     0.36830   0.74738   0.27347   0.00000  Uiso   1.00
C327   C     0.43907   0.67939   0.24451   0.00000  Uiso   1.00
C328   C     0.19370   0.80993   0.35311   0.00000  Uiso   1.00
C329   C     0.13543   0.81841   0.33466   0.00000  Uiso   1.00
C330   C     0.08896   0.78147   0.35225   0.00000  Uiso   1.00
C331   C     0.99806   0.73323   0.36891   0.00000  Uiso   1.00
C332   C     0.27628   0.87343   0.38395   0.00000  Uiso   1.00
C333   C     0.28742   0.93532   0.39145   0.00000  Uiso   1.00
C334   C     0.31045   0.95184   0.43501   0.00000  Uiso   1.00
C335   C     0.34775   0.00221   0.49957   0.00000  Uiso   1.00
C336   C     0.27221   0.76460   0.40301   0.00000  Uiso   1.00
C337   C     0.30928   0.75339   0.35852   0.00000  Uiso   1.00
C338   C     0.35044   0.70575   0.35145   0.00000  Uiso   1.00
C339   C     0.37978   0.70348   0.30831   0.00000  Uiso   1.00
C340   C     0.20515   0.76610   0.38789   0.00000  Uiso   1.00
C341   C     0.15876   0.72914   0.40551   0.00000  Uiso   1.00
C342   C     0.10043   0.73756   0.38709   0.00000  Uiso   1.00
C343   C     0.28773   0.82960   0.41874   0.00000  Uiso   1.00
C344   C     0.31075   0.84604   0.46229   0.00000  Uiso   1.00
C345   C     0.32192   0.90794   0.46985   0.00000  Uiso   1.00
H346   H     0.24220   0.87942   0.31190   0.00000  Uiso   1.00
H347   H     0.31824   0.82895   0.25370   0.00000  Uiso   1.00
H348   H     0.12658   0.85234   0.30775   0.00000  Uiso   1.00
H349   H     0.27855   0.96922   0.36453   0.00000  Uiso   1.00
H350   H     0.40757   0.75365   0.20450   0.00000  Uiso   1.00
H351   H     0.00345   0.80299   0.31849   0.00000  Uiso   1.00
H352   H     0.32390   0.04946   0.43821   0.00000  Uiso   1.00
H353   H     0.28112   0.73048   0.43009   0.00000  Uiso   1.00
H354   H     0.35929   0.67183   0.37837   0.00000  Uiso   1.00
H355   H     0.16764   0.69523   0.43242   0.00000  Uiso   1.00
H356   H     0.31960   0.81211   0.48920   0.00000  Uiso   1.00
H357   H     0.44089   0.62613   0.30569   0.00000  Uiso   1.00
H358   H     0.03677   0.67547   0.41967   0.00000  Uiso   1.00
H359   H     0.35722   0.92194   0.53940   0.00000  Uiso   1.00
O360   O     0.47493   0.65399   0.21894   0.00000  Uiso   1.00
O361   O     0.94475   0.71873   0.36849   0.00000  Uiso   1.00
O362   O     0.36517   0.04209   0.52556   0.00000  Uiso   1.00
N363   N     0.40469   0.73170   0.23542   0.00000  Uiso   1.00
N364   N     0.02687   0.77781   0.34198   0.00000  Uiso   1.00
N365   N     0.32644   0.00825   0.45392   0.00000  Uiso   1.00
N366   N     0.42262   0.66308   0.28987   0.00000  Uiso   1.00
N367   N     0.04480   0.70920   0.39643   0.00000  Uiso   1.00
N368   N     0.34437   0.93963   0.50837   0.00000  Uiso   1.00
C369   C     0.34530   0.75112   0.83898   0.00000  Uiso   1.00
C370   C     0.29722   0.79783   0.82374   0.00000  Uiso   1.00
C371   C     0.29502   0.82712   0.78061   0.00000  Uiso   1.00
C372   C     0.24738   0.86830   0.77347   0.00000  Uiso   1.00
C373   C     0.17939   0.93907   0.74451   0.00000  Uiso   1.00
C374   C     0.30993   0.69370   0.85311   0.00000  Uiso   1.00
C375   C     0.31841   0.63543   0.83466   0.00000  Uiso   1.00
C376   C     0.28147   0.58896   0.85225   0.00000  Uiso   1.00
C377   C     0.23323   0.49806   0.86891   0.00000  Uiso   1.00
C378   C     0.37343   0.77628   0.88395   0.00000  Uiso   1.00
C379   C     0.43532   0.78742   0.89145   0.00000  Uiso   1.00
C380   C     0.45184   0.81045   0.93501   0.00000  Uiso   1.00
C381   C     0.50221   0.84775   0.99957   0.00000  Uiso   1.00
C382   C     0.26460   0.77221   0.90301   0.00000  Uiso   1.00
C383   C     0.25339   0.80928   0.85852   0.00000  Uiso   1.00
C384   C     0.20575   0.85044   0.85145   0.00000  Uiso   1.00
C385   C     0.20348   0.87978   0.80831   0.00000  Uiso   1.00
C386   C     0.26610   0.70515   0.88789   0.00000  Uiso   1.00
C387   C     0.22914   0.65876   0.90551   0.00000  Uiso   1.00
C388   C     0.23756   0.60043   0.88709   0.00000  Uiso   1.00
C389   C     0.32960   0.78773   0.91874   0.00000  Uiso   1.00
C390   C     0.34604   0.81075   0.96229   0.00000  Uiso   1.00
C391   C     0.40794   0.82192   0.96985   0.00000  Uiso   1.00
H392   H     0.37942   0.74220   0.81190   0.00000  Uiso   1.00
H393   H     0.32895   0.81824   0.75370   0.00000  Uiso   1.00
H394   H     0.35234   0.62658   0.80775   0.00000  Uiso   1.00
H395   H     0.46922   0.77855   0.86453   0.00000  Uiso   1.00
H396   H     0.25365   0.90757   0.70450   0.00000  Uiso   1.00
H397   H     0.30299   0.50345   0.81849   0.00000  Uiso   1.00
H398   H     0.54946   0.82390   0.93821   0.00000  Uiso   1.00
H399   H     0.23048   0.78112   0.93009   0.00000  Uiso   1.00
H400   H     0.17183   0.85929   0.87837   0.00000  Uiso   1.00
H401   H     0.19523   0.66764   0.93242   0.00000  Uiso   1.00
H402   H     0.31211   0.81960   0.98920   0.00000  Uiso   1.00
H403   H     0.12613   0.94089   0.80569   0.00000  Uiso   1.00
H404   H     0.17547   0.53677   0.91967   0.00000  Uiso   1.00
H405   H     0.42194   0.85722   0.03940   0.00000  Uiso   1.00
O406   O     0.15399   0.97493   0.71894   0.00000  Uiso   1.00
O407   O     0.21873   0.44475   0.86849   0.00000  Uiso   1.00
O408   O     0.54209   0.86517   0.02556   0.00000  Uiso   1.00
N409   N     0.23170   0.90469   0.73542   0.00000  Uiso   1.00
N410   N     0.27781   0.52687   0.84198   0.00000  Uiso   1.00
N411   N     0.50825   0.82644   0.95392   0.00000  Uiso   1.00
N412   N     0.16308   0.92262   0.78987   0.00000  Uiso   1.00
N413   N     0.20920   0.54480   0.89643   0.00000  Uiso   1.00
N414   N     0.43963   0.84437   0.00837   0.00000  Uiso   1.00
C415   C     0.65470   0.24888   0.83898   0.00000  Uiso   1.00
C416   C     0.70278   0.20217   0.82374   0.00000  Uiso   1.00
C417   C     0.70498   0.17288   0.78061   0.00000  Uiso   1.00
C418   C     0.75262   0.13170   0.77347   0.00000  Uiso   1.00
C419   C     0.82061   0.06093   0.74451   0.00000  Uiso   1.00
C420   C     0.69007   0.30630   0.85311   0.00000  Uiso   1.00
C421   C     0.68159   0.36457   0.83466   0.00000  Uiso   1.00
C422   C     0.71853   0.41104   0.85225   0.00000  Uiso   1.00
C423   C     0.76677   0.50194   0.86891   0.00000  Uiso   1.00
C424   C     0.62657   0.22372   0.88395   0.00000  Uiso   1.00
C425   C     0.56468   0.21258   0.89145   0.00000  Uiso   1.00
C426   C     0.54816   0.18955   0.93501   0.00000  Uiso   1.00
C427   C     0.49779   0.15225   0.99957   0.00000  Uiso   1.00
C428   C     0.73540   0.22779   0.90301   0.00000  Uiso   1.00
C429   C     0.74661   0.19072   0.85852   0.00000  Uiso   1.00
C430   C     0.79425   0.14956   0.85145   0.00000  Uiso   1.00
C431   C     0.79652   0.12022   0.80831   0.00000  Uiso   1.00
C432   C     0.73390   0.29485   0.88789   0.00000  Uiso   1.00
C433   C     0.77086   0.34124   0.90551   0.00000  Uiso   1.00
C434   C     0.76244   0.39957   0.88709   0.00000  Uiso   1.00
C435   C     0.67040   0.21227   0.91874   0.00000  Uiso   1.00
C436   C     0.65396   0.18925   0.96229   0.00000  Uiso   1.00
C437   C     0.59206   0.17808   0.96985   0.00000  Uiso   1.00
H438   H     0.62058   0.25780   0.81190   0.00000  Uiso   1.00
H439   H     0.67105   0.18176   0.75370   0.00000  Uiso   1.00
H440   H     0.64766   0.37342   0.80775   0.00000  Uiso   1.00
H441   H     0.53078   0.22145   0.86453   0.00000  Uiso   1.00
H442   H     0.74635   0.09243   0.70450   0.00000  Uiso   1.00
H443   H     0.69701   0.49655   0.81849   0.00000  Uiso   1.00
H444   H     0.45054   0.17610   0.93821   0.00000  Uiso   1.00
H445   H     0.76952   0.21888   0.93009   0.00000  Uiso   1.00
H446   H     0.82817   0.14071   0.87837   0.00000  Uiso   1.00
H447   H     0.80477   0.33236   0.93242   0.00000  Uiso   1.00
H448   H     0.68789   0.18040   0.98920   0.00000  Uiso   1.00
H449   H     0.87387   0.05911   0.80569   0.00000  Uiso   1.00
H450   H     0.82453   0.46323   0.91967   0.00000  Uiso   1.00
H451   H     0.57806   0.14278   0.03940   0.00000  Uiso   1.00
O452   O     0.84601   0.02507   0.71894   0.00000  Uiso   1.00
O453   O     0.78127   0.55525   0.86849   0.00000  Uiso   1.00
O454   O     0.45791   0.13483   0.02556   0.00000  Uiso   1.00
N455   N     0.76830   0.09531   0.73542   0.00000  Uiso   1.00
N456   N     0.72219   0.47313   0.84198   0.00000  Uiso   1.00
N457   N     0.49175   0.17356   0.95392   0.00000  Uiso   1.00
N458   N     0.83692   0.07738   0.78987   0.00000  Uiso   1.00
N459   N     0.79080   0.45520   0.89643   0.00000  Uiso   1.00
N460   N     0.56037   0.15563   0.00837   0.00000  Uiso   1.00
C461   C     0.74888   0.84530   0.83898   0.00000  Uiso   1.00
C462   C     0.70217   0.79722   0.82374   0.00000  Uiso   1.00
C463   C     0.67288   0.79502   0.78061   0.00000  Uiso   1.00
C464   C     0.63170   0.74738   0.77347   0.00000  Uiso   1.00
C465   C     0.56093   0.67939   0.74451   0.00000  Uiso   1.00
C466   C     0.80630   0.80993   0.85311   0.00000  Uiso   1.00
C467   C     0.86457   0.81841   0.83466   0.00000  Uiso   1.00
C468   C     0.91104   0.78147   0.85225   0.00000  Uiso   1.00
C469   C     0.00194   0.73323   0.86891   0.00000  Uiso   1.00
C470   C     0.72372   0.87343   0.88395   0.00000  Uiso   1.00
C471   C     0.71258   0.93532   0.89145   0.00000  Uiso   1.00
C472   C     0.68955   0.95184   0.93501   0.00000  Uiso   1.00
C473   C     0.65225   0.00221   0.99957   0.00000  Uiso   1.00
C474   C     0.72779   0.76460   0.90301   0.00000  Uiso   1.00
C475   C     0.69072   0.75339   0.85852   0.00000  Uiso   1.00
C476   C     0.64956   0.70575   0.85145   0.00000  Uiso   1.00
C477   C     0.62022   0.70348   0.80831   0.00000  Uiso   1.00
C478   C     0.79485   0.76610   0.88789   0.00000  Uiso   1.00
C479   C     0.84124   0.72914   0.90551   0.00000  Uiso   1.00
C480   C     0.89957   0.73756   0.88709   0.00000  Uiso   1.00
C481   C     0.71227   0.82960   0.91874   0.00000  Uiso   1.00
C482   C     0.68925   0.84604   0.96229   0.00000  Uiso   1.00
C483   C     0.67808   0.90794   0.96985   0.00000  Uiso   1.00
H484   H     0.75780   0.87942   0.81190   0.00000  Uiso   1.00
H485   H     0.68176   0.82895   0.75370   0.00000  Uiso   1.00
H486   H     0.87342   0.85234   0.80775   0.00000  Uiso   1.00
H487   H     0.72145   0.96922   0.86453   0.00000  Uiso   1.00
H488   H     0.59243   0.75365   0.70450   0.00000  Uiso   1.00
H489   H     0.99655   0.80299   0.81849   0.00000  Uiso   1.00
H490   H     0.67610   0.04946   0.93821   0.00000  Uiso   1.00
H491   H     0.71888   0.73048   0.93009   0.00000  Uiso   1.00
H492   H     0.64071   0.67183   0.87837   0.00000  Uiso   1.00
H493   H     0.83236   0.69523   0.93242   0.00000  Uiso   1.00
H494   H     0.68040   0.81211   0.98920   0.00000  Uiso   1.00
H495   H     0.55911   0.62613   0.80569   0.00000  Uiso   1.00
H496   H     0.96323   0.67547   0.91967   0.00000  Uiso   1.00
H497   H     0.64278   0.92194   0.03940   0.00000  Uiso   1.00
O498   O     0.52507   0.65399   0.71894   0.00000  Uiso   1.00
O499   O     0.05525   0.71873   0.86849   0.00000  Uiso   1.00
O500   O     0.63483   0.04209   0.02556   0.00000  Uiso   1.00
N501   N     0.59531   0.73170   0.73542   0.00000  Uiso   1.00
N502   N     0.97313   0.77781   0.84198   0.00000  Uiso   1.00
N503   N     0.67356   0.00825   0.95392   0.00000  Uiso   1.00
N504   N     0.57738   0.66308   0.78987   0.00000  Uiso   1.00
N505   N     0.95520   0.70920   0.89643   0.00000  Uiso   1.00
N506   N     0.65563   0.93963   0.00837   0.00000  Uiso   1.00
C507   C     0.25112   0.15470   0.83898   0.00000  Uiso   1.00
C508   C     0.29783   0.20278   0.82374   0.00000  Uiso   1.00
C509   C     0.32712   0.20498   0.78061   0.00000  Uiso   1.00
C510   C     0.36830   0.25262   0.77347   0.00000  Uiso   1.00
C511   C     0.43907   0.32061   0.74451   0.00000  Uiso   1.00
C512   C     0.19370   0.19007   0.85311   0.00000  Uiso   1.00
C513   C     0.13543   0.18159   0.83466   0.00000  Uiso   1.00
C514   C     0.08896   0.21853   0.85225   0.00000  Uiso   1.00
C515   C     0.99806   0.26677   0.86891   0.00000  Uiso   1.00
C516   C     0.27628   0.12657   0.88395   0.00000  Uiso   1.00
C517   C     0.28742   0.06468   0.89145   0.00000  Uiso   1.00
C518   C     0.31045   0.04816   0.93501   0.00000  Uiso   1.00
C519   C     0.34775   0.99779   0.99957   0.00000  Uiso   1.00
C520   C     0.27221   0.23540   0.90301   0.00000  Uiso   1.00
C521   C     0.30928   0.24661   0.85852   0.00000  Uiso   1.00
C522   C     0.35044   0.29425   0.85145   0.00000  Uiso   1.00
C523   C     0.37978   0.29652   0.80831   0.00000  Uiso   1.00
C524   C     0.20515   0.23390   0.88789   0.00000  Uiso   1.00
C525   C     0.15876   0.27086   0.90551   0.00000  Uiso   1.00
C526   C     0.10043   0.26244   0.88709   0.00000  Uiso   1.00
C527   C     0.28773   0.17040   0.91874   0.00000  Uiso   1.00
C528   C     0.31075   0.15396   0.96229   0.00000  Uiso   1.00
C529   C     0.32192   0.09206   0.96985   0.00000  Uiso   1.00
H530   H     0.24220   0.12058   0.81190   0.00000  Uiso   1.00
H531   H     0.31824   0.17105   0.75370   0.00000  Uiso   1.00
H532   H     0.12658   0.14766   0.80775   0.00000  Uiso   1.00
H533   H     0.27855   0.03078   0.86453   0.00000  Uiso   1.00
H534   H     0.40757   0.24635   0.70450   0.00000  Uiso   1.00
H535   H     0.00345   0.19701   0.81849   0.00000  Uiso   1.00
H536   H     0.32390   0.95054   0.93821   0.00000  Uiso   1.00
H537   H     0.28112   0.26952   0.93009   0.00000  Uiso   1.00
H538   H     0.35929   0.32817   0.87837   0.00000  Uiso   1.00
H539   H     0.16764   0.30477   0.93242   0.00000  Uiso   1.00
H540   H     0.31960   0.18789   0.98920   0.00000  Uiso   1.00
H541   H     0.44089   0.37387   0.80569   0.00000  Uiso   1.00
H542   H     0.03677   0.32453   0.91967   0.00000  Uiso   1.00
H543   H     0.35722   0.07806   0.03940   0.00000  Uiso   1.00
O544   O     0.47493   0.34601   0.71894   0.00000  Uiso   1.00
O545   O     0.94475   0.28127   0.86849   0.00000  Uiso   1.00
O546   O     0.36517   0.95791   0.02556   0.00000  Uiso   1.00
N547   N     0.40469   0.26830   0.73542   0.00000  Uiso   1.00
N548   N     0.02687   0.22219   0.84198   0.00000  Uiso   1.00
N549   N     0.32644   0.99175   0.95392   0.00000  Uiso   1.00
N550   N     0.42262   0.33692   0.78987   0.00000  Uiso   1.00
N551   N     0.04480   0.29080   0.89643   0.00000  Uiso   1.00
N552   N     0.34437   0.06037   0.00837   0.00000  Uiso   1.00
C553   C     0.15470   0.25112   0.66102   0.00000  Uiso   1.00
C554   C     0.20278   0.29783   0.67626   0.00000  Uiso   1.00
C555   C     0.20498   0.32712   0.71939   0.00000  Uiso   1.00
C556   C     0.25262   0.36830   0.72653   0.00000  Uiso   1.00
C557   C     0.32061   0.43907   0.75549   0.00000  Uiso   1.00
C558   C     0.19007   0.19370   0.64689   0.00000  Uiso   1.00
C559   C     0.18159   0.13543   0.66534   0.00000  Uiso   1.00
C560   C     0.21853   0.08896   0.64775   0.00000  Uiso   1.00
C561   C     0.26677   0.99806   0.63109   0.00000  Uiso   1.00
C562   C     0.12657   0.27628   0.61605   0.00000  Uiso   1.00
C563   C     0.06468   0.28742   0.60855   0.00000  Uiso   1.00
C564   C     0.04816   0.31045   0.56499   0.00000  Uiso   1.00
C565   C     0.99779   0.34775   0.50043   0.00000  Uiso   1.00
C566   C     0.23540   0.27221   0.59699   0.00000  Uiso   1.00
C567   C     0.24661   0.30928   0.64148   0.00000  Uiso   1.00
C568   C     0.29425   0.35044   0.64855   0.00000  Uiso   1.00
C569   C     0.29652   0.37978   0.69169   0.00000  Uiso   1.00
C570   C     0.23390   0.20515   0.61211   0.00000  Uiso   1.00
C571   C     0.27086   0.15876   0.59449   0.00000  Uiso   1.00
C572   C     0.26244   0.10043   0.61291   0.00000  Uiso   1.00
C573   C     0.17040   0.28773   0.58126   0.00000  Uiso   1.00
C574   C     0.15396   0.31075   0.53771   0.00000  Uiso   1.00
C575   C     0.09206   0.32192   0.53015   0.00000  Uiso   1.00
H576   H     0.12058   0.24220   0.68810   0.00000  Uiso   1.00
H577   H     0.17105   0.31824   0.74630   0.00000  Uiso   1.00
H578   H     0.14766   0.12658   0.69225   0.00000  Uiso   1.00
H579   H     0.03078   0.27855   0.63547   0.00000  Uiso   1.00
H580   H     0.24635   0.40757   0.79550   0.00000  Uiso   1.00
H581   H     0.19701   0.00345   0.68151   0.00000  Uiso   1.00
H582   H     0.95054   0.32390   0.56179   0.00000  Uiso   1.00
H583   H     0.26952   0.28112   0.56991   0.00000  Uiso   1.00
H584   H     0.32817   0.35929   0.62163   0.00000  Uiso   1.00
H585   H     0.30477   0.16764   0.56758   0.00000  Uiso   1.00
H586   H     0.18789   0.31960   0.51080   0.00000  Uiso   1.00
H587   H     0.37387   0.44089   0.69431   0.00000  Uiso   1.00
H588   H     0.32453   0.03677   0.58033   0.00000  Uiso   1.00
H589   H     0.07806   0.35722   0.46060   0.00000  Uiso   1.00
O590   O     0.34601   0.47493   0.78106   0.00000  Uiso   1.00
O591   O     0.28127   0.94475   0.63151   0.00000  Uiso   1.00
O592   O     0.95791   0.36517   0.47444   0.00000  Uiso   1.00
N593   N     0.26830   0.40469   0.76458   0.00000  Uiso   1.00
N594   N     0.22219   0.02687   0.65802   0.00000  Uiso   1.00
N595   N     0.99175   0.32644   0.54608   0.00000  Uiso   1.00
N596   N     0.33692   0.42262   0.71013   0.00000  Uiso   1.00
N597   N     0.29080   0.04480   0.60357   0.00000  Uiso   1.00
N598   N     0.06037   0.34437   0.49163   0.00000  Uiso   1.00
C599   C     0.84530   0.74888   0.66102   0.00000  Uiso   1.00
C600   C     0.79722   0.70217   0.67626   0.00000  Uiso   1.00
C601   C     0.79502   0.67288   0.71939   0.00000  Uiso   1.00
C602   C     0.74738   0.63170   0.72653   0.00000  Uiso   1.00
C603   C     0.67939   0.56093   0.75549   0.00000  Uiso   1.00
C604   C     0.80993   0.80630   0.64689   0.00000  Uiso   1.00
C605   C     0.81841   0.86457   0.66534   0.00000  Uiso   1.00
C606   C     0.78147   0.91104   0.64775   0.00000  Uiso   1.00
C607   C     0.73323   0.00194   0.63109   0.00000  Uiso   1.00
C608   C     0.87343   0.72372   0.61605   0.00000  Uiso   1.00
C609   C     0.93532   0.71258   0.60855   0.00000  Uiso   1.00
C610   C     0.95184   0.68955   0.56499   0.00000  Uiso   1.00
C611   C     0.00221   0.65225   0.50043   0.00000  Uiso   1.00
C612   C     0.76460   0.72779   0.59699   0.00000  Uiso   1.00
C613   C     0.75339   0.69072   0.64148   0.00000  Uiso   1.00
C614   C     0.70575   0.64956   0.64855   0.00000  Uiso   1.00
C615   C     0.70348   0.62022   0.69169   0.00000  Uiso   1.00
C616   C     0.76610   0.79485   0.61211   0.00000  Uiso   1.00
C617   C     0.72914   0.84124   0.59449   0.00000  Uiso   1.00
C618   C     0.73756   0.89957   0.61291   0.00000  Uiso   1.00
C619   C     0.82960   0.71227   0.58126   0.00000  Uiso   1.00
C620   C     0.84604   0.68925   0.53771   0.00000  Uiso   1.00
C621   C     0.90794   0.67808   0.53015   0.00000  Uiso   1.00
H622   H     0.87942   0.75780   0.68810   0.00000  Uiso   1.00
H623   H     0.82895   0.68176   0.74630   0.00000  Uiso   1.00
H624   H     0.85234   0.87342   0.69225   0.00000  Uiso   1.00
H625   H     0.96922   0.72145   0.63547   0.00000  Uiso   1.00
H626   H     0.75365   0.59243   0.79550   0.00000  Uiso   1.00
H627   H     0.80299   0.99655   0.68151   0.00000  Uiso   1.00
H628   H     0.04946   0.67610   0.56179   0.00000  Uiso   1.00
H629   H     0.73048   0.71888   0.56991   0.00000  Uiso   1.00
H630   H     0.67183   0.64071   0.62163   0.00000  Uiso   1.00
H631   H     0.69523   0.83236   0.56758   0.00000  Uiso   1.00
H632   H     0.81211   0.68040   0.51080   0.00000  Uiso   1.00
H633   H     0.62613   0.55911   0.69431   0.00000  Uiso   1.00
H634   H     0.67547   0.96323   0.58033   0.00000  Uiso   1.00
H635   H     0.92194   0.64278   0.46060   0.00000  Uiso   1.00
O636   O     0.65399   0.52507   0.78106   0.00000  Uiso   1.00
O637   O     0.71873   0.05525   0.63151   0.00000  Uiso   1.00
O638   O     0.04209   0.63483   0.47444   0.00000  Uiso   1.00
N639   N     0.73170   0.59531   0.76458   0.00000  Uiso   1.00
N640   N     0.77781   0.97313   0.65802   0.00000  Uiso   1.00
N641   N     0.00825   0.67356   0.54608   0.00000  Uiso   1.00
N642   N     0.66308   0.57738   0.71013   0.00000  Uiso   1.00
N643   N     0.70920   0.95520   0.60357   0.00000  Uiso   1.00
N644   N     0.93963   0.65563   0.49163   0.00000  Uiso   1.00
C645   C     0.75112   0.34530   0.66102   0.00000  Uiso   1.00
C646   C     0.79783   0.29722   0.67626   0.00000  Uiso   1.00
C647   C     0.82712   0.29502   0.71939   0.00000  Uiso   1.00
C648   C     0.86830   0.24738   0.72653   0.00000  Uiso   1.00
C649   C     0.93907   0.17939   0.75549   0.00000  Uiso   1.00
C650   C     0.69370   0.30993   0.64689   0.00000  Uiso   1.00
C651   C     0.63543   0.31841   0.66534   0.00000  Uiso   1.00
C652   C     0.58896   0.28147   0.64775   0.00000  Uiso   1.00
C653   C     0.49806   0.23323   0.63109   0.00000  Uiso   1.00
C654   C     0.77628   0.37343   0.61605   0.00000  Uiso   1.00
C655   C     0.78742   0.43532   0.60855   0.00000  Uiso   1.00
C656   C     0.81045   0.45184   0.56499   0.00000  Uiso   1.00
C657   C     0.84775   0.50221   0.50043   0.00000  Uiso   1.00
C658   C     0.77221   0.26460   0.59699   0.00000  Uiso   1.00
C659   C     0.80928   0.25339   0.64148   0.00000  Uiso   1.00
C660   C     0.85044   0.20575   0.64855   0.00000  Uiso   1.00
C661   C     0.87978   0.20348   0.69169   0.00000  Uiso   1.00
C662   C     0.70515   0.26610   0.61211   0.00000  Uiso   1.00
C663   C     0.65876   0.22914   0.59449   0.00000  Uiso   1.00
C664   C     0.60043   0.23756   0.61291   0.00000  Uiso   1.00
C665   C     0.78773   0.32960   0.58126   0.00000  Uiso   1.00
C666   C     0.81075   0.34604   0.53771   0.00000  Uiso   1.00
C667   C     0.82192   0.40794   0.53015   0.00000  Uiso   1.00
H668   H     0.74220   0.37942   0.68810   0.00000  Uiso   1.00
H669   H     0.81824   0.32895   0.74630   0.00000  Uiso   1.00
H670   H     0.62658   0.35234   0.69225   0.00000  Uiso   1.00
H671   H     0.77855   0.46922   0.63547   0.00000  Uiso   1.00
H672   H     0.90757   0.25365   0.79550   0.00000  Uiso   1.00
H673   H     0.50345   0.30299   0.68151   0.00000  Uiso   1.00
H674   H     0.82390   0.54946   0.56179   0.00000  Uiso   1.00
H675   H     0.78112   0.23048   0.56991   0.00000  Uiso   1.00
H676   H     0.85929   0.17183   0.62163   0.00000  Uiso   1.00
H677   H     0.66764   0.19523   0.56758   0.00000  Uiso   1.00
H678   H     0.81960   0.31211   0.51080   0.00000  Uiso   1.00
H679   H     0.94089   0.12613   0.69431   0.00000  Uiso   1.00
H680   H     0.53677   0.17547   0.58033   0.00000  Uiso   1.00
H681   H     0.85722   0.42194   0.46060   0.00000  Uiso   1.00
O682   O     0.97493   0.15399   0.78106   0.00000  Uiso   1.00
O683   O     0.44475   0.21873   0.63151   0.00000  Uiso   1.00
O684   O     0.86517   0.54209   0.47444   0.00000  Uiso   1.00
N685   N     0.90469   0.23170   0.76458   0.00000  Uiso   1.00
N686   N     0.52687   0.27781   0.65802   0.00000  Uiso   1.00
N687   N     0.82644   0.50825   0.54608   0.00000  Uiso   1.00
N688   N     0.92262   0.16308   0.71013   0.00000  Uiso   1.00
N689   N     0.54480   0.20920   0.60357   0.00000  Uiso   1.00
N690   N     0.84437   0.43963   0.49163   0.00000  Uiso   1.00
C691   C     0.24888   0.65470   0.66102   0.00000  Uiso   1.00
C692   C     0.20217   0.70278   0.67626   0.00000  Uiso   1.00
C693   C     0.17288   0.70498   0.71939   0.00000  Uiso   1.00
C694   C     0.13170   0.75262   0.72653   0.00000  Uiso   1.00
C695   C     0.06093   0.82061   0.75549   0.00000  Uiso   1.00
C696   C     0.30630   0.69007   0.64689   0.00000  Uiso   1.00
C697   C     0.36457   0.68159   0.66534   0.00000  Uiso   1.00
C698   C     0.41104   0.71853   0.64775   0.00000  Uiso   1.00
C699   C     0.50194   0.76677   0.63109   0.00000  Uiso   1.00
C700   C     0.22372   0.62657   0.61605   0.00000  Uiso   1.00
C701   C     0.21258   0.56468   0.60855   0.00000  Uiso   1.00
C702   C     0.18955   0.54816   0.56499   0.00000  Uiso   1.00
C703   C     0.15225   0.49779   0.50043   0.00000  Uiso   1.00
C704   C     0.22779   0.73540   0.59699   0.00000  Uiso   1.00
C705   C     0.19072   0.74661   0.64148   0.00000  Uiso   1.00
C706   C     0.14956   0.79425   0.64855   0.00000  Uiso   1.00
C707   C     0.12022   0.79652   0.69169   0.00000  Uiso   1.00
C708   C     0.29485   0.73390   0.61211   0.00000  Uiso   1.00
C709   C     0.34124   0.77086   0.59449   0.00000  Uiso   1.00
C710   C     0.39957   0.76244   0.61291   0.00000  Uiso   1.00
C711   C     0.21227   0.67040   0.58126   0.00000  Uiso   1.00
C712   C     0.18925   0.65396   0.53771   0.00000  Uiso   1.00
C713   C     0.17808   0.59206   0.53015   0.00000  Uiso   1.00
H714   H     0.25780   0.62058   0.68810   0.00000  Uiso   1.00
H715   H     0.18176   0.67105   0.74630   0.00000  Uiso   1.00
H716   H     0.37342   0.64766   0.69225   0.00000  Uiso   1.00
H717   H     0.22145   0.53078   0.63547   0.00000  Uiso   1.00
H718   H     0.09243   0.74635   0.79550   0.00000  Uiso   1.00
H719   H     0.49655   0.69701   0.68151   0.00000  Uiso   1.00
H720   H     0.17610   0.45054   0.56179   0.00000  Uiso   1.00
H721   H     0.21888   0.76952   0.56991   0.00000  Uiso   1.00
H722   H     0.14071   0.82817   0.62163   0.00000  Uiso   1.00
H723   H     0.33236   0.80477   0.56758   0.00000  Uiso   1.00
H724   H     0.18040   0.68789   0.51080   0.00000  Uiso   1.00
H725   H     0.05911   0.87387   0.69431   0.00000  Uiso   1.00
H726   H     0.46323   0.82453   0.58033   0.00000  Uiso   1.00
H727   H     0.14278   0.57806   0.46060   0.00000  Uiso   1.00
O728   O     0.02507   0.84601   0.78106   0.00000  Uiso   1.00
O729   O     0.55525   0.78127   0.63151   0.00000  Uiso   1.00
O730   O     0.13483   0.45791   0.47444   0.00000  Uiso   1.00
N731   N     0.09531   0.76830   0.76458   0.00000  Uiso   1.00
N732   N     0.47313   0.72219   0.65802   0.00000  Uiso   1.00
N733   N     0.17356   0.49175   0.54608   0.00000  Uiso   1.00
N734   N     0.07738   0.83692   0.71013   0.00000  Uiso   1.00
N735   N     0.45520   0.79080   0.60357   0.00000  Uiso   1.00
N736   N     0.15563   0.56037   0.49163   0.00000  Uiso   1.00
