data_job_03590
_audit_creation_date              2018-12-19
_audit_creation_method            'Materials Studio'
_symmetry_space_group_name_H-M    'P1'
_symmetry_Int_Tables_number       1
_symmetry_cell_setting            triclinic
loop_
_symmetry_equiv_pos_as_xyz
  x,y,z
_cell_length_a                    33.4350
_cell_length_b                    33.4350
_cell_length_c                    10.8025
_cell_angle_alpha                 90.0000
_cell_angle_beta                  90.0000
_cell_angle_gamma                 90.0000
loop_
_atom_site_label
_atom_site_type_symbol
_atom_site_fract_x
_atom_site_fract_y
_atom_site_fract_z
_atom_site_U_iso_or_equiv
_atom_site_adp_type
_atom_site_occupancy
C1     C     0.81988   0.85385   0.33894   0.00000  Uiso   1.00
C2     C     0.85693   0.83335   0.28653   0.00000  Uiso   1.00
C3     C     0.85714   0.80415   0.19523   0.00000  Uiso   1.00
C4     C     0.89414   0.78913   0.15999   0.00000  Uiso   1.00
C5     C     0.94628   0.75520   0.07041   0.00000  Uiso   1.00
C6     C     0.82112   0.84691   0.47841   0.00000  Uiso   1.00
C7     C     0.79121   0.82911   0.54843   0.00000  Uiso   1.00
C8     C     0.79806   0.82551   0.67470   0.00000  Uiso   1.00
C9     C     0.79459   0.81266   0.88303   0.00000  Uiso   1.00
C10    C     0.82635   0.89859   0.32026   0.00000  Uiso   1.00
C11    C     0.80084   0.92425   0.25733   0.00000  Uiso   1.00
C12    C     0.81209   0.96416   0.25047   0.00000  Uiso   1.00
C13    C     0.81675   0.03155   0.21325   0.00000  Uiso   1.00
C14    C     0.88522   0.87910   0.43870   0.00000  Uiso   1.00
C15    C     0.89243   0.84706   0.34073   0.00000  Uiso   1.00
C16    C     0.92944   0.83209   0.30561   0.00000  Uiso   1.00
C17    C     0.92970   0.80287   0.21426   0.00000  Uiso   1.00
C18    C     0.85661   0.86062   0.53260   0.00000  Uiso   1.00
C19    C     0.86351   0.85705   0.65880   0.00000  Uiso   1.00
C20    C     0.83362   0.83925   0.72899   0.00000  Uiso   1.00
C21    C     0.86185   0.91230   0.37444   0.00000  Uiso   1.00
C22    C     0.87314   0.95218   0.36770   0.00000  Uiso   1.00
C23    C     0.84765   0.97790   0.30476   0.00000  Uiso   1.00
H24    H     0.79224   0.84317   0.29676   0.00000  Uiso   1.00
H25    H     0.82966   0.79354   0.15333   0.00000  Uiso   1.00
H26    H     0.76375   0.81851   0.50647   0.00000  Uiso   1.00
H27    H     0.77338   0.91363   0.21541   0.00000  Uiso   1.00
H28    H     0.88681   0.74456   0.01823   0.00000  Uiso   1.00
H29    H     0.74781   0.79721   0.76286   0.00000  Uiso   1.00
H30    H     0.76811   0.99779   0.14910   0.00000  Uiso   1.00
H31    H     0.91286   0.88977   0.48089   0.00000  Uiso   1.00
H32    H     0.95690   0.84270   0.34756   0.00000  Uiso   1.00
H33    H     0.89098   0.86767   0.70070   0.00000  Uiso   1.00
H34    H     0.90061   0.96279   0.40964   0.00000  Uiso   1.00
H35    H     0.99007   0.78446   0.17588   0.00000  Uiso   1.00
H36    H     0.85107   0.83711   0.92051   0.00000  Uiso   1.00
H37    H     0.87138   0.03769   0.30675   0.00000  Uiso   1.00
O38    O     0.96524   0.73269   0.00605   0.00000  Uiso   1.00
O39    O     0.78287   0.80177   0.98297   0.00000  Uiso   1.00
O40    O     0.80951   0.06493   0.17773   0.00000  Uiso   1.00
N41    N     0.90507   0.76042   0.07362   0.00000  Uiso   1.00
N42    N     0.77511   0.80963   0.76979   0.00000  Uiso   1.00
N43    N     0.79409   0.99716   0.19601   0.00000  Uiso   1.00
N44    N     0.96063   0.78189   0.15844   0.00000  Uiso   1.00
N45    N     0.83068   0.83110   0.85462   0.00000  Uiso   1.00
N46    N     0.84966   0.01863   0.28083   0.00000  Uiso   1.00
C47    C     0.31988   0.35385   0.83894   0.00000  Uiso   1.00
C48    C     0.35693   0.33335   0.78653   0.00000  Uiso   1.00
C49    C     0.35714   0.30415   0.69523   0.00000  Uiso   1.00
C50    C     0.39414   0.28913   0.65999   0.00000  Uiso   1.00
C51    C     0.44628   0.25520   0.57041   0.00000  Uiso   1.00
C52    C     0.32112   0.34691   0.97841   0.00000  Uiso   1.00
C53    C     0.29121   0.32911   0.04843   0.00000  Uiso   1.00
C54    C     0.29806   0.32551   0.17470   0.00000  Uiso   1.00
C55    C     0.29459   0.31266   0.38303   0.00000  Uiso   1.00
C56    C     0.32635   0.39859   0.82026   0.00000  Uiso   1.00
C57    C     0.30084   0.42425   0.75733   0.00000  Uiso   1.00
C58    C     0.31209   0.46416   0.75047   0.00000  Uiso   1.00
C59    C     0.31675   0.53155   0.71325   0.00000  Uiso   1.00
C60    C     0.38522   0.37910   0.93870   0.00000  Uiso   1.00
C61    C     0.39243   0.34706   0.84073   0.00000  Uiso   1.00
C62    C     0.42944   0.33209   0.80561   0.00000  Uiso   1.00
C63    C     0.42970   0.30287   0.71426   0.00000  Uiso   1.00
C64    C     0.35661   0.36062   0.03260   0.00000  Uiso   1.00
C65    C     0.36351   0.35705   0.15880   0.00000  Uiso   1.00
C66    C     0.33362   0.33925   0.22899   0.00000  Uiso   1.00
C67    C     0.36185   0.41230   0.87444   0.00000  Uiso   1.00
C68    C     0.37314   0.45218   0.86770   0.00000  Uiso   1.00
C69    C     0.34765   0.47790   0.80476   0.00000  Uiso   1.00
H70    H     0.29224   0.34317   0.79676   0.00000  Uiso   1.00
H71    H     0.32966   0.29354   0.65333   0.00000  Uiso   1.00
H72    H     0.26375   0.31851   0.00647   0.00000  Uiso   1.00
H73    H     0.27338   0.41363   0.71541   0.00000  Uiso   1.00
H74    H     0.38681   0.24456   0.51823   0.00000  Uiso   1.00
H75    H     0.24781   0.29721   0.26286   0.00000  Uiso   1.00
H76    H     0.26811   0.49779   0.64910   0.00000  Uiso   1.00
H77    H     0.41286   0.38977   0.98089   0.00000  Uiso   1.00
H78    H     0.45690   0.34270   0.84756   0.00000  Uiso   1.00
H79    H     0.39098   0.36767   0.20070   0.00000  Uiso   1.00
H80    H     0.40061   0.46279   0.90964   0.00000  Uiso   1.00
H81    H     0.49007   0.28446   0.67588   0.00000  Uiso   1.00
H82    H     0.35107   0.33711   0.42051   0.00000  Uiso   1.00
H83    H     0.37138   0.53769   0.80675   0.00000  Uiso   1.00
O84    O     0.46524   0.23269   0.50605   0.00000  Uiso   1.00
O85    O     0.28287   0.30177   0.48297   0.00000  Uiso   1.00
O86    O     0.30951   0.56493   0.67773   0.00000  Uiso   1.00
N87    N     0.40507   0.26042   0.57362   0.00000  Uiso   1.00
N88    N     0.27511   0.30963   0.26979   0.00000  Uiso   1.00
N89    N     0.29409   0.49716   0.69601   0.00000  Uiso   1.00
N90    N     0.46063   0.28189   0.65844   0.00000  Uiso   1.00
N91    N     0.33068   0.33110   0.35462   0.00000  Uiso   1.00
N92    N     0.34966   0.51863   0.78083   0.00000  Uiso   1.00
C93    C     0.68012   0.64615   0.83894   0.00000  Uiso   1.00
C94    C     0.64307   0.66665   0.78653   0.00000  Uiso   1.00
C95    C     0.64286   0.69585   0.69523   0.00000  Uiso   1.00
C96    C     0.60586   0.71087   0.65999   0.00000  Uiso   1.00
C97    C     0.55372   0.74480   0.57041   0.00000  Uiso   1.00
C98    C     0.67888   0.65309   0.97841   0.00000  Uiso   1.00
C99    C     0.70879   0.67089   0.04843   0.00000  Uiso   1.00
C100   C     0.70194   0.67449   0.17470   0.00000  Uiso   1.00
C101   C     0.70541   0.68734   0.38303   0.00000  Uiso   1.00
C102   C     0.67365   0.60141   0.82026   0.00000  Uiso   1.00
C103   C     0.69916   0.57575   0.75733   0.00000  Uiso   1.00
C104   C     0.68791   0.53584   0.75047   0.00000  Uiso   1.00
C105   C     0.68325   0.46845   0.71325   0.00000  Uiso   1.00
C106   C     0.61478   0.62090   0.93870   0.00000  Uiso   1.00
C107   C     0.60757   0.65294   0.84073   0.00000  Uiso   1.00
C108   C     0.57056   0.66791   0.80561   0.00000  Uiso   1.00
C109   C     0.57030   0.69713   0.71426   0.00000  Uiso   1.00
C110   C     0.64339   0.63938   0.03260   0.00000  Uiso   1.00
C111   C     0.63649   0.64295   0.15880   0.00000  Uiso   1.00
C112   C     0.66638   0.66075   0.22899   0.00000  Uiso   1.00
C113   C     0.63815   0.58770   0.87444   0.00000  Uiso   1.00
C114   C     0.62686   0.54782   0.86770   0.00000  Uiso   1.00
C115   C     0.65235   0.52210   0.80476   0.00000  Uiso   1.00
H116   H     0.70776   0.65683   0.79676   0.00000  Uiso   1.00
H117   H     0.67034   0.70646   0.65333   0.00000  Uiso   1.00
H118   H     0.73625   0.68149   0.00647   0.00000  Uiso   1.00
H119   H     0.72662   0.58637   0.71541   0.00000  Uiso   1.00
H120   H     0.61319   0.75544   0.51823   0.00000  Uiso   1.00
H121   H     0.75219   0.70279   0.26286   0.00000  Uiso   1.00
H122   H     0.73189   0.50221   0.64910   0.00000  Uiso   1.00
H123   H     0.58714   0.61023   0.98089   0.00000  Uiso   1.00
H124   H     0.54310   0.65730   0.84756   0.00000  Uiso   1.00
H125   H     0.60902   0.63233   0.20070   0.00000  Uiso   1.00
H126   H     0.59939   0.53721   0.90964   0.00000  Uiso   1.00
H127   H     0.50993   0.71554   0.67588   0.00000  Uiso   1.00
H128   H     0.64893   0.66289   0.42051   0.00000  Uiso   1.00
H129   H     0.62862   0.46231   0.80675   0.00000  Uiso   1.00
O130   O     0.53476   0.76731   0.50605   0.00000  Uiso   1.00
O131   O     0.71713   0.69823   0.48297   0.00000  Uiso   1.00
O132   O     0.69049   0.43507   0.67773   0.00000  Uiso   1.00
N133   N     0.59493   0.73958   0.57362   0.00000  Uiso   1.00
N134   N     0.72489   0.69037   0.26979   0.00000  Uiso   1.00
N135   N     0.70591   0.50284   0.69601   0.00000  Uiso   1.00
N136   N     0.53937   0.71811   0.65844   0.00000  Uiso   1.00
N137   N     0.66932   0.66890   0.35462   0.00000  Uiso   1.00
N138   N     0.65034   0.48137   0.78083   0.00000  Uiso   1.00
C139   C     0.18012   0.14615   0.33894   0.00000  Uiso   1.00
C140   C     0.14307   0.16665   0.28653   0.00000  Uiso   1.00
C141   C     0.14286   0.19585   0.19523   0.00000  Uiso   1.00
C142   C     0.10586   0.21087   0.15999   0.00000  Uiso   1.00
C143   C     0.05372   0.24480   0.07041   0.00000  Uiso   1.00
C144   C     0.17888   0.15309   0.47841   0.00000  Uiso   1.00
C145   C     0.20879   0.17089   0.54843   0.00000  Uiso   1.00
C146   C     0.20194   0.17449   0.67470   0.00000  Uiso   1.00
C147   C     0.20541   0.18734   0.88303   0.00000  Uiso   1.00
C148   C     0.17365   0.10141   0.32026   0.00000  Uiso   1.00
C149   C     0.19916   0.07575   0.25733   0.00000  Uiso   1.00
C150   C     0.18791   0.03584   0.25047   0.00000  Uiso   1.00
C151   C     0.18325   0.96845   0.21325   0.00000  Uiso   1.00
C152   C     0.11478   0.12090   0.43870   0.00000  Uiso   1.00
C153   C     0.10757   0.15294   0.34073   0.00000  Uiso   1.00
C154   C     0.07056   0.16791   0.30561   0.00000  Uiso   1.00
C155   C     0.07030   0.19713   0.21426   0.00000  Uiso   1.00
C156   C     0.14339   0.13938   0.53260   0.00000  Uiso   1.00
C157   C     0.13649   0.14295   0.65880   0.00000  Uiso   1.00
C158   C     0.16638   0.16075   0.72899   0.00000  Uiso   1.00
C159   C     0.13815   0.08770   0.37444   0.00000  Uiso   1.00
C160   C     0.12686   0.04782   0.36770   0.00000  Uiso   1.00
C161   C     0.15235   0.02210   0.30476   0.00000  Uiso   1.00
H162   H     0.20776   0.15683   0.29676   0.00000  Uiso   1.00
H163   H     0.17034   0.20646   0.15333   0.00000  Uiso   1.00
H164   H     0.23625   0.18149   0.50647   0.00000  Uiso   1.00
H165   H     0.22662   0.08637   0.21541   0.00000  Uiso   1.00
H166   H     0.11319   0.25544   0.01823   0.00000  Uiso   1.00
H167   H     0.25219   0.20279   0.76286   0.00000  Uiso   1.00
H168   H     0.23189   0.00221   0.14910   0.00000  Uiso   1.00
H169   H     0.08714   0.11023   0.48089   0.00000  Uiso   1.00
H170   H     0.04310   0.15730   0.34756   0.00000  Uiso   1.00
H171   H     0.10902   0.13233   0.70070   0.00000  Uiso   1.00
H172   H     0.09939   0.03721   0.40964   0.00000  Uiso   1.00
H173   H     0.00993   0.21554   0.17588   0.00000  Uiso   1.00
H174   H     0.14893   0.16289   0.92051   0.00000  Uiso   1.00
H175   H     0.12862   0.96231   0.30675   0.00000  Uiso   1.00
O176   O     0.03476   0.26731   0.00605   0.00000  Uiso   1.00
O177   O     0.21713   0.19823   0.98297   0.00000  Uiso   1.00
O178   O     0.19049   0.93507   0.17773   0.00000  Uiso   1.00
N179   N     0.09493   0.23958   0.07362   0.00000  Uiso   1.00
N180   N     0.22489   0.19037   0.76979   0.00000  Uiso   1.00
N181   N     0.20591   0.00284   0.19601   0.00000  Uiso   1.00
N182   N     0.03937   0.21811   0.15844   0.00000  Uiso   1.00
N183   N     0.16932   0.16890   0.85462   0.00000  Uiso   1.00
N184   N     0.15034   0.98137   0.28083   0.00000  Uiso   1.00
C185   C     0.14615   0.31988   0.58894   0.00000  Uiso   1.00
C186   C     0.16665   0.35693   0.53653   0.00000  Uiso   1.00
C187   C     0.19585   0.35714   0.44523   0.00000  Uiso   1.00
C188   C     0.21087   0.39414   0.40999   0.00000  Uiso   1.00
C189   C     0.24480   0.44628   0.32041   0.00000  Uiso   1.00
C190   C     0.15309   0.32112   0.72841   0.00000  Uiso   1.00
C191   C     0.17089   0.29121   0.79843   0.00000  Uiso   1.00
C192   C     0.17449   0.29806   0.92470   0.00000  Uiso   1.00
C193   C     0.18734   0.29459   0.13303   0.00000  Uiso   1.00
C194   C     0.10141   0.32635   0.57026   0.00000  Uiso   1.00
C195   C     0.07575   0.30084   0.50733   0.00000  Uiso   1.00
C196   C     0.03584   0.31209   0.50047   0.00000  Uiso   1.00
C197   C     0.96845   0.31675   0.46325   0.00000  Uiso   1.00
C198   C     0.12090   0.38522   0.68870   0.00000  Uiso   1.00
C199   C     0.15294   0.39243   0.59073   0.00000  Uiso   1.00
C200   C     0.16791   0.42944   0.55561   0.00000  Uiso   1.00
C201   C     0.19713   0.42970   0.46426   0.00000  Uiso   1.00
C202   C     0.13938   0.35661   0.78260   0.00000  Uiso   1.00
C203   C     0.14295   0.36351   0.90880   0.00000  Uiso   1.00
C204   C     0.16075   0.33362   0.97899   0.00000  Uiso   1.00
C205   C     0.08770   0.36185   0.62444   0.00000  Uiso   1.00
C206   C     0.04782   0.37314   0.61770   0.00000  Uiso   1.00
C207   C     0.02210   0.34765   0.55476   0.00000  Uiso   1.00
H208   H     0.15683   0.29224   0.54676   0.00000  Uiso   1.00
H209   H     0.20646   0.32966   0.40333   0.00000  Uiso   1.00
H210   H     0.18149   0.26375   0.75647   0.00000  Uiso   1.00
H211   H     0.08637   0.27338   0.46541   0.00000  Uiso   1.00
H212   H     0.25544   0.38681   0.26823   0.00000  Uiso   1.00
H213   H     0.20279   0.24781   0.01286   0.00000  Uiso   1.00
H214   H     0.00221   0.26811   0.39910   0.00000  Uiso   1.00
H215   H     0.11023   0.41286   0.73089   0.00000  Uiso   1.00
H216   H     0.15730   0.45690   0.59756   0.00000  Uiso   1.00
H217   H     0.13233   0.39098   0.95070   0.00000  Uiso   1.00
H218   H     0.03721   0.40061   0.65964   0.00000  Uiso   1.00
H219   H     0.21554   0.49007   0.42588   0.00000  Uiso   1.00
H220   H     0.16289   0.35107   0.17051   0.00000  Uiso   1.00
H221   H     0.96231   0.37138   0.55675   0.00000  Uiso   1.00
O222   O     0.26731   0.46524   0.25605   0.00000  Uiso   1.00
O223   O     0.19823   0.28287   0.23297   0.00000  Uiso   1.00
O224   O     0.93507   0.30951   0.42773   0.00000  Uiso   1.00
N225   N     0.23958   0.40507   0.32362   0.00000  Uiso   1.00
N226   N     0.19037   0.27511   0.01979   0.00000  Uiso   1.00
N227   N     0.00284   0.29409   0.44601   0.00000  Uiso   1.00
N228   N     0.21811   0.46063   0.40844   0.00000  Uiso   1.00
N229   N     0.16890   0.33068   0.10462   0.00000  Uiso   1.00
N230   N     0.98137   0.34966   0.53083   0.00000  Uiso   1.00
C231   C     0.64615   0.81988   0.08894   0.00000  Uiso   1.00
C232   C     0.66665   0.85693   0.03653   0.00000  Uiso   1.00
C233   C     0.69585   0.85714   0.94523   0.00000  Uiso   1.00
C234   C     0.71087   0.89414   0.90999   0.00000  Uiso   1.00
C235   C     0.74480   0.94628   0.82041   0.00000  Uiso   1.00
C236   C     0.65309   0.82112   0.22841   0.00000  Uiso   1.00
C237   C     0.67089   0.79121   0.29843   0.00000  Uiso   1.00
C238   C     0.67449   0.79806   0.42470   0.00000  Uiso   1.00
C239   C     0.68734   0.79459   0.63303   0.00000  Uiso   1.00
C240   C     0.60141   0.82635   0.07026   0.00000  Uiso   1.00
C241   C     0.57575   0.80084   0.00733   0.00000  Uiso   1.00
C242   C     0.53584   0.81209   0.00047   0.00000  Uiso   1.00
C243   C     0.46845   0.81675   0.96325   0.00000  Uiso   1.00
C244   C     0.62090   0.88522   0.18870   0.00000  Uiso   1.00
C245   C     0.65294   0.89243   0.09073   0.00000  Uiso   1.00
C246   C     0.66791   0.92944   0.05561   0.00000  Uiso   1.00
C247   C     0.69713   0.92970   0.96426   0.00000  Uiso   1.00
C248   C     0.63938   0.85661   0.28260   0.00000  Uiso   1.00
C249   C     0.64295   0.86351   0.40880   0.00000  Uiso   1.00
C250   C     0.66075   0.83362   0.47899   0.00000  Uiso   1.00
C251   C     0.58770   0.86185   0.12444   0.00000  Uiso   1.00
C252   C     0.54782   0.87314   0.11770   0.00000  Uiso   1.00
C253   C     0.52210   0.84765   0.05476   0.00000  Uiso   1.00
H254   H     0.65683   0.79224   0.04676   0.00000  Uiso   1.00
H255   H     0.70646   0.82966   0.90333   0.00000  Uiso   1.00
H256   H     0.68149   0.76375   0.25647   0.00000  Uiso   1.00
H257   H     0.58637   0.77338   0.96541   0.00000  Uiso   1.00
H258   H     0.75544   0.88681   0.76823   0.00000  Uiso   1.00
H259   H     0.70279   0.74781   0.51286   0.00000  Uiso   1.00
H260   H     0.50221   0.76811   0.89910   0.00000  Uiso   1.00
H261   H     0.61023   0.91286   0.23089   0.00000  Uiso   1.00
H262   H     0.65730   0.95690   0.09756   0.00000  Uiso   1.00
H263   H     0.63233   0.89098   0.45070   0.00000  Uiso   1.00
H264   H     0.53721   0.90061   0.15964   0.00000  Uiso   1.00
H265   H     0.71554   0.99007   0.92588   0.00000  Uiso   1.00
H266   H     0.66289   0.85107   0.67051   0.00000  Uiso   1.00
H267   H     0.46231   0.87138   0.05675   0.00000  Uiso   1.00
O268   O     0.76731   0.96524   0.75605   0.00000  Uiso   1.00
O269   O     0.69823   0.78287   0.73297   0.00000  Uiso   1.00
O270   O     0.43507   0.80951   0.92773   0.00000  Uiso   1.00
N271   N     0.73958   0.90507   0.82362   0.00000  Uiso   1.00
N272   N     0.69037   0.77511   0.51979   0.00000  Uiso   1.00
N273   N     0.50284   0.79409   0.94601   0.00000  Uiso   1.00
N274   N     0.71811   0.96063   0.90844   0.00000  Uiso   1.00
N275   N     0.66890   0.83068   0.60462   0.00000  Uiso   1.00
N276   N     0.48137   0.84966   0.03083   0.00000  Uiso   1.00
C277   C     0.35385   0.18012   0.08894   0.00000  Uiso   1.00
C278   C     0.33335   0.14307   0.03653   0.00000  Uiso   1.00
C279   C     0.30415   0.14286   0.94523   0.00000  Uiso   1.00
C280   C     0.28913   0.10586   0.90999   0.00000  Uiso   1.00
C281   C     0.25520   0.05372   0.82041   0.00000  Uiso   1.00
C282   C     0.34691   0.17888   0.22841   0.00000  Uiso   1.00
C283   C     0.32911   0.20879   0.29843   0.00000  Uiso   1.00
C284   C     0.32551   0.20194   0.42470   0.00000  Uiso   1.00
C285   C     0.31266   0.20541   0.63303   0.00000  Uiso   1.00
C286   C     0.39859   0.17365   0.07026   0.00000  Uiso   1.00
C287   C     0.42425   0.19916   0.00733   0.00000  Uiso   1.00
C288   C     0.46416   0.18791   0.00047   0.00000  Uiso   1.00
C289   C     0.53155   0.18325   0.96325   0.00000  Uiso   1.00
C290   C     0.37910   0.11478   0.18870   0.00000  Uiso   1.00
C291   C     0.34706   0.10757   0.09073   0.00000  Uiso   1.00
C292   C     0.33209   0.07056   0.05561   0.00000  Uiso   1.00
C293   C     0.30287   0.07030   0.96426   0.00000  Uiso   1.00
C294   C     0.36062   0.14339   0.28260   0.00000  Uiso   1.00
C295   C     0.35705   0.13649   0.40880   0.00000  Uiso   1.00
C296   C     0.33925   0.16638   0.47899   0.00000  Uiso   1.00
C297   C     0.41230   0.13815   0.12444   0.00000  Uiso   1.00
C298   C     0.45218   0.12686   0.11770   0.00000  Uiso   1.00
C299   C     0.47790   0.15235   0.05476   0.00000  Uiso   1.00
H300   H     0.34317   0.20776   0.04676   0.00000  Uiso   1.00
H301   H     0.29354   0.17034   0.90333   0.00000  Uiso   1.00
H302   H     0.31851   0.23625   0.25647   0.00000  Uiso   1.00
H303   H     0.41363   0.22662   0.96541   0.00000  Uiso   1.00
H304   H     0.24456   0.11319   0.76823   0.00000  Uiso   1.00
H305   H     0.29721   0.25219   0.51286   0.00000  Uiso   1.00
H306   H     0.49779   0.23189   0.89910   0.00000  Uiso   1.00
H307   H     0.38977   0.08714   0.23089   0.00000  Uiso   1.00
H308   H     0.34270   0.04310   0.09756   0.00000  Uiso   1.00
H309   H     0.36767   0.10902   0.45070   0.00000  Uiso   1.00
H310   H     0.46279   0.09939   0.15964   0.00000  Uiso   1.00
H311   H     0.28446   0.00993   0.92588   0.00000  Uiso   1.00
H312   H     0.33711   0.14893   0.67051   0.00000  Uiso   1.00
H313   H     0.53769   0.12862   0.05675   0.00000  Uiso   1.00
O314   O     0.23269   0.03476   0.75605   0.00000  Uiso   1.00
O315   O     0.30177   0.21713   0.73297   0.00000  Uiso   1.00
O316   O     0.56493   0.19049   0.92773   0.00000  Uiso   1.00
N317   N     0.26042   0.09493   0.82362   0.00000  Uiso   1.00
N318   N     0.30963   0.22489   0.51979   0.00000  Uiso   1.00
N319   N     0.49716   0.20591   0.94601   0.00000  Uiso   1.00
N320   N     0.28189   0.03937   0.90844   0.00000  Uiso   1.00
N321   N     0.33110   0.16932   0.60462   0.00000  Uiso   1.00
N322   N     0.51863   0.15034   0.03083   0.00000  Uiso   1.00
C323   C     0.85385   0.68012   0.58894   0.00000  Uiso   1.00
C324   C     0.83335   0.64307   0.53653   0.00000  Uiso   1.00
C325   C     0.80415   0.64286   0.44523   0.00000  Uiso   1.00
C326   C     0.78913   0.60586   0.40999   0.00000  Uiso   1.00
C327   C     0.75520   0.55372   0.32041   0.00000  Uiso   1.00
C328   C     0.84691   0.67888   0.72841   0.00000  Uiso   1.00
C329   C     0.82911   0.70879   0.79843   0.00000  Uiso   1.00
C330   C     0.82551   0.70194   0.92470   0.00000  Uiso   1.00
C331   C     0.81266   0.70541   0.13303   0.00000  Uiso   1.00
C332   C     0.89859   0.67365   0.57026   0.00000  Uiso   1.00
C333   C     0.92425   0.69916   0.50733   0.00000  Uiso   1.00
C334   C     0.96416   0.68791   0.50047   0.00000  Uiso   1.00
C335   C     0.03155   0.68325   0.46325   0.00000  Uiso   1.00
C336   C     0.87910   0.61478   0.68870   0.00000  Uiso   1.00
C337   C     0.84706   0.60757   0.59073   0.00000  Uiso   1.00
C338   C     0.83209   0.57056   0.55561   0.00000  Uiso   1.00
C339   C     0.80287   0.57030   0.46426   0.00000  Uiso   1.00
C340   C     0.86062   0.64339   0.78260   0.00000  Uiso   1.00
C341   C     0.85705   0.63649   0.90880   0.00000  Uiso   1.00
C342   C     0.83925   0.66638   0.97899   0.00000  Uiso   1.00
C343   C     0.91230   0.63815   0.62444   0.00000  Uiso   1.00
C344   C     0.95218   0.62686   0.61770   0.00000  Uiso   1.00
C345   C     0.97790   0.65235   0.55476   0.00000  Uiso   1.00
H346   H     0.84317   0.70776   0.54676   0.00000  Uiso   1.00
H347   H     0.79354   0.67034   0.40333   0.00000  Uiso   1.00
H348   H     0.81851   0.73625   0.75647   0.00000  Uiso   1.00
H349   H     0.91363   0.72662   0.46541   0.00000  Uiso   1.00
H350   H     0.74456   0.61319   0.26823   0.00000  Uiso   1.00
H351   H     0.79721   0.75219   0.01286   0.00000  Uiso   1.00
H352   H     0.99779   0.73189   0.39910   0.00000  Uiso   1.00
H353   H     0.88977   0.58714   0.73089   0.00000  Uiso   1.00
H354   H     0.84270   0.54310   0.59756   0.00000  Uiso   1.00
H355   H     0.86767   0.60902   0.95070   0.00000  Uiso   1.00
H356   H     0.96279   0.59939   0.65964   0.00000  Uiso   1.00
H357   H     0.78446   0.50993   0.42588   0.00000  Uiso   1.00
H358   H     0.83711   0.64893   0.17051   0.00000  Uiso   1.00
H359   H     0.03769   0.62862   0.55675   0.00000  Uiso   1.00
O360   O     0.73269   0.53476   0.25605   0.00000  Uiso   1.00
O361   O     0.80177   0.71713   0.23297   0.00000  Uiso   1.00
O362   O     0.06493   0.69049   0.42773   0.00000  Uiso   1.00
N363   N     0.76042   0.59493   0.32362   0.00000  Uiso   1.00
N364   N     0.80963   0.72489   0.01979   0.00000  Uiso   1.00
N365   N     0.99716   0.70591   0.44601   0.00000  Uiso   1.00
N366   N     0.78189   0.53937   0.40844   0.00000  Uiso   1.00
N367   N     0.83110   0.66932   0.10462   0.00000  Uiso   1.00
N368   N     0.01863   0.65034   0.53083   0.00000  Uiso   1.00
C369   C     0.18012   0.64615   0.91106   0.00000  Uiso   1.00
C370   C     0.14307   0.66665   0.96347   0.00000  Uiso   1.00
C371   C     0.14286   0.69585   0.05477   0.00000  Uiso   1.00
C372   C     0.10586   0.71087   0.09001   0.00000  Uiso   1.00
C373   C     0.05372   0.74480   0.17959   0.00000  Uiso   1.00
C374   C     0.17888   0.65309   0.77159   0.00000  Uiso   1.00
C375   C     0.20879   0.67089   0.70157   0.00000  Uiso   1.00
C376   C     0.20194   0.67449   0.57530   0.00000  Uiso   1.00
C377   C     0.20541   0.68734   0.36697   0.00000  Uiso   1.00
C378   C     0.17365   0.60141   0.92974   0.00000  Uiso   1.00
C379   C     0.19916   0.57575   0.99267   0.00000  Uiso   1.00
C380   C     0.18791   0.53584   0.99953   0.00000  Uiso   1.00
C381   C     0.18325   0.46845   0.03675   0.00000  Uiso   1.00
C382   C     0.11478   0.62090   0.81130   0.00000  Uiso   1.00
C383   C     0.10757   0.65294   0.90927   0.00000  Uiso   1.00
C384   C     0.07056   0.66791   0.94439   0.00000  Uiso   1.00
C385   C     0.07030   0.69713   0.03574   0.00000  Uiso   1.00
C386   C     0.14339   0.63938   0.71740   0.00000  Uiso   1.00
C387   C     0.13649   0.64295   0.59120   0.00000  Uiso   1.00
C388   C     0.16638   0.66075   0.52101   0.00000  Uiso   1.00
C389   C     0.13815   0.58770   0.87556   0.00000  Uiso   1.00
C390   C     0.12686   0.54782   0.88230   0.00000  Uiso   1.00
C391   C     0.15235   0.52210   0.94524   0.00000  Uiso   1.00
H392   H     0.20776   0.65683   0.95324   0.00000  Uiso   1.00
H393   H     0.17034   0.70646   0.09667   0.00000  Uiso   1.00
H394   H     0.23625   0.68149   0.74353   0.00000  Uiso   1.00
H395   H     0.22662   0.58637   0.03459   0.00000  Uiso   1.00
H396   H     0.11319   0.75544   0.23177   0.00000  Uiso   1.00
H397   H     0.25219   0.70279   0.48714   0.00000  Uiso   1.00
H398   H     0.23189   0.50221   0.10090   0.00000  Uiso   1.00
H399   H     0.08714   0.61023   0.76911   0.00000  Uiso   1.00
H400   H     0.04310   0.65730   0.90244   0.00000  Uiso   1.00
H401   H     0.10902   0.63233   0.54930   0.00000  Uiso   1.00
H402   H     0.09939   0.53721   0.84036   0.00000  Uiso   1.00
H403   H     0.00993   0.71554   0.07412   0.00000  Uiso   1.00
H404   H     0.14893   0.66289   0.32949   0.00000  Uiso   1.00
H405   H     0.12862   0.46231   0.94325   0.00000  Uiso   1.00
O406   O     0.03476   0.76731   0.24395   0.00000  Uiso   1.00
O407   O     0.21713   0.69823   0.26703   0.00000  Uiso   1.00
O408   O     0.19049   0.43507   0.07227   0.00000  Uiso   1.00
N409   N     0.09493   0.73958   0.17638   0.00000  Uiso   1.00
N410   N     0.22489   0.69037   0.48021   0.00000  Uiso   1.00
N411   N     0.20591   0.50284   0.05399   0.00000  Uiso   1.00
N412   N     0.03937   0.71811   0.09156   0.00000  Uiso   1.00
N413   N     0.16932   0.66890   0.39538   0.00000  Uiso   1.00
N414   N     0.15034   0.48137   0.96917   0.00000  Uiso   1.00
C415   C     0.68012   0.14615   0.41106   0.00000  Uiso   1.00
C416   C     0.64307   0.16665   0.46347   0.00000  Uiso   1.00
C417   C     0.64286   0.19585   0.55477   0.00000  Uiso   1.00
C418   C     0.60586   0.21087   0.59001   0.00000  Uiso   1.00
C419   C     0.55372   0.24480   0.67959   0.00000  Uiso   1.00
C420   C     0.67888   0.15309   0.27159   0.00000  Uiso   1.00
C421   C     0.70879   0.17089   0.20157   0.00000  Uiso   1.00
C422   C     0.70194   0.17449   0.07530   0.00000  Uiso   1.00
C423   C     0.70541   0.18734   0.86697   0.00000  Uiso   1.00
C424   C     0.67365   0.10141   0.42974   0.00000  Uiso   1.00
C425   C     0.69916   0.07575   0.49267   0.00000  Uiso   1.00
C426   C     0.68791   0.03584   0.49953   0.00000  Uiso   1.00
C427   C     0.68325   0.96845   0.53675   0.00000  Uiso   1.00
C428   C     0.61478   0.12090   0.31130   0.00000  Uiso   1.00
C429   C     0.60757   0.15294   0.40927   0.00000  Uiso   1.00
C430   C     0.57056   0.16791   0.44439   0.00000  Uiso   1.00
C431   C     0.57030   0.19713   0.53574   0.00000  Uiso   1.00
C432   C     0.64339   0.13938   0.21740   0.00000  Uiso   1.00
C433   C     0.63649   0.14295   0.09120   0.00000  Uiso   1.00
C434   C     0.66638   0.16075   0.02101   0.00000  Uiso   1.00
C435   C     0.63815   0.08770   0.37556   0.00000  Uiso   1.00
C436   C     0.62686   0.04782   0.38230   0.00000  Uiso   1.00
C437   C     0.65235   0.02210   0.44524   0.00000  Uiso   1.00
H438   H     0.70776   0.15683   0.45324   0.00000  Uiso   1.00
H439   H     0.67034   0.20646   0.59667   0.00000  Uiso   1.00
H440   H     0.73625   0.18149   0.24353   0.00000  Uiso   1.00
H441   H     0.72662   0.08637   0.53459   0.00000  Uiso   1.00
H442   H     0.61319   0.25544   0.73177   0.00000  Uiso   1.00
H443   H     0.75219   0.20279   0.98714   0.00000  Uiso   1.00
H444   H     0.73189   0.00221   0.60090   0.00000  Uiso   1.00
H445   H     0.58714   0.11023   0.26911   0.00000  Uiso   1.00
H446   H     0.54310   0.15730   0.40244   0.00000  Uiso   1.00
H447   H     0.60902   0.13233   0.04930   0.00000  Uiso   1.00
H448   H     0.59939   0.03721   0.34036   0.00000  Uiso   1.00
H449   H     0.50993   0.21554   0.57412   0.00000  Uiso   1.00
H450   H     0.64893   0.16289   0.82949   0.00000  Uiso   1.00
H451   H     0.62862   0.96231   0.44325   0.00000  Uiso   1.00
O452   O     0.53476   0.26731   0.74395   0.00000  Uiso   1.00
O453   O     0.71713   0.19823   0.76703   0.00000  Uiso   1.00
O454   O     0.69049   0.93507   0.57227   0.00000  Uiso   1.00
N455   N     0.59493   0.23958   0.67638   0.00000  Uiso   1.00
N456   N     0.72489   0.19037   0.98021   0.00000  Uiso   1.00
N457   N     0.70591   0.00284   0.55399   0.00000  Uiso   1.00
N458   N     0.53937   0.21811   0.59156   0.00000  Uiso   1.00
N459   N     0.66932   0.16890   0.89538   0.00000  Uiso   1.00
N460   N     0.65034   0.98137   0.46917   0.00000  Uiso   1.00
C461   C     0.31988   0.85385   0.41106   0.00000  Uiso   1.00
C462   C     0.35693   0.83335   0.46347   0.00000  Uiso   1.00
C463   C     0.35714   0.80415   0.55477   0.00000  Uiso   1.00
C464   C     0.39414   0.78913   0.59001   0.00000  Uiso   1.00
C465   C     0.44628   0.75520   0.67959   0.00000  Uiso   1.00
C466   C     0.32112   0.84691   0.27159   0.00000  Uiso   1.00
C467   C     0.29121   0.82911   0.20157   0.00000  Uiso   1.00
C468   C     0.29806   0.82551   0.07530   0.00000  Uiso   1.00
C469   C     0.29459   0.81266   0.86697   0.00000  Uiso   1.00
C470   C     0.32635   0.89859   0.42974   0.00000  Uiso   1.00
C471   C     0.30084   0.92425   0.49267   0.00000  Uiso   1.00
C472   C     0.31209   0.96416   0.49953   0.00000  Uiso   1.00
C473   C     0.31675   0.03155   0.53675   0.00000  Uiso   1.00
C474   C     0.38522   0.87910   0.31130   0.00000  Uiso   1.00
C475   C     0.39243   0.84706   0.40927   0.00000  Uiso   1.00
C476   C     0.42944   0.83209   0.44439   0.00000  Uiso   1.00
C477   C     0.42970   0.80287   0.53574   0.00000  Uiso   1.00
C478   C     0.35661   0.86062   0.21740   0.00000  Uiso   1.00
C479   C     0.36351   0.85705   0.09120   0.00000  Uiso   1.00
C480   C     0.33362   0.83925   0.02101   0.00000  Uiso   1.00
C481   C     0.36185   0.91230   0.37556   0.00000  Uiso   1.00
C482   C     0.37314   0.95218   0.38230   0.00000  Uiso   1.00
C483   C     0.34765   0.97790   0.44524   0.00000  Uiso   1.00
H484   H     0.29224   0.84317   0.45324   0.00000  Uiso   1.00
H485   H     0.32966   0.79354   0.59667   0.00000  Uiso   1.00
H486   H     0.26375   0.81851   0.24353   0.00000  Uiso   1.00
H487   H     0.27338   0.91363   0.53459   0.00000  Uiso   1.00
H488   H     0.38681   0.74456   0.73177   0.00000  Uiso   1.00
H489   H     0.24781   0.79721   0.98714   0.00000  Uiso   1.00
H490   H     0.26811   0.99779   0.60090   0.00000  Uiso   1.00
H491   H     0.41286   0.88977   0.26911   0.00000  Uiso   1.00
H492   H     0.45690   0.84270   0.40244   0.00000  Uiso   1.00
H493   H     0.39098   0.86767   0.04930   0.00000  Uiso   1.00
H494   H     0.40061   0.96279   0.34036   0.00000  Uiso   1.00
H495   H     0.49007   0.78446   0.57412   0.00000  Uiso   1.00
H496   H     0.35107   0.83711   0.82949   0.00000  Uiso   1.00
H497   H     0.37138   0.03769   0.44325   0.00000  Uiso   1.00
O498   O     0.46524   0.73269   0.74395   0.00000  Uiso   1.00
O499   O     0.28287   0.80177   0.76703   0.00000  Uiso   1.00
O500   O     0.30951   0.06493   0.57227   0.00000  Uiso   1.00
N501   N     0.40507   0.76042   0.67638   0.00000  Uiso   1.00
N502   N     0.27511   0.80963   0.98021   0.00000  Uiso   1.00
N503   N     0.29409   0.99716   0.55399   0.00000  Uiso   1.00
N504   N     0.46063   0.78189   0.59156   0.00000  Uiso   1.00
N505   N     0.33068   0.83110   0.89538   0.00000  Uiso   1.00
N506   N     0.34966   0.01863   0.46917   0.00000  Uiso   1.00
C507   C     0.81988   0.35385   0.91106   0.00000  Uiso   1.00
C508   C     0.85693   0.33335   0.96347   0.00000  Uiso   1.00
C509   C     0.85714   0.30415   0.05477   0.00000  Uiso   1.00
C510   C     0.89414   0.28913   0.09001   0.00000  Uiso   1.00
C511   C     0.94628   0.25520   0.17959   0.00000  Uiso   1.00
C512   C     0.82112   0.34691   0.77159   0.00000  Uiso   1.00
C513   C     0.79121   0.32911   0.70157   0.00000  Uiso   1.00
C514   C     0.79806   0.32551   0.57530   0.00000  Uiso   1.00
C515   C     0.79459   0.31266   0.36697   0.00000  Uiso   1.00
C516   C     0.82635   0.39859   0.92974   0.00000  Uiso   1.00
C517   C     0.80084   0.42425   0.99267   0.00000  Uiso   1.00
C518   C     0.81209   0.46416   0.99953   0.00000  Uiso   1.00
C519   C     0.81675   0.53155   0.03675   0.00000  Uiso   1.00
C520   C     0.88522   0.37910   0.81130   0.00000  Uiso   1.00
C521   C     0.89243   0.34706   0.90927   0.00000  Uiso   1.00
C522   C     0.92944   0.33209   0.94439   0.00000  Uiso   1.00
C523   C     0.92970   0.30287   0.03574   0.00000  Uiso   1.00
C524   C     0.85661   0.36062   0.71740   0.00000  Uiso   1.00
C525   C     0.86351   0.35705   0.59120   0.00000  Uiso   1.00
C526   C     0.83362   0.33925   0.52101   0.00000  Uiso   1.00
C527   C     0.86185   0.41230   0.87556   0.00000  Uiso   1.00
C528   C     0.87314   0.45218   0.88230   0.00000  Uiso   1.00
C529   C     0.84765   0.47790   0.94524   0.00000  Uiso   1.00
H530   H     0.79224   0.34317   0.95324   0.00000  Uiso   1.00
H531   H     0.82966   0.29354   0.09667   0.00000  Uiso   1.00
H532   H     0.76375   0.31851   0.74353   0.00000  Uiso   1.00
H533   H     0.77338   0.41363   0.03459   0.00000  Uiso   1.00
H534   H     0.88681   0.24456   0.23177   0.00000  Uiso   1.00
H535   H     0.74781   0.29721   0.48714   0.00000  Uiso   1.00
H536   H     0.76811   0.49779   0.10090   0.00000  Uiso   1.00
H537   H     0.91286   0.38977   0.76911   0.00000  Uiso   1.00
H538   H     0.95690   0.34270   0.90244   0.00000  Uiso   1.00
H539   H     0.89098   0.36767   0.54930   0.00000  Uiso   1.00
H540   H     0.90061   0.46279   0.84036   0.00000  Uiso   1.00
H541   H     0.99007   0.28446   0.07412   0.00000  Uiso   1.00
H542   H     0.85107   0.33711   0.32949   0.00000  Uiso   1.00
H543   H     0.87138   0.53769   0.94325   0.00000  Uiso   1.00
O544   O     0.96524   0.23269   0.24395   0.00000  Uiso   1.00
O545   O     0.78287   0.30177   0.26703   0.00000  Uiso   1.00
O546   O     0.80951   0.56493   0.07227   0.00000  Uiso   1.00
N547   N     0.90507   0.26042   0.17638   0.00000  Uiso   1.00
N548   N     0.77511   0.30963   0.48021   0.00000  Uiso   1.00
N549   N     0.79409   0.49716   0.05399   0.00000  Uiso   1.00
N550   N     0.96063   0.28189   0.09156   0.00000  Uiso   1.00
N551   N     0.83068   0.33110   0.39538   0.00000  Uiso   1.00
N552   N     0.84966   0.51863   0.96917   0.00000  Uiso   1.00
C553   C     0.85385   0.18012   0.66106   0.00000  Uiso   1.00
C554   C     0.83335   0.14307   0.71347   0.00000  Uiso   1.00
C555   C     0.80415   0.14286   0.80477   0.00000  Uiso   1.00
C556   C     0.78913   0.10586   0.84001   0.00000  Uiso   1.00
C557   C     0.75520   0.05372   0.92959   0.00000  Uiso   1.00
C558   C     0.84691   0.17888   0.52159   0.00000  Uiso   1.00
C559   C     0.82911   0.20879   0.45157   0.00000  Uiso   1.00
C560   C     0.82551   0.20194   0.32530   0.00000  Uiso   1.00
C561   C     0.81266   0.20541   0.11697   0.00000  Uiso   1.00
C562   C     0.89859   0.17365   0.67974   0.00000  Uiso   1.00
C563   C     0.92425   0.19916   0.74267   0.00000  Uiso   1.00
C564   C     0.96416   0.18791   0.74953   0.00000  Uiso   1.00
C565   C     0.03155   0.18325   0.78675   0.00000  Uiso   1.00
C566   C     0.87910   0.11478   0.56130   0.00000  Uiso   1.00
C567   C     0.84706   0.10757   0.65927   0.00000  Uiso   1.00
C568   C     0.83209   0.07056   0.69439   0.00000  Uiso   1.00
C569   C     0.80287   0.07030   0.78574   0.00000  Uiso   1.00
C570   C     0.86062   0.14339   0.46740   0.00000  Uiso   1.00
C571   C     0.85705   0.13649   0.34120   0.00000  Uiso   1.00
C572   C     0.83925   0.16638   0.27101   0.00000  Uiso   1.00
C573   C     0.91230   0.13815   0.62556   0.00000  Uiso   1.00
C574   C     0.95218   0.12686   0.63230   0.00000  Uiso   1.00
C575   C     0.97790   0.15235   0.69524   0.00000  Uiso   1.00
H576   H     0.84317   0.20776   0.70324   0.00000  Uiso   1.00
H577   H     0.79354   0.17034   0.84667   0.00000  Uiso   1.00
H578   H     0.81851   0.23625   0.49353   0.00000  Uiso   1.00
H579   H     0.91363   0.22662   0.78459   0.00000  Uiso   1.00
H580   H     0.74456   0.11319   0.98177   0.00000  Uiso   1.00
H581   H     0.79721   0.25219   0.23714   0.00000  Uiso   1.00
H582   H     0.99779   0.23189   0.85090   0.00000  Uiso   1.00
H583   H     0.88977   0.08714   0.51911   0.00000  Uiso   1.00
H584   H     0.84270   0.04310   0.65244   0.00000  Uiso   1.00
H585   H     0.86767   0.10902   0.29930   0.00000  Uiso   1.00
H586   H     0.96279   0.09939   0.59036   0.00000  Uiso   1.00
H587   H     0.78446   0.00993   0.82412   0.00000  Uiso   1.00
H588   H     0.83711   0.14893   0.07949   0.00000  Uiso   1.00
H589   H     0.03769   0.12862   0.69325   0.00000  Uiso   1.00
O590   O     0.73269   0.03476   0.99395   0.00000  Uiso   1.00
O591   O     0.80177   0.21713   0.01703   0.00000  Uiso   1.00
O592   O     0.06493   0.19049   0.82227   0.00000  Uiso   1.00
N593   N     0.76042   0.09493   0.92638   0.00000  Uiso   1.00
N594   N     0.80963   0.22489   0.23021   0.00000  Uiso   1.00
N595   N     0.99716   0.20591   0.80399   0.00000  Uiso   1.00
N596   N     0.78189   0.03937   0.84156   0.00000  Uiso   1.00
N597   N     0.83110   0.16932   0.14538   0.00000  Uiso   1.00
N598   N     0.01863   0.15034   0.71917   0.00000  Uiso   1.00
C599   C     0.35385   0.68012   0.16106   0.00000  Uiso   1.00
C600   C     0.33335   0.64307   0.21347   0.00000  Uiso   1.00
C601   C     0.30415   0.64286   0.30477   0.00000  Uiso   1.00
C602   C     0.28913   0.60586   0.34001   0.00000  Uiso   1.00
C603   C     0.25520   0.55372   0.42959   0.00000  Uiso   1.00
C604   C     0.34691   0.67888   0.02159   0.00000  Uiso   1.00
C605   C     0.32911   0.70879   0.95157   0.00000  Uiso   1.00
C606   C     0.32551   0.70194   0.82530   0.00000  Uiso   1.00
C607   C     0.31266   0.70541   0.61697   0.00000  Uiso   1.00
C608   C     0.39859   0.67365   0.17974   0.00000  Uiso   1.00
C609   C     0.42425   0.69916   0.24267   0.00000  Uiso   1.00
C610   C     0.46416   0.68791   0.24953   0.00000  Uiso   1.00
C611   C     0.53155   0.68325   0.28675   0.00000  Uiso   1.00
C612   C     0.37910   0.61478   0.06130   0.00000  Uiso   1.00
C613   C     0.34706   0.60757   0.15927   0.00000  Uiso   1.00
C614   C     0.33209   0.57056   0.19439   0.00000  Uiso   1.00
C615   C     0.30287   0.57030   0.28574   0.00000  Uiso   1.00
C616   C     0.36062   0.64339   0.96740   0.00000  Uiso   1.00
C617   C     0.35705   0.63649   0.84120   0.00000  Uiso   1.00
C618   C     0.33925   0.66638   0.77101   0.00000  Uiso   1.00
C619   C     0.41230   0.63815   0.12556   0.00000  Uiso   1.00
C620   C     0.45218   0.62686   0.13230   0.00000  Uiso   1.00
C621   C     0.47790   0.65235   0.19524   0.00000  Uiso   1.00
H622   H     0.34317   0.70776   0.20324   0.00000  Uiso   1.00
H623   H     0.29354   0.67034   0.34667   0.00000  Uiso   1.00
H624   H     0.31851   0.73625   0.99353   0.00000  Uiso   1.00
H625   H     0.41363   0.72662   0.28459   0.00000  Uiso   1.00
H626   H     0.24456   0.61319   0.48177   0.00000  Uiso   1.00
H627   H     0.29721   0.75219   0.73714   0.00000  Uiso   1.00
H628   H     0.49779   0.73189   0.35090   0.00000  Uiso   1.00
H629   H     0.38977   0.58714   0.01911   0.00000  Uiso   1.00
H630   H     0.34270   0.54310   0.15244   0.00000  Uiso   1.00
H631   H     0.36767   0.60902   0.79930   0.00000  Uiso   1.00
H632   H     0.46279   0.59939   0.09036   0.00000  Uiso   1.00
H633   H     0.28446   0.50993   0.32412   0.00000  Uiso   1.00
H634   H     0.33711   0.64893   0.57949   0.00000  Uiso   1.00
H635   H     0.53769   0.62862   0.19325   0.00000  Uiso   1.00
O636   O     0.23269   0.53476   0.49395   0.00000  Uiso   1.00
O637   O     0.30177   0.71713   0.51703   0.00000  Uiso   1.00
O638   O     0.56493   0.69049   0.32227   0.00000  Uiso   1.00
N639   N     0.26042   0.59493   0.42638   0.00000  Uiso   1.00
N640   N     0.30963   0.72489   0.73021   0.00000  Uiso   1.00
N641   N     0.49716   0.70591   0.30399   0.00000  Uiso   1.00
N642   N     0.28189   0.53937   0.34156   0.00000  Uiso   1.00
N643   N     0.33110   0.66932   0.64538   0.00000  Uiso   1.00
N644   N     0.51863   0.65034   0.21917   0.00000  Uiso   1.00
C645   C     0.64615   0.31988   0.16106   0.00000  Uiso   1.00
C646   C     0.66665   0.35693   0.21347   0.00000  Uiso   1.00
C647   C     0.69585   0.35714   0.30477   0.00000  Uiso   1.00
C648   C     0.71087   0.39414   0.34001   0.00000  Uiso   1.00
C649   C     0.74480   0.44628   0.42959   0.00000  Uiso   1.00
C650   C     0.65309   0.32112   0.02159   0.00000  Uiso   1.00
C651   C     0.67089   0.29121   0.95157   0.00000  Uiso   1.00
C652   C     0.67449   0.29806   0.82530   0.00000  Uiso   1.00
C653   C     0.68734   0.29459   0.61697   0.00000  Uiso   1.00
C654   C     0.60141   0.32635   0.17974   0.00000  Uiso   1.00
C655   C     0.57575   0.30084   0.24267   0.00000  Uiso   1.00
C656   C     0.53584   0.31209   0.24953   0.00000  Uiso   1.00
C657   C     0.46845   0.31675   0.28675   0.00000  Uiso   1.00
C658   C     0.62090   0.38522   0.06130   0.00000  Uiso   1.00
C659   C     0.65294   0.39243   0.15927   0.00000  Uiso   1.00
C660   C     0.66791   0.42944   0.19439   0.00000  Uiso   1.00
C661   C     0.69713   0.42970   0.28574   0.00000  Uiso   1.00
C662   C     0.63938   0.35661   0.96740   0.00000  Uiso   1.00
C663   C     0.64295   0.36351   0.84120   0.00000  Uiso   1.00
C664   C     0.66075   0.33362   0.77101   0.00000  Uiso   1.00
C665   C     0.58770   0.36185   0.12556   0.00000  Uiso   1.00
C666   C     0.54782   0.37314   0.13230   0.00000  Uiso   1.00
C667   C     0.52210   0.34765   0.19524   0.00000  Uiso   1.00
H668   H     0.65683   0.29224   0.20324   0.00000  Uiso   1.00
H669   H     0.70646   0.32966   0.34667   0.00000  Uiso   1.00
H670   H     0.68149   0.26375   0.99353   0.00000  Uiso   1.00
H671   H     0.58637   0.27338   0.28459   0.00000  Uiso   1.00
H672   H     0.75544   0.38681   0.48177   0.00000  Uiso   1.00
H673   H     0.70279   0.24781   0.73714   0.00000  Uiso   1.00
H674   H     0.50221   0.26811   0.35090   0.00000  Uiso   1.00
H675   H     0.61023   0.41286   0.01911   0.00000  Uiso   1.00
H676   H     0.65730   0.45690   0.15244   0.00000  Uiso   1.00
H677   H     0.63233   0.39098   0.79930   0.00000  Uiso   1.00
H678   H     0.53721   0.40061   0.09036   0.00000  Uiso   1.00
H679   H     0.71554   0.49007   0.32412   0.00000  Uiso   1.00
H680   H     0.66289   0.35107   0.57949   0.00000  Uiso   1.00
H681   H     0.46231   0.37138   0.19325   0.00000  Uiso   1.00
O682   O     0.76731   0.46524   0.49395   0.00000  Uiso   1.00
O683   O     0.69823   0.28287   0.51703   0.00000  Uiso   1.00
O684   O     0.43507   0.30951   0.32227   0.00000  Uiso   1.00
N685   N     0.73958   0.40507   0.42638   0.00000  Uiso   1.00
N686   N     0.69037   0.27511   0.73021   0.00000  Uiso   1.00
N687   N     0.50284   0.29409   0.30399   0.00000  Uiso   1.00
N688   N     0.71811   0.46063   0.34156   0.00000  Uiso   1.00
N689   N     0.66890   0.33068   0.64538   0.00000  Uiso   1.00
N690   N     0.48137   0.34966   0.21917   0.00000  Uiso   1.00
C691   C     0.14615   0.81988   0.66106   0.00000  Uiso   1.00
C692   C     0.16665   0.85693   0.71347   0.00000  Uiso   1.00
C693   C     0.19585   0.85714   0.80477   0.00000  Uiso   1.00
C694   C     0.21087   0.89414   0.84001   0.00000  Uiso   1.00
C695   C     0.24480   0.94628   0.92959   0.00000  Uiso   1.00
C696   C     0.15309   0.82112   0.52159   0.00000  Uiso   1.00
C697   C     0.17089   0.79121   0.45157   0.00000  Uiso   1.00
C698   C     0.17449   0.79806   0.32530   0.00000  Uiso   1.00
C699   C     0.18734   0.79459   0.11697   0.00000  Uiso   1.00
C700   C     0.10141   0.82635   0.67974   0.00000  Uiso   1.00
C701   C     0.07575   0.80084   0.74267   0.00000  Uiso   1.00
C702   C     0.03584   0.81209   0.74953   0.00000  Uiso   1.00
C703   C     0.96845   0.81675   0.78675   0.00000  Uiso   1.00
C704   C     0.12090   0.88522   0.56130   0.00000  Uiso   1.00
C705   C     0.15294   0.89243   0.65927   0.00000  Uiso   1.00
C706   C     0.16791   0.92944   0.69439   0.00000  Uiso   1.00
C707   C     0.19713   0.92970   0.78574   0.00000  Uiso   1.00
C708   C     0.13938   0.85661   0.46740   0.00000  Uiso   1.00
C709   C     0.14295   0.86351   0.34120   0.00000  Uiso   1.00
C710   C     0.16075   0.83362   0.27101   0.00000  Uiso   1.00
C711   C     0.08770   0.86185   0.62556   0.00000  Uiso   1.00
C712   C     0.04782   0.87314   0.63230   0.00000  Uiso   1.00
C713   C     0.02210   0.84765   0.69524   0.00000  Uiso   1.00
H714   H     0.15683   0.79224   0.70324   0.00000  Uiso   1.00
H715   H     0.20646   0.82966   0.84667   0.00000  Uiso   1.00
H716   H     0.18149   0.76375   0.49353   0.00000  Uiso   1.00
H717   H     0.08637   0.77338   0.78459   0.00000  Uiso   1.00
H718   H     0.25544   0.88681   0.98177   0.00000  Uiso   1.00
H719   H     0.20279   0.74781   0.23714   0.00000  Uiso   1.00
H720   H     0.00221   0.76811   0.85090   0.00000  Uiso   1.00
H721   H     0.11023   0.91286   0.51911   0.00000  Uiso   1.00
H722   H     0.15730   0.95690   0.65244   0.00000  Uiso   1.00
H723   H     0.13233   0.89098   0.29930   0.00000  Uiso   1.00
H724   H     0.03721   0.90061   0.59036   0.00000  Uiso   1.00
H725   H     0.21554   0.99007   0.82412   0.00000  Uiso   1.00
H726   H     0.16289   0.85107   0.07949   0.00000  Uiso   1.00
H727   H     0.96231   0.87138   0.69325   0.00000  Uiso   1.00
O728   O     0.26731   0.96524   0.99395   0.00000  Uiso   1.00
O729   O     0.19823   0.78287   0.01703   0.00000  Uiso   1.00
O730   O     0.93507   0.80951   0.82227   0.00000  Uiso   1.00
N731   N     0.23958   0.90507   0.92638   0.00000  Uiso   1.00
N732   N     0.19037   0.77511   0.23021   0.00000  Uiso   1.00
N733   N     0.00284   0.79409   0.80399   0.00000  Uiso   1.00
N734   N     0.21811   0.96063   0.84156   0.00000  Uiso   1.00
N735   N     0.16890   0.83068   0.14538   0.00000  Uiso   1.00
N736   N     0.98137   0.84966   0.71917   0.00000  Uiso   1.00
