data_job_04690
_audit_creation_date              2018-12-19
_audit_creation_method            'Materials Studio'
_symmetry_space_group_name_H-M    'P1'
_symmetry_Int_Tables_number       1
_symmetry_cell_setting            triclinic
loop_
_symmetry_equiv_pos_as_xyz
  x,y,z
_cell_length_a                    19.0920
_cell_length_b                    12.4354
_cell_length_c                    44.5895
_cell_angle_alpha                 90.0000
_cell_angle_beta                  89.9525
_cell_angle_gamma                 90.0000
loop_
_atom_site_label
_atom_site_type_symbol
_atom_site_fract_x
_atom_site_fract_y
_atom_site_fract_z
_atom_site_U_iso_or_equiv
_atom_site_adp_type
_atom_site_occupancy
C1     C     0.79937   0.41777   0.41667   0.00000  Uiso   1.00
C2     C     0.75851   0.42333   0.44603   0.00000  Uiso   1.00
C3     C     0.68774   0.40108   0.44950   0.00000  Uiso   1.00
C4     C     0.66016   0.41084   0.47819   0.00000  Uiso   1.00
C5     C     0.59035   0.41483   0.52007   0.00000  Uiso   1.00
C6     C     0.83229   0.52846   0.41242   0.00000  Uiso   1.00
C7     C     0.82355   0.59458   0.38763   0.00000  Uiso   1.00
C8     C     0.85809   0.69283   0.38803   0.00000  Uiso   1.00
C9     C     0.90286   0.86000   0.37772   0.00000  Uiso   1.00
C10    C     0.86000   0.34051   0.42225   0.00000  Uiso   1.00
C11    C     0.87458   0.24862   0.40573   0.00000  Uiso   1.00
C12    C     0.93247   0.18864   0.41440   0.00000  Uiso   1.00
C13    C     0.02027   0.06400   0.41936   0.00000  Uiso   1.00
C14    C     0.87625   0.47467   0.46145   0.00000  Uiso   1.00
C15    C     0.80026   0.45425   0.47035   0.00000  Uiso   1.00
C16    C     0.77279   0.46403   0.49905   0.00000  Uiso   1.00
C17    C     0.70199   0.44179   0.50256   0.00000  Uiso   1.00
C18    C     0.87404   0.55937   0.43674   0.00000  Uiso   1.00
C19    C     0.90860   0.65754   0.43718   0.00000  Uiso   1.00
C20    C     0.89992   0.72379   0.41239   0.00000  Uiso   1.00
C21    C     0.90176   0.37142   0.44658   0.00000  Uiso   1.00
C22    C     0.95963   0.31158   0.45528   0.00000  Uiso   1.00
C23    C     0.97430   0.21961   0.43877   0.00000  Uiso   1.00
H24    H     0.76687   0.39371   0.39773   0.00000  Uiso   1.00
H25    H     0.65544   0.37717   0.43066   0.00000  Uiso   1.00
H26    H     0.79124   0.57064   0.36880   0.00000  Uiso   1.00
H27    H     0.84226   0.22473   0.38690   0.00000  Uiso   1.00
H28    H     0.55031   0.37250   0.47790   0.00000  Uiso   1.00
H29    H     0.83668   0.78042   0.34746   0.00000  Uiso   1.00
H30    H     0.94426   0.05100   0.38563   0.00000  Uiso   1.00
H31    H     0.90876   0.49874   0.48039   0.00000  Uiso   1.00
H32    H     0.80511   0.48796   0.51787   0.00000  Uiso   1.00
H33    H     0.94091   0.68143   0.45601   0.00000  Uiso   1.00
H34    H     0.99193   0.33552   0.47410   0.00000  Uiso   1.00
H35    H     0.67179   0.46242   0.54868   0.00000  Uiso   1.00
H36    H     0.95816   0.87034   0.41824   0.00000  Uiso   1.00
H37    H     0.06574   0.14093   0.45640   0.00000  Uiso   1.00
O38    O     0.54030   0.40851   0.53645   0.00000  Uiso   1.00
O39    O     0.91602   0.94367   0.36531   0.00000  Uiso   1.00
O40    O     0.05716   0.98670   0.41538   0.00000  Uiso   1.00
N41    N     0.59313   0.39512   0.48942   0.00000  Uiso   1.00
N42    N     0.86085   0.77651   0.36747   0.00000  Uiso   1.00
N43    N     0.96145   0.09458   0.40314   0.00000  Uiso   1.00
N44    N     0.65849   0.44351   0.52751   0.00000  Uiso   1.00
N45    N     0.92622   0.82490   0.40555   0.00000  Uiso   1.00
N46    N     0.02681   0.14297   0.44123   0.00000  Uiso   1.00
C47    C     0.02178   0.61147   0.83323   0.00000  Uiso   1.00
C48    C     0.98064   0.61630   0.80396   0.00000  Uiso   1.00
C49    C     0.90992   0.59339   0.80067   0.00000  Uiso   1.00
C50    C     0.88206   0.60253   0.77204   0.00000  Uiso   1.00
C51    C     0.81187   0.60537   0.73031   0.00000  Uiso   1.00
C52    C     0.05432   0.72250   0.83729   0.00000  Uiso   1.00
C53    C     0.04557   0.78887   0.86203   0.00000  Uiso   1.00
C54    C     0.07974   0.88741   0.86145   0.00000  Uiso   1.00
C55    C     0.12399   0.05510   0.87148   0.00000  Uiso   1.00
C56    C     0.08264   0.53467   0.82758   0.00000  Uiso   1.00
C57    C     0.09770   0.44312   0.84417   0.00000  Uiso   1.00
C58    C     0.15573   0.38352   0.83542   0.00000  Uiso   1.00
C59    C     0.24394   0.25957   0.83038   0.00000  Uiso   1.00
C60    C     0.09805   0.66844   0.78820   0.00000  Uiso   1.00
C61    C     0.02207   0.64724   0.77950   0.00000  Uiso   1.00
C62    C     0.99431   0.65642   0.75086   0.00000  Uiso   1.00
C63    C     0.92356   0.63352   0.74754   0.00000  Uiso   1.00
C64    C     0.09575   0.75345   0.81283   0.00000  Uiso   1.00
C65    C     0.12995   0.85190   0.81222   0.00000  Uiso   1.00
C66    C     0.12124   0.91841   0.83695   0.00000  Uiso   1.00
C67    C     0.12407   0.56561   0.80313   0.00000  Uiso   1.00
C68    C     0.18209   0.50615   0.79435   0.00000  Uiso   1.00
C69    C     0.19723   0.41453   0.81092   0.00000  Uiso   1.00
H70    H     0.98953   0.58739   0.85226   0.00000  Uiso   1.00
H71    H     0.87788   0.56945   0.81961   0.00000  Uiso   1.00
H72    H     0.01351   0.76490   0.88095   0.00000  Uiso   1.00
H73    H     0.06563   0.41920   0.86309   0.00000  Uiso   1.00
H74    H     0.77235   0.56325   0.77261   0.00000  Uiso   1.00
H75    H     0.05836   0.97535   0.90197   0.00000  Uiso   1.00
H76    H     0.16828   0.24637   0.86431   0.00000  Uiso   1.00
H77    H     0.13031   0.69253   0.76916   0.00000  Uiso   1.00
H78    H     0.02638   0.68036   0.73194   0.00000  Uiso   1.00
H79    H     0.16201   0.87582   0.79329   0.00000  Uiso   1.00
H80    H     0.21413   0.53012   0.77543   0.00000  Uiso   1.00
H81    H     0.89288   0.65328   0.70146   0.00000  Uiso   1.00
H82    H     0.17889   0.06538   0.83082   0.00000  Uiso   1.00
H83    H     0.28881   0.33640   0.79316   0.00000  Uiso   1.00
O84    O     0.76171   0.59840   0.71405   0.00000  Uiso   1.00
O85    O     0.13694   0.13905   0.88377   0.00000  Uiso   1.00
O86    O     0.28115   0.18265   0.83435   0.00000  Uiso   1.00
N87    N     0.81499   0.58609   0.76098   0.00000  Uiso   1.00
N88    N     0.08237   0.97139   0.88191   0.00000  Uiso   1.00
N89    N     0.18515   0.28987   0.84671   0.00000  Uiso   1.00
N90    N     0.87984   0.63453   0.72269   0.00000  Uiso   1.00
N91    N     0.14723   0.01983   0.84363   0.00000  Uiso   1.00
N92    N     0.25000   0.33831   0.80842   0.00000  Uiso   1.00
C93    C     0.41925   0.60928   0.66651   0.00000  Uiso   1.00
C94    C     0.46037   0.61676   0.69574   0.00000  Uiso   1.00
C95    C     0.53140   0.59634   0.69907   0.00000  Uiso   1.00
C96    C     0.55919   0.60767   0.72766   0.00000  Uiso   1.00
C97    C     0.62940   0.61467   0.76934   0.00000  Uiso   1.00
C98    C     0.38515   0.71902   0.66209   0.00000  Uiso   1.00
C99    C     0.39293   0.78456   0.63711   0.00000  Uiso   1.00
C100   C     0.35738   0.88197   0.63737   0.00000  Uiso   1.00
C101   C     0.31078   0.04770   0.62678   0.00000  Uiso   1.00
C102   C     0.35949   0.53074   0.67245   0.00000  Uiso   1.00
C103   C     0.34568   0.43799   0.65619   0.00000  Uiso   1.00
C104   C     0.28852   0.37689   0.66517   0.00000  Uiso   1.00
C105   C     0.20207   0.25028   0.67068   0.00000  Uiso   1.00
C106   C     0.34229   0.66571   0.71137   0.00000  Uiso   1.00
C107   C     0.41857   0.64742   0.72011   0.00000  Uiso   1.00
C108   C     0.44625   0.65878   0.74870   0.00000  Uiso   1.00
C109   C     0.51731   0.63837   0.75207   0.00000  Uiso   1.00
C110   C     0.34335   0.74968   0.68645   0.00000  Uiso   1.00
C111   C     0.30778   0.84700   0.68674   0.00000  Uiso   1.00
C112   C     0.31550   0.91268   0.66178   0.00000  Uiso   1.00
C113   C     0.31769   0.56139   0.69682   0.00000  Uiso   1.00
C114   C     0.26053   0.50043   0.70582   0.00000  Uiso   1.00
C115   C     0.24664   0.40760   0.68958   0.00000  Uiso   1.00
H116   H     0.45179   0.58542   0.64754   0.00000  Uiso   1.00
H117   H     0.56373   0.57263   0.68021   0.00000  Uiso   1.00
H118   H     0.42527   0.76082   0.61826   0.00000  Uiso   1.00
H119   H     0.37804   0.41429   0.63734   0.00000  Uiso   1.00
H120   H     0.66941   0.57200   0.72717   0.00000  Uiso   1.00
H121   H     0.37745   0.96879   0.59654   0.00000  Uiso   1.00
H122   H     0.27783   0.23808   0.63676   0.00000  Uiso   1.00
H123   H     0.30974   0.68958   0.73034   0.00000  Uiso   1.00
H124   H     0.41389   0.68250   0.76755   0.00000  Uiso   1.00
H125   H     0.27543   0.87069   0.70560   0.00000  Uiso   1.00
H126   H     0.22819   0.52417   0.72468   0.00000  Uiso   1.00
H127   H     0.54779   0.66118   0.79806   0.00000  Uiso   1.00
H128   H     0.25582   0.05797   0.66743   0.00000  Uiso   1.00
H129   H     0.15622   0.32726   0.70766   0.00000  Uiso   1.00
O130   O     0.67968   0.61009   0.78559   0.00000  Uiso   1.00
O131   O     0.29662   0.13065   0.61421   0.00000  Uiso   1.00
O132   O     0.16594   0.17198   0.66699   0.00000  Uiso   1.00
N133   N     0.62649   0.59394   0.73875   0.00000  Uiso   1.00
N134   N     0.35353   0.96492   0.61662   0.00000  Uiso   1.00
N135   N     0.26039   0.28179   0.65422   0.00000  Uiso   1.00
N136   N     0.56105   0.64193   0.77689   0.00000  Uiso   1.00
N137   N     0.28809   0.01291   0.65476   0.00000  Uiso   1.00
N138   N     0.19495   0.32977   0.69237   0.00000  Uiso   1.00
C139   C     0.80385   0.80335   0.91656   0.00000  Uiso   1.00
C140   C     0.76224   0.81022   0.94571   0.00000  Uiso   1.00
C141   C     0.69122   0.78927   0.94886   0.00000  Uiso   1.00
C142   C     0.66294   0.80008   0.97739   0.00000  Uiso   1.00
C143   C     0.59204   0.80613   0.01892   0.00000  Uiso   1.00
C144   C     0.83770   0.91338   0.91231   0.00000  Uiso   1.00
C145   C     0.83013   0.97915   0.88737   0.00000  Uiso   1.00
C146   C     0.86538   0.07679   0.88779   0.00000  Uiso   1.00
C147   C     0.91166   0.24296   0.87745   0.00000  Uiso   1.00
C148   C     0.86375   0.72516   0.92257   0.00000  Uiso   1.00
C149   C     0.87809   0.63269   0.90625   0.00000  Uiso   1.00
C150   C     0.93529   0.57188   0.91531   0.00000  Uiso   1.00
C151   C     0.02202   0.44582   0.92090   0.00000  Uiso   1.00
C152   C     0.87993   0.85982   0.96164   0.00000  Uiso   1.00
C153   C     0.80357   0.84089   0.97019   0.00000  Uiso   1.00
C154   C     0.77539   0.85174   0.99873   0.00000  Uiso   1.00
C155   C     0.70434   0.83080   0.00192   0.00000  Uiso   1.00
C156   C     0.87902   0.94405   0.93679   0.00000  Uiso   1.00
C157   C     0.91429   0.04162   0.93725   0.00000  Uiso   1.00
C158   C     0.90677   0.10752   0.91232   0.00000  Uiso   1.00
C159   C     0.90507   0.75583   0.94705   0.00000  Uiso   1.00
C160   C     0.96226   0.69516   0.95613   0.00000  Uiso   1.00
C161   C     0.97668   0.60261   0.93984   0.00000  Uiso   1.00
H162   H     0.77169   0.77948   0.89750   0.00000  Uiso   1.00
H163   H     0.65926   0.76554   0.92990   0.00000  Uiso   1.00
H164   H     0.79815   0.95539   0.86843   0.00000  Uiso   1.00
H165   H     0.84611   0.60898   0.88731   0.00000  Uiso   1.00
H166   H     0.55283   0.76366   0.97662   0.00000  Uiso   1.00
H167   H     0.84571   0.16393   0.84699   0.00000  Uiso   1.00
H168   H     0.94684   0.43347   0.88681   0.00000  Uiso   1.00
H169   H     0.91210   0.88370   0.98070   0.00000  Uiso   1.00
H170   H     0.80738   0.87547   0.01767   0.00000  Uiso   1.00
H171   H     0.94627   0.06532   0.95620   0.00000  Uiso   1.00
H172   H     0.99422   0.71892   0.97508   0.00000  Uiso   1.00
H173   H     0.67305   0.85288   0.04786   0.00000  Uiso   1.00
H174   H     0.96593   0.25316   0.91823   0.00000  Uiso   1.00
H175   H     0.06705   0.52270   0.95805   0.00000  Uiso   1.00
O176   O     0.54151   0.80102   0.03506   0.00000  Uiso   1.00
O177   O     0.92577   0.32615   0.86499   0.00000  Uiso   1.00
O178   O     0.05844   0.36781   0.91722   0.00000  Uiso   1.00
N179   N     0.59550   0.78576   0.98832   0.00000  Uiso   1.00
N180   N     0.86932   0.16001   0.86712   0.00000  Uiso   1.00
N181   N     0.96387   0.47710   0.90434   0.00000  Uiso   1.00
N182   N     0.66019   0.83377   0.02665   0.00000  Uiso   1.00
N183   N     0.93401   0.20802   0.90546   0.00000  Uiso   1.00
N184   N     0.02856   0.52512   0.94267   0.00000  Uiso   1.00
C185   C     0.29937   0.91777   0.41667   0.00000  Uiso   1.00
C186   C     0.25851   0.92333   0.44603   0.00000  Uiso   1.00
C187   C     0.18774   0.90108   0.44950   0.00000  Uiso   1.00
C188   C     0.16016   0.91084   0.47819   0.00000  Uiso   1.00
C189   C     0.09035   0.91483   0.52007   0.00000  Uiso   1.00
C190   C     0.33229   0.02846   0.41242   0.00000  Uiso   1.00
C191   C     0.32355   0.09458   0.38763   0.00000  Uiso   1.00
C192   C     0.35809   0.19283   0.38803   0.00000  Uiso   1.00
C193   C     0.40286   0.36000   0.37772   0.00000  Uiso   1.00
C194   C     0.36000   0.84051   0.42225   0.00000  Uiso   1.00
C195   C     0.37458   0.74862   0.40573   0.00000  Uiso   1.00
C196   C     0.43247   0.68864   0.41440   0.00000  Uiso   1.00
C197   C     0.52027   0.56400   0.41936   0.00000  Uiso   1.00
C198   C     0.37625   0.97467   0.46145   0.00000  Uiso   1.00
C199   C     0.30026   0.95425   0.47035   0.00000  Uiso   1.00
C200   C     0.27279   0.96403   0.49905   0.00000  Uiso   1.00
C201   C     0.20199   0.94179   0.50256   0.00000  Uiso   1.00
C202   C     0.37404   0.05937   0.43674   0.00000  Uiso   1.00
C203   C     0.40860   0.15754   0.43718   0.00000  Uiso   1.00
C204   C     0.39992   0.22379   0.41239   0.00000  Uiso   1.00
C205   C     0.40176   0.87142   0.44658   0.00000  Uiso   1.00
C206   C     0.45963   0.81158   0.45528   0.00000  Uiso   1.00
C207   C     0.47430   0.71961   0.43877   0.00000  Uiso   1.00
H208   H     0.26687   0.89371   0.39773   0.00000  Uiso   1.00
H209   H     0.15544   0.87717   0.43066   0.00000  Uiso   1.00
H210   H     0.29124   0.07064   0.36880   0.00000  Uiso   1.00
H211   H     0.34226   0.72473   0.38690   0.00000  Uiso   1.00
H212   H     0.05031   0.87250   0.47790   0.00000  Uiso   1.00
H213   H     0.33668   0.28042   0.34746   0.00000  Uiso   1.00
H214   H     0.44426   0.55100   0.38563   0.00000  Uiso   1.00
H215   H     0.40876   0.99874   0.48039   0.00000  Uiso   1.00
H216   H     0.30511   0.98796   0.51787   0.00000  Uiso   1.00
H217   H     0.44091   0.18143   0.45601   0.00000  Uiso   1.00
H218   H     0.49193   0.83552   0.47410   0.00000  Uiso   1.00
H219   H     0.17179   0.96242   0.54868   0.00000  Uiso   1.00
H220   H     0.45816   0.37034   0.41824   0.00000  Uiso   1.00
H221   H     0.56574   0.64093   0.45640   0.00000  Uiso   1.00
O222   O     0.04030   0.90851   0.53645   0.00000  Uiso   1.00
O223   O     0.41602   0.44367   0.36531   0.00000  Uiso   1.00
O224   O     0.55716   0.48670   0.41538   0.00000  Uiso   1.00
N225   N     0.09313   0.89512   0.48942   0.00000  Uiso   1.00
N226   N     0.36085   0.27651   0.36747   0.00000  Uiso   1.00
N227   N     0.46145   0.59458   0.40314   0.00000  Uiso   1.00
N228   N     0.15849   0.94351   0.52751   0.00000  Uiso   1.00
N229   N     0.42622   0.32490   0.40555   0.00000  Uiso   1.00
N230   N     0.52681   0.64297   0.44123   0.00000  Uiso   1.00
C231   C     0.52178   0.11147   0.83323   0.00000  Uiso   1.00
C232   C     0.48064   0.11630   0.80396   0.00000  Uiso   1.00
C233   C     0.40992   0.09339   0.80067   0.00000  Uiso   1.00
C234   C     0.38206   0.10253   0.77204   0.00000  Uiso   1.00
C235   C     0.31187   0.10537   0.73031   0.00000  Uiso   1.00
C236   C     0.55432   0.22250   0.83729   0.00000  Uiso   1.00
C237   C     0.54557   0.28887   0.86203   0.00000  Uiso   1.00
C238   C     0.57974   0.38741   0.86145   0.00000  Uiso   1.00
C239   C     0.62399   0.55510   0.87148   0.00000  Uiso   1.00
C240   C     0.58264   0.03467   0.82758   0.00000  Uiso   1.00
C241   C     0.59770   0.94312   0.84417   0.00000  Uiso   1.00
C242   C     0.65573   0.88352   0.83542   0.00000  Uiso   1.00
C243   C     0.74394   0.75957   0.83038   0.00000  Uiso   1.00
C244   C     0.59805   0.16844   0.78820   0.00000  Uiso   1.00
C245   C     0.52207   0.14724   0.77950   0.00000  Uiso   1.00
C246   C     0.49431   0.15642   0.75086   0.00000  Uiso   1.00
C247   C     0.42356   0.13352   0.74754   0.00000  Uiso   1.00
C248   C     0.59575   0.25345   0.81283   0.00000  Uiso   1.00
C249   C     0.62995   0.35190   0.81222   0.00000  Uiso   1.00
C250   C     0.62124   0.41841   0.83695   0.00000  Uiso   1.00
C251   C     0.62407   0.06561   0.80313   0.00000  Uiso   1.00
C252   C     0.68209   0.00615   0.79435   0.00000  Uiso   1.00
C253   C     0.69723   0.91453   0.81092   0.00000  Uiso   1.00
H254   H     0.48953   0.08739   0.85226   0.00000  Uiso   1.00
H255   H     0.37788   0.06945   0.81961   0.00000  Uiso   1.00
H256   H     0.51351   0.26490   0.88095   0.00000  Uiso   1.00
H257   H     0.56563   0.91920   0.86309   0.00000  Uiso   1.00
H258   H     0.27235   0.06325   0.77261   0.00000  Uiso   1.00
H259   H     0.55836   0.47535   0.90197   0.00000  Uiso   1.00
H260   H     0.66828   0.74637   0.86431   0.00000  Uiso   1.00
H261   H     0.63031   0.19253   0.76916   0.00000  Uiso   1.00
H262   H     0.52638   0.18036   0.73194   0.00000  Uiso   1.00
H263   H     0.66201   0.37582   0.79329   0.00000  Uiso   1.00
H264   H     0.71413   0.03012   0.77543   0.00000  Uiso   1.00
H265   H     0.39288   0.15328   0.70146   0.00000  Uiso   1.00
H266   H     0.67889   0.56538   0.83082   0.00000  Uiso   1.00
H267   H     0.78881   0.83640   0.79316   0.00000  Uiso   1.00
O268   O     0.26171   0.09840   0.71405   0.00000  Uiso   1.00
O269   O     0.63694   0.63905   0.88377   0.00000  Uiso   1.00
O270   O     0.78115   0.68265   0.83435   0.00000  Uiso   1.00
N271   N     0.31499   0.08609   0.76098   0.00000  Uiso   1.00
N272   N     0.58237   0.47139   0.88191   0.00000  Uiso   1.00
N273   N     0.68515   0.78987   0.84671   0.00000  Uiso   1.00
N274   N     0.37984   0.13453   0.72269   0.00000  Uiso   1.00
N275   N     0.64723   0.51983   0.84363   0.00000  Uiso   1.00
N276   N     0.75000   0.83831   0.80842   0.00000  Uiso   1.00
C277   C     0.91925   0.10928   0.66651   0.00000  Uiso   1.00
C278   C     0.96037   0.11676   0.69574   0.00000  Uiso   1.00
C279   C     0.03140   0.09634   0.69907   0.00000  Uiso   1.00
C280   C     0.05919   0.10767   0.72766   0.00000  Uiso   1.00
C281   C     0.12940   0.11467   0.76934   0.00000  Uiso   1.00
C282   C     0.88515   0.21902   0.66209   0.00000  Uiso   1.00
C283   C     0.89293   0.28456   0.63711   0.00000  Uiso   1.00
C284   C     0.85738   0.38197   0.63737   0.00000  Uiso   1.00
C285   C     0.81078   0.54770   0.62678   0.00000  Uiso   1.00
C286   C     0.85949   0.03074   0.67245   0.00000  Uiso   1.00
C287   C     0.84568   0.93799   0.65619   0.00000  Uiso   1.00
C288   C     0.78852   0.87689   0.66517   0.00000  Uiso   1.00
C289   C     0.70207   0.75028   0.67068   0.00000  Uiso   1.00
C290   C     0.84229   0.16571   0.71137   0.00000  Uiso   1.00
C291   C     0.91857   0.14742   0.72011   0.00000  Uiso   1.00
C292   C     0.94625   0.15878   0.74870   0.00000  Uiso   1.00
C293   C     0.01731   0.13837   0.75207   0.00000  Uiso   1.00
C294   C     0.84335   0.24968   0.68645   0.00000  Uiso   1.00
C295   C     0.80778   0.34700   0.68674   0.00000  Uiso   1.00
C296   C     0.81550   0.41268   0.66178   0.00000  Uiso   1.00
C297   C     0.81769   0.06139   0.69682   0.00000  Uiso   1.00
C298   C     0.76053   0.00043   0.70582   0.00000  Uiso   1.00
C299   C     0.74664   0.90760   0.68958   0.00000  Uiso   1.00
H300   H     0.95179   0.08542   0.64754   0.00000  Uiso   1.00
H301   H     0.06373   0.07263   0.68021   0.00000  Uiso   1.00
H302   H     0.92527   0.26082   0.61826   0.00000  Uiso   1.00
H303   H     0.87804   0.91429   0.63734   0.00000  Uiso   1.00
H304   H     0.16941   0.07200   0.72717   0.00000  Uiso   1.00
H305   H     0.87745   0.46879   0.59654   0.00000  Uiso   1.00
H306   H     0.77783   0.73808   0.63676   0.00000  Uiso   1.00
H307   H     0.80974   0.18958   0.73034   0.00000  Uiso   1.00
H308   H     0.91389   0.18250   0.76755   0.00000  Uiso   1.00
H309   H     0.77543   0.37069   0.70560   0.00000  Uiso   1.00
H310   H     0.72819   0.02417   0.72468   0.00000  Uiso   1.00
H311   H     0.04779   0.16118   0.79806   0.00000  Uiso   1.00
H312   H     0.75582   0.55797   0.66743   0.00000  Uiso   1.00
H313   H     0.65622   0.82726   0.70766   0.00000  Uiso   1.00
O314   O     0.17968   0.11009   0.78559   0.00000  Uiso   1.00
O315   O     0.79662   0.63065   0.61421   0.00000  Uiso   1.00
O316   O     0.66594   0.67198   0.66699   0.00000  Uiso   1.00
N317   N     0.12649   0.09394   0.73875   0.00000  Uiso   1.00
N318   N     0.85353   0.46492   0.61662   0.00000  Uiso   1.00
N319   N     0.76039   0.78179   0.65422   0.00000  Uiso   1.00
N320   N     0.06105   0.14193   0.77689   0.00000  Uiso   1.00
N321   N     0.78809   0.51291   0.65476   0.00000  Uiso   1.00
N322   N     0.69495   0.82977   0.69237   0.00000  Uiso   1.00
C323   C     0.30385   0.30335   0.91656   0.00000  Uiso   1.00
C324   C     0.26224   0.31022   0.94571   0.00000  Uiso   1.00
C325   C     0.19122   0.28927   0.94886   0.00000  Uiso   1.00
C326   C     0.16294   0.30008   0.97739   0.00000  Uiso   1.00
C327   C     0.09204   0.30613   0.01892   0.00000  Uiso   1.00
C328   C     0.33770   0.41338   0.91231   0.00000  Uiso   1.00
C329   C     0.33013   0.47915   0.88737   0.00000  Uiso   1.00
C330   C     0.36538   0.57679   0.88779   0.00000  Uiso   1.00
C331   C     0.41166   0.74296   0.87745   0.00000  Uiso   1.00
C332   C     0.36375   0.22516   0.92257   0.00000  Uiso   1.00
C333   C     0.37809   0.13269   0.90625   0.00000  Uiso   1.00
C334   C     0.43529   0.07188   0.91531   0.00000  Uiso   1.00
C335   C     0.52202   0.94582   0.92090   0.00000  Uiso   1.00
C336   C     0.37993   0.35982   0.96164   0.00000  Uiso   1.00
C337   C     0.30357   0.34089   0.97019   0.00000  Uiso   1.00
C338   C     0.27539   0.35174   0.99873   0.00000  Uiso   1.00
C339   C     0.20434   0.33080   0.00192   0.00000  Uiso   1.00
C340   C     0.37902   0.44405   0.93679   0.00000  Uiso   1.00
C341   C     0.41429   0.54162   0.93725   0.00000  Uiso   1.00
C342   C     0.40677   0.60752   0.91232   0.00000  Uiso   1.00
C343   C     0.40507   0.25583   0.94705   0.00000  Uiso   1.00
C344   C     0.46226   0.19516   0.95613   0.00000  Uiso   1.00
C345   C     0.47668   0.10261   0.93984   0.00000  Uiso   1.00
H346   H     0.27169   0.27948   0.89750   0.00000  Uiso   1.00
H347   H     0.15926   0.26554   0.92990   0.00000  Uiso   1.00
H348   H     0.29815   0.45539   0.86843   0.00000  Uiso   1.00
H349   H     0.34611   0.10898   0.88731   0.00000  Uiso   1.00
H350   H     0.05283   0.26366   0.97662   0.00000  Uiso   1.00
H351   H     0.34571   0.66393   0.84699   0.00000  Uiso   1.00
H352   H     0.44684   0.93347   0.88681   0.00000  Uiso   1.00
H353   H     0.41210   0.38370   0.98070   0.00000  Uiso   1.00
H354   H     0.30738   0.37547   0.01767   0.00000  Uiso   1.00
H355   H     0.44627   0.56532   0.95620   0.00000  Uiso   1.00
H356   H     0.49422   0.21892   0.97508   0.00000  Uiso   1.00
H357   H     0.17305   0.35288   0.04786   0.00000  Uiso   1.00
H358   H     0.46593   0.75316   0.91823   0.00000  Uiso   1.00
H359   H     0.56705   0.02270   0.95805   0.00000  Uiso   1.00
O360   O     0.04151   0.30102   0.03506   0.00000  Uiso   1.00
O361   O     0.42577   0.82615   0.86499   0.00000  Uiso   1.00
O362   O     0.55844   0.86781   0.91722   0.00000  Uiso   1.00
N363   N     0.09550   0.28576   0.98832   0.00000  Uiso   1.00
N364   N     0.36932   0.66001   0.86712   0.00000  Uiso   1.00
N365   N     0.46387   0.97710   0.90434   0.00000  Uiso   1.00
N366   N     0.16019   0.33377   0.02665   0.00000  Uiso   1.00
N367   N     0.43401   0.70802   0.90546   0.00000  Uiso   1.00
N368   N     0.52856   0.02512   0.94267   0.00000  Uiso   1.00
C369   C     0.20063   0.41777   0.58333   0.00000  Uiso   1.00
C370   C     0.24149   0.42333   0.55397   0.00000  Uiso   1.00
C371   C     0.31226   0.40108   0.55050   0.00000  Uiso   1.00
C372   C     0.33984   0.41084   0.52181   0.00000  Uiso   1.00
C373   C     0.40965   0.41483   0.47993   0.00000  Uiso   1.00
C374   C     0.16771   0.52846   0.58758   0.00000  Uiso   1.00
C375   C     0.17645   0.59458   0.61237   0.00000  Uiso   1.00
C376   C     0.14191   0.69283   0.61197   0.00000  Uiso   1.00
C377   C     0.09714   0.86000   0.62228   0.00000  Uiso   1.00
C378   C     0.14000   0.34051   0.57775   0.00000  Uiso   1.00
C379   C     0.12542   0.24862   0.59427   0.00000  Uiso   1.00
C380   C     0.06753   0.18864   0.58560   0.00000  Uiso   1.00
C381   C     0.97973   0.06400   0.58064   0.00000  Uiso   1.00
C382   C     0.12375   0.47467   0.53855   0.00000  Uiso   1.00
C383   C     0.19974   0.45425   0.52965   0.00000  Uiso   1.00
C384   C     0.22721   0.46403   0.50095   0.00000  Uiso   1.00
C385   C     0.29801   0.44179   0.49744   0.00000  Uiso   1.00
C386   C     0.12596   0.55937   0.56326   0.00000  Uiso   1.00
C387   C     0.09140   0.65754   0.56282   0.00000  Uiso   1.00
C388   C     0.10008   0.72379   0.58761   0.00000  Uiso   1.00
C389   C     0.09824   0.37142   0.55342   0.00000  Uiso   1.00
C390   C     0.04037   0.31158   0.54472   0.00000  Uiso   1.00
C391   C     0.02570   0.21961   0.56123   0.00000  Uiso   1.00
H392   H     0.23313   0.39371   0.60227   0.00000  Uiso   1.00
H393   H     0.34456   0.37717   0.56934   0.00000  Uiso   1.00
H394   H     0.20876   0.57064   0.63120   0.00000  Uiso   1.00
H395   H     0.15774   0.22473   0.61310   0.00000  Uiso   1.00
H396   H     0.44969   0.37250   0.52210   0.00000  Uiso   1.00
H397   H     0.16332   0.78042   0.65254   0.00000  Uiso   1.00
H398   H     0.05574   0.05100   0.61437   0.00000  Uiso   1.00
H399   H     0.09124   0.49874   0.51961   0.00000  Uiso   1.00
H400   H     0.19489   0.48796   0.48213   0.00000  Uiso   1.00
H401   H     0.05909   0.68143   0.54399   0.00000  Uiso   1.00
H402   H     0.00807   0.33552   0.52590   0.00000  Uiso   1.00
H403   H     0.32821   0.46242   0.45132   0.00000  Uiso   1.00
H404   H     0.04184   0.87034   0.58176   0.00000  Uiso   1.00
H405   H     0.93426   0.14093   0.54360   0.00000  Uiso   1.00
O406   O     0.45970   0.40851   0.46355   0.00000  Uiso   1.00
O407   O     0.08398   0.94367   0.63469   0.00000  Uiso   1.00
O408   O     0.94284   0.98670   0.58462   0.00000  Uiso   1.00
N409   N     0.40687   0.39512   0.51058   0.00000  Uiso   1.00
N410   N     0.13915   0.77651   0.63253   0.00000  Uiso   1.00
N411   N     0.03855   0.09458   0.59686   0.00000  Uiso   1.00
N412   N     0.34151   0.44351   0.47249   0.00000  Uiso   1.00
N413   N     0.07378   0.82490   0.59445   0.00000  Uiso   1.00
N414   N     0.97319   0.14297   0.55877   0.00000  Uiso   1.00
C415   C     0.97822   0.61147   0.16677   0.00000  Uiso   1.00
C416   C     0.01936   0.61630   0.19604   0.00000  Uiso   1.00
C417   C     0.09008   0.59339   0.19933   0.00000  Uiso   1.00
C418   C     0.11794   0.60253   0.22796   0.00000  Uiso   1.00
C419   C     0.18813   0.60537   0.26969   0.00000  Uiso   1.00
C420   C     0.94568   0.72250   0.16271   0.00000  Uiso   1.00
C421   C     0.95443   0.78887   0.13797   0.00000  Uiso   1.00
C422   C     0.92026   0.88741   0.13855   0.00000  Uiso   1.00
C423   C     0.87601   0.05510   0.12852   0.00000  Uiso   1.00
C424   C     0.91736   0.53467   0.17242   0.00000  Uiso   1.00
C425   C     0.90230   0.44312   0.15583   0.00000  Uiso   1.00
C426   C     0.84427   0.38352   0.16458   0.00000  Uiso   1.00
C427   C     0.75606   0.25957   0.16962   0.00000  Uiso   1.00
C428   C     0.90195   0.66844   0.21180   0.00000  Uiso   1.00
C429   C     0.97793   0.64724   0.22050   0.00000  Uiso   1.00
C430   C     0.00569   0.65642   0.24914   0.00000  Uiso   1.00
C431   C     0.07644   0.63352   0.25246   0.00000  Uiso   1.00
C432   C     0.90425   0.75345   0.18717   0.00000  Uiso   1.00
C433   C     0.87005   0.85190   0.18778   0.00000  Uiso   1.00
C434   C     0.87876   0.91841   0.16305   0.00000  Uiso   1.00
C435   C     0.87593   0.56561   0.19687   0.00000  Uiso   1.00
C436   C     0.81791   0.50615   0.20565   0.00000  Uiso   1.00
C437   C     0.80277   0.41453   0.18908   0.00000  Uiso   1.00
H438   H     0.01047   0.58739   0.14774   0.00000  Uiso   1.00
H439   H     0.12212   0.56945   0.18039   0.00000  Uiso   1.00
H440   H     0.98649   0.76490   0.11905   0.00000  Uiso   1.00
H441   H     0.93437   0.41920   0.13691   0.00000  Uiso   1.00
H442   H     0.22765   0.56325   0.22739   0.00000  Uiso   1.00
H443   H     0.94164   0.97535   0.09803   0.00000  Uiso   1.00
H444   H     0.83172   0.24637   0.13569   0.00000  Uiso   1.00
H445   H     0.86969   0.69253   0.23084   0.00000  Uiso   1.00
H446   H     0.97362   0.68036   0.26806   0.00000  Uiso   1.00
H447   H     0.83799   0.87582   0.20671   0.00000  Uiso   1.00
H448   H     0.78587   0.53012   0.22457   0.00000  Uiso   1.00
H449   H     0.10712   0.65328   0.29854   0.00000  Uiso   1.00
H450   H     0.82111   0.06538   0.16918   0.00000  Uiso   1.00
H451   H     0.71119   0.33640   0.20684   0.00000  Uiso   1.00
O452   O     0.23829   0.59840   0.28595   0.00000  Uiso   1.00
O453   O     0.86306   0.13905   0.11623   0.00000  Uiso   1.00
O454   O     0.71885   0.18265   0.16565   0.00000  Uiso   1.00
N455   N     0.18501   0.58609   0.23902   0.00000  Uiso   1.00
N456   N     0.91763   0.97139   0.11809   0.00000  Uiso   1.00
N457   N     0.81485   0.28987   0.15329   0.00000  Uiso   1.00
N458   N     0.12016   0.63453   0.27731   0.00000  Uiso   1.00
N459   N     0.85277   0.01983   0.15637   0.00000  Uiso   1.00
N460   N     0.75000   0.33831   0.19158   0.00000  Uiso   1.00
C461   C     0.58075   0.60928   0.33349   0.00000  Uiso   1.00
C462   C     0.53963   0.61676   0.30426   0.00000  Uiso   1.00
C463   C     0.46860   0.59634   0.30093   0.00000  Uiso   1.00
C464   C     0.44081   0.60767   0.27234   0.00000  Uiso   1.00
C465   C     0.37060   0.61467   0.23066   0.00000  Uiso   1.00
C466   C     0.61485   0.71902   0.33791   0.00000  Uiso   1.00
C467   C     0.60707   0.78456   0.36289   0.00000  Uiso   1.00
C468   C     0.64262   0.88197   0.36263   0.00000  Uiso   1.00
C469   C     0.68922   0.04770   0.37322   0.00000  Uiso   1.00
C470   C     0.64051   0.53074   0.32755   0.00000  Uiso   1.00
C471   C     0.65432   0.43799   0.34381   0.00000  Uiso   1.00
C472   C     0.71148   0.37689   0.33483   0.00000  Uiso   1.00
C473   C     0.79793   0.25028   0.32932   0.00000  Uiso   1.00
C474   C     0.65771   0.66571   0.28863   0.00000  Uiso   1.00
C475   C     0.58143   0.64742   0.27989   0.00000  Uiso   1.00
C476   C     0.55375   0.65878   0.25130   0.00000  Uiso   1.00
C477   C     0.48269   0.63837   0.24793   0.00000  Uiso   1.00
C478   C     0.65665   0.74968   0.31355   0.00000  Uiso   1.00
C479   C     0.69222   0.84700   0.31326   0.00000  Uiso   1.00
C480   C     0.68450   0.91268   0.33822   0.00000  Uiso   1.00
C481   C     0.68231   0.56139   0.30318   0.00000  Uiso   1.00
C482   C     0.73947   0.50043   0.29418   0.00000  Uiso   1.00
C483   C     0.75336   0.40760   0.31042   0.00000  Uiso   1.00
H484   H     0.54821   0.58542   0.35246   0.00000  Uiso   1.00
H485   H     0.43627   0.57263   0.31979   0.00000  Uiso   1.00
H486   H     0.57473   0.76082   0.38174   0.00000  Uiso   1.00
H487   H     0.62196   0.41429   0.36266   0.00000  Uiso   1.00
H488   H     0.33059   0.57200   0.27283   0.00000  Uiso   1.00
H489   H     0.62255   0.96879   0.40346   0.00000  Uiso   1.00
H490   H     0.72217   0.23808   0.36324   0.00000  Uiso   1.00
H491   H     0.69026   0.68958   0.26966   0.00000  Uiso   1.00
H492   H     0.58611   0.68250   0.23245   0.00000  Uiso   1.00
H493   H     0.72457   0.87069   0.29440   0.00000  Uiso   1.00
H494   H     0.77181   0.52417   0.27532   0.00000  Uiso   1.00
H495   H     0.45221   0.66118   0.20194   0.00000  Uiso   1.00
H496   H     0.74418   0.05797   0.33257   0.00000  Uiso   1.00
H497   H     0.84378   0.32726   0.29234   0.00000  Uiso   1.00
O498   O     0.32032   0.61009   0.21441   0.00000  Uiso   1.00
O499   O     0.70338   0.13065   0.38579   0.00000  Uiso   1.00
O500   O     0.83406   0.17198   0.33301   0.00000  Uiso   1.00
N501   N     0.37351   0.59394   0.26125   0.00000  Uiso   1.00
N502   N     0.64647   0.96492   0.38338   0.00000  Uiso   1.00
N503   N     0.73961   0.28179   0.34578   0.00000  Uiso   1.00
N504   N     0.43895   0.64193   0.22311   0.00000  Uiso   1.00
N505   N     0.71191   0.01291   0.34524   0.00000  Uiso   1.00
N506   N     0.80505   0.32977   0.30763   0.00000  Uiso   1.00
C507   C     0.19615   0.80335   0.08344   0.00000  Uiso   1.00
C508   C     0.23776   0.81022   0.05429   0.00000  Uiso   1.00
C509   C     0.30878   0.78927   0.05114   0.00000  Uiso   1.00
C510   C     0.33706   0.80008   0.02261   0.00000  Uiso   1.00
C511   C     0.40796   0.80613   0.98108   0.00000  Uiso   1.00
C512   C     0.16230   0.91338   0.08769   0.00000  Uiso   1.00
C513   C     0.16987   0.97915   0.11263   0.00000  Uiso   1.00
C514   C     0.13462   0.07679   0.11221   0.00000  Uiso   1.00
C515   C     0.08834   0.24296   0.12255   0.00000  Uiso   1.00
C516   C     0.13625   0.72516   0.07743   0.00000  Uiso   1.00
C517   C     0.12191   0.63269   0.09375   0.00000  Uiso   1.00
C518   C     0.06471   0.57188   0.08469   0.00000  Uiso   1.00
C519   C     0.97798   0.44582   0.07910   0.00000  Uiso   1.00
C520   C     0.12007   0.85982   0.03836   0.00000  Uiso   1.00
C521   C     0.19643   0.84089   0.02981   0.00000  Uiso   1.00
C522   C     0.22461   0.85174   0.00127   0.00000  Uiso   1.00
C523   C     0.29566   0.83080   0.99808   0.00000  Uiso   1.00
C524   C     0.12098   0.94405   0.06321   0.00000  Uiso   1.00
C525   C     0.08571   0.04162   0.06275   0.00000  Uiso   1.00
C526   C     0.09323   0.10752   0.08768   0.00000  Uiso   1.00
C527   C     0.09493   0.75583   0.05295   0.00000  Uiso   1.00
C528   C     0.03774   0.69516   0.04387   0.00000  Uiso   1.00
C529   C     0.02332   0.60261   0.06016   0.00000  Uiso   1.00
H530   H     0.22831   0.77948   0.10250   0.00000  Uiso   1.00
H531   H     0.34074   0.76554   0.07010   0.00000  Uiso   1.00
H532   H     0.20185   0.95539   0.13157   0.00000  Uiso   1.00
H533   H     0.15389   0.60898   0.11269   0.00000  Uiso   1.00
H534   H     0.44717   0.76366   0.02338   0.00000  Uiso   1.00
H535   H     0.15429   0.16393   0.15301   0.00000  Uiso   1.00
H536   H     0.05316   0.43347   0.11319   0.00000  Uiso   1.00
H537   H     0.08790   0.88370   0.01930   0.00000  Uiso   1.00
H538   H     0.19262   0.87547   0.98233   0.00000  Uiso   1.00
H539   H     0.05373   0.06532   0.04380   0.00000  Uiso   1.00
H540   H     0.00578   0.71892   0.02492   0.00000  Uiso   1.00
H541   H     0.32695   0.85288   0.95214   0.00000  Uiso   1.00
H542   H     0.03407   0.25316   0.08177   0.00000  Uiso   1.00
H543   H     0.93295   0.52270   0.04195   0.00000  Uiso   1.00
O544   O     0.45849   0.80102   0.96494   0.00000  Uiso   1.00
O545   O     0.07423   0.32615   0.13501   0.00000  Uiso   1.00
O546   O     0.94156   0.36781   0.08278   0.00000  Uiso   1.00
N547   N     0.40450   0.78576   0.01168   0.00000  Uiso   1.00
N548   N     0.13068   0.16001   0.13288   0.00000  Uiso   1.00
N549   N     0.03613   0.47710   0.09566   0.00000  Uiso   1.00
N550   N     0.33981   0.83377   0.97335   0.00000  Uiso   1.00
N551   N     0.06599   0.20802   0.09454   0.00000  Uiso   1.00
N552   N     0.97144   0.52512   0.05733   0.00000  Uiso   1.00
C553   C     0.70063   0.91777   0.58333   0.00000  Uiso   1.00
C554   C     0.74149   0.92333   0.55397   0.00000  Uiso   1.00
C555   C     0.81226   0.90108   0.55050   0.00000  Uiso   1.00
C556   C     0.83984   0.91084   0.52181   0.00000  Uiso   1.00
C557   C     0.90965   0.91483   0.47993   0.00000  Uiso   1.00
C558   C     0.66771   0.02846   0.58758   0.00000  Uiso   1.00
C559   C     0.67645   0.09458   0.61237   0.00000  Uiso   1.00
C560   C     0.64191   0.19283   0.61197   0.00000  Uiso   1.00
C561   C     0.59714   0.36000   0.62228   0.00000  Uiso   1.00
C562   C     0.64000   0.84051   0.57775   0.00000  Uiso   1.00
C563   C     0.62542   0.74862   0.59427   0.00000  Uiso   1.00
C564   C     0.56753   0.68864   0.58560   0.00000  Uiso   1.00
C565   C     0.47973   0.56400   0.58064   0.00000  Uiso   1.00
C566   C     0.62375   0.97467   0.53855   0.00000  Uiso   1.00
C567   C     0.69974   0.95425   0.52965   0.00000  Uiso   1.00
C568   C     0.72721   0.96403   0.50095   0.00000  Uiso   1.00
C569   C     0.79801   0.94179   0.49744   0.00000  Uiso   1.00
C570   C     0.62596   0.05937   0.56326   0.00000  Uiso   1.00
C571   C     0.59140   0.15754   0.56282   0.00000  Uiso   1.00
C572   C     0.60008   0.22379   0.58761   0.00000  Uiso   1.00
C573   C     0.59824   0.87142   0.55342   0.00000  Uiso   1.00
C574   C     0.54037   0.81158   0.54472   0.00000  Uiso   1.00
C575   C     0.52570   0.71961   0.56123   0.00000  Uiso   1.00
H576   H     0.73313   0.89371   0.60227   0.00000  Uiso   1.00
H577   H     0.84456   0.87717   0.56934   0.00000  Uiso   1.00
H578   H     0.70876   0.07064   0.63120   0.00000  Uiso   1.00
H579   H     0.65774   0.72473   0.61310   0.00000  Uiso   1.00
H580   H     0.94969   0.87250   0.52210   0.00000  Uiso   1.00
H581   H     0.66332   0.28042   0.65254   0.00000  Uiso   1.00
H582   H     0.55574   0.55100   0.61437   0.00000  Uiso   1.00
H583   H     0.59124   0.99874   0.51961   0.00000  Uiso   1.00
H584   H     0.69489   0.98796   0.48213   0.00000  Uiso   1.00
H585   H     0.55909   0.18143   0.54399   0.00000  Uiso   1.00
H586   H     0.50807   0.83552   0.52590   0.00000  Uiso   1.00
H587   H     0.82821   0.96242   0.45132   0.00000  Uiso   1.00
H588   H     0.54184   0.37034   0.58176   0.00000  Uiso   1.00
H589   H     0.43426   0.64093   0.54360   0.00000  Uiso   1.00
O590   O     0.95970   0.90851   0.46355   0.00000  Uiso   1.00
O591   O     0.58398   0.44367   0.63469   0.00000  Uiso   1.00
O592   O     0.44284   0.48670   0.58462   0.00000  Uiso   1.00
N593   N     0.90687   0.89512   0.51058   0.00000  Uiso   1.00
N594   N     0.63915   0.27651   0.63253   0.00000  Uiso   1.00
N595   N     0.53855   0.59458   0.59686   0.00000  Uiso   1.00
N596   N     0.84151   0.94351   0.47249   0.00000  Uiso   1.00
N597   N     0.57378   0.32490   0.59445   0.00000  Uiso   1.00
N598   N     0.47319   0.64297   0.55877   0.00000  Uiso   1.00
C599   C     0.47822   0.11147   0.16677   0.00000  Uiso   1.00
C600   C     0.51936   0.11630   0.19604   0.00000  Uiso   1.00
C601   C     0.59008   0.09339   0.19933   0.00000  Uiso   1.00
C602   C     0.61794   0.10253   0.22796   0.00000  Uiso   1.00
C603   C     0.68813   0.10537   0.26969   0.00000  Uiso   1.00
C604   C     0.44568   0.22250   0.16271   0.00000  Uiso   1.00
C605   C     0.45443   0.28887   0.13797   0.00000  Uiso   1.00
C606   C     0.42026   0.38741   0.13855   0.00000  Uiso   1.00
C607   C     0.37601   0.55510   0.12852   0.00000  Uiso   1.00
C608   C     0.41736   0.03467   0.17242   0.00000  Uiso   1.00
C609   C     0.40230   0.94312   0.15583   0.00000  Uiso   1.00
C610   C     0.34427   0.88352   0.16458   0.00000  Uiso   1.00
C611   C     0.25606   0.75957   0.16962   0.00000  Uiso   1.00
C612   C     0.40195   0.16844   0.21180   0.00000  Uiso   1.00
C613   C     0.47793   0.14724   0.22050   0.00000  Uiso   1.00
C614   C     0.50569   0.15642   0.24914   0.00000  Uiso   1.00
C615   C     0.57644   0.13352   0.25246   0.00000  Uiso   1.00
C616   C     0.40425   0.25345   0.18717   0.00000  Uiso   1.00
C617   C     0.37005   0.35190   0.18778   0.00000  Uiso   1.00
C618   C     0.37876   0.41841   0.16305   0.00000  Uiso   1.00
C619   C     0.37593   0.06561   0.19687   0.00000  Uiso   1.00
C620   C     0.31791   0.00615   0.20565   0.00000  Uiso   1.00
C621   C     0.30277   0.91453   0.18908   0.00000  Uiso   1.00
H622   H     0.51047   0.08739   0.14774   0.00000  Uiso   1.00
H623   H     0.62212   0.06945   0.18039   0.00000  Uiso   1.00
H624   H     0.48649   0.26490   0.11905   0.00000  Uiso   1.00
H625   H     0.43437   0.91920   0.13691   0.00000  Uiso   1.00
H626   H     0.72765   0.06325   0.22739   0.00000  Uiso   1.00
H627   H     0.44164   0.47535   0.09803   0.00000  Uiso   1.00
H628   H     0.33172   0.74637   0.13569   0.00000  Uiso   1.00
H629   H     0.36969   0.19253   0.23084   0.00000  Uiso   1.00
H630   H     0.47362   0.18036   0.26806   0.00000  Uiso   1.00
H631   H     0.33799   0.37582   0.20671   0.00000  Uiso   1.00
H632   H     0.28587   0.03012   0.22457   0.00000  Uiso   1.00
H633   H     0.60712   0.15328   0.29854   0.00000  Uiso   1.00
H634   H     0.32111   0.56538   0.16918   0.00000  Uiso   1.00
H635   H     0.21119   0.83640   0.20684   0.00000  Uiso   1.00
O636   O     0.73829   0.09840   0.28595   0.00000  Uiso   1.00
O637   O     0.36306   0.63905   0.11623   0.00000  Uiso   1.00
O638   O     0.21885   0.68265   0.16565   0.00000  Uiso   1.00
N639   N     0.68501   0.08609   0.23902   0.00000  Uiso   1.00
N640   N     0.41763   0.47139   0.11809   0.00000  Uiso   1.00
N641   N     0.31485   0.78987   0.15329   0.00000  Uiso   1.00
N642   N     0.62016   0.13453   0.27731   0.00000  Uiso   1.00
N643   N     0.35277   0.51983   0.15637   0.00000  Uiso   1.00
N644   N     0.25000   0.83831   0.19158   0.00000  Uiso   1.00
C645   C     0.08075   0.10928   0.33349   0.00000  Uiso   1.00
C646   C     0.03963   0.11676   0.30426   0.00000  Uiso   1.00
C647   C     0.96860   0.09634   0.30093   0.00000  Uiso   1.00
C648   C     0.94081   0.10767   0.27234   0.00000  Uiso   1.00
C649   C     0.87060   0.11467   0.23066   0.00000  Uiso   1.00
C650   C     0.11485   0.21902   0.33791   0.00000  Uiso   1.00
C651   C     0.10707   0.28456   0.36289   0.00000  Uiso   1.00
C652   C     0.14262   0.38197   0.36263   0.00000  Uiso   1.00
C653   C     0.18922   0.54770   0.37322   0.00000  Uiso   1.00
C654   C     0.14051   0.03074   0.32755   0.00000  Uiso   1.00
C655   C     0.15432   0.93799   0.34381   0.00000  Uiso   1.00
C656   C     0.21148   0.87689   0.33483   0.00000  Uiso   1.00
C657   C     0.29793   0.75028   0.32932   0.00000  Uiso   1.00
C658   C     0.15771   0.16571   0.28863   0.00000  Uiso   1.00
C659   C     0.08143   0.14742   0.27989   0.00000  Uiso   1.00
C660   C     0.05375   0.15878   0.25130   0.00000  Uiso   1.00
C661   C     0.98269   0.13837   0.24793   0.00000  Uiso   1.00
C662   C     0.15665   0.24968   0.31355   0.00000  Uiso   1.00
C663   C     0.19222   0.34700   0.31326   0.00000  Uiso   1.00
C664   C     0.18450   0.41268   0.33822   0.00000  Uiso   1.00
C665   C     0.18231   0.06139   0.30318   0.00000  Uiso   1.00
C666   C     0.23947   0.00043   0.29418   0.00000  Uiso   1.00
C667   C     0.25336   0.90760   0.31042   0.00000  Uiso   1.00
H668   H     0.04821   0.08542   0.35246   0.00000  Uiso   1.00
H669   H     0.93627   0.07263   0.31979   0.00000  Uiso   1.00
H670   H     0.07473   0.26082   0.38174   0.00000  Uiso   1.00
H671   H     0.12196   0.91429   0.36266   0.00000  Uiso   1.00
H672   H     0.83059   0.07200   0.27283   0.00000  Uiso   1.00
H673   H     0.12255   0.46879   0.40346   0.00000  Uiso   1.00
H674   H     0.22217   0.73808   0.36324   0.00000  Uiso   1.00
H675   H     0.19026   0.18958   0.26966   0.00000  Uiso   1.00
H676   H     0.08611   0.18250   0.23245   0.00000  Uiso   1.00
H677   H     0.22457   0.37069   0.29440   0.00000  Uiso   1.00
H678   H     0.27181   0.02417   0.27532   0.00000  Uiso   1.00
H679   H     0.95221   0.16118   0.20194   0.00000  Uiso   1.00
H680   H     0.24418   0.55797   0.33257   0.00000  Uiso   1.00
H681   H     0.34378   0.82726   0.29234   0.00000  Uiso   1.00
O682   O     0.82032   0.11009   0.21441   0.00000  Uiso   1.00
O683   O     0.20338   0.63065   0.38579   0.00000  Uiso   1.00
O684   O     0.33406   0.67198   0.33301   0.00000  Uiso   1.00
N685   N     0.87351   0.09394   0.26125   0.00000  Uiso   1.00
N686   N     0.14647   0.46492   0.38338   0.00000  Uiso   1.00
N687   N     0.23961   0.78179   0.34578   0.00000  Uiso   1.00
N688   N     0.93895   0.14193   0.22311   0.00000  Uiso   1.00
N689   N     0.21191   0.51291   0.34524   0.00000  Uiso   1.00
N690   N     0.30505   0.82977   0.30763   0.00000  Uiso   1.00
C691   C     0.69615   0.30335   0.08344   0.00000  Uiso   1.00
C692   C     0.73776   0.31022   0.05429   0.00000  Uiso   1.00
C693   C     0.80878   0.28927   0.05114   0.00000  Uiso   1.00
C694   C     0.83706   0.30008   0.02261   0.00000  Uiso   1.00
C695   C     0.90796   0.30613   0.98108   0.00000  Uiso   1.00
C696   C     0.66230   0.41338   0.08769   0.00000  Uiso   1.00
C697   C     0.66987   0.47915   0.11263   0.00000  Uiso   1.00
C698   C     0.63462   0.57679   0.11221   0.00000  Uiso   1.00
C699   C     0.58834   0.74296   0.12255   0.00000  Uiso   1.00
C700   C     0.63625   0.22516   0.07743   0.00000  Uiso   1.00
C701   C     0.62191   0.13269   0.09375   0.00000  Uiso   1.00
C702   C     0.56471   0.07188   0.08469   0.00000  Uiso   1.00
C703   C     0.47798   0.94582   0.07910   0.00000  Uiso   1.00
C704   C     0.62007   0.35982   0.03836   0.00000  Uiso   1.00
C705   C     0.69643   0.34089   0.02981   0.00000  Uiso   1.00
C706   C     0.72461   0.35174   0.00127   0.00000  Uiso   1.00
C707   C     0.79566   0.33080   0.99808   0.00000  Uiso   1.00
C708   C     0.62098   0.44405   0.06321   0.00000  Uiso   1.00
C709   C     0.58571   0.54162   0.06275   0.00000  Uiso   1.00
C710   C     0.59323   0.60752   0.08768   0.00000  Uiso   1.00
C711   C     0.59493   0.25583   0.05295   0.00000  Uiso   1.00
C712   C     0.53774   0.19516   0.04387   0.00000  Uiso   1.00
C713   C     0.52332   0.10261   0.06016   0.00000  Uiso   1.00
H714   H     0.72831   0.27948   0.10250   0.00000  Uiso   1.00
H715   H     0.84074   0.26554   0.07010   0.00000  Uiso   1.00
H716   H     0.70185   0.45539   0.13157   0.00000  Uiso   1.00
H717   H     0.65389   0.10898   0.11269   0.00000  Uiso   1.00
H718   H     0.94717   0.26366   0.02338   0.00000  Uiso   1.00
H719   H     0.65429   0.66393   0.15301   0.00000  Uiso   1.00
H720   H     0.55316   0.93347   0.11319   0.00000  Uiso   1.00
H721   H     0.58790   0.38370   0.01930   0.00000  Uiso   1.00
H722   H     0.69262   0.37547   0.98233   0.00000  Uiso   1.00
H723   H     0.55373   0.56532   0.04380   0.00000  Uiso   1.00
H724   H     0.50578   0.21892   0.02492   0.00000  Uiso   1.00
H725   H     0.82695   0.35288   0.95214   0.00000  Uiso   1.00
H726   H     0.53407   0.75316   0.08177   0.00000  Uiso   1.00
H727   H     0.43295   0.02270   0.04195   0.00000  Uiso   1.00
O728   O     0.95849   0.30102   0.96494   0.00000  Uiso   1.00
O729   O     0.57423   0.82615   0.13501   0.00000  Uiso   1.00
O730   O     0.44156   0.86781   0.08278   0.00000  Uiso   1.00
N731   N     0.90450   0.28576   0.01168   0.00000  Uiso   1.00
N732   N     0.63068   0.66001   0.13288   0.00000  Uiso   1.00
N733   N     0.53613   0.97710   0.09566   0.00000  Uiso   1.00
N734   N     0.83981   0.33377   0.97335   0.00000  Uiso   1.00
N735   N     0.56599   0.70802   0.09454   0.00000  Uiso   1.00
N736   N     0.47144   0.02512   0.05733   0.00000  Uiso   1.00
