data_job_05673
_audit_creation_date              2018-12-19
_audit_creation_method            'Materials Studio'
_symmetry_space_group_name_H-M    'P1'
_symmetry_Int_Tables_number       1
_symmetry_cell_setting            triclinic
loop_
_symmetry_equiv_pos_as_xyz
  x,y,z
_cell_length_a                    20.3463
_cell_length_b                    20.3463
_cell_length_c                    26.1582
_cell_angle_alpha                 90.0000
_cell_angle_beta                  90.0000
_cell_angle_gamma                 90.0000
loop_
_atom_site_label
_atom_site_type_symbol
_atom_site_fract_x
_atom_site_fract_y
_atom_site_fract_z
_atom_site_U_iso_or_equiv
_atom_site_adp_type
_atom_site_occupancy
C1     C     0.27444   0.89541   0.42667   0.00000  Uiso   1.00
C2     C     0.24899   0.84533   0.38807   0.00000  Uiso   1.00
C3     C     0.21471   0.78830   0.39972   0.00000  Uiso   1.00
C4     C     0.19571   0.74893   0.35897   0.00000  Uiso   1.00
C5     C     0.15397   0.66855   0.30674   0.00000  Uiso   1.00
C6     C     0.34814   0.90119   0.41705   0.00000  Uiso   1.00
C7     C     0.39721   0.89113   0.45307   0.00000  Uiso   1.00
C8     C     0.46167   0.89880   0.43670   0.00000  Uiso   1.00
C9     C     0.57386   0.90519   0.42947   0.00000  Uiso   1.00
C10    C     0.24486   0.96129   0.41108   0.00000  Uiso   1.00
C11    C     0.20711   0.00178   0.44207   0.00000  Uiso   1.00
C12    C     0.18464   0.06005   0.42068   0.00000  Uiso   1.00
C13    C     0.13647   0.15976   0.40418   0.00000  Uiso   1.00
C14    C     0.30167   0.92691   0.33357   0.00000  Uiso   1.00
C15    C     0.26379   0.86244   0.33751   0.00000  Uiso   1.00
C16    C     0.24483   0.82315   0.29673   0.00000  Uiso   1.00
C17    C     0.21052   0.76607   0.30831   0.00000  Uiso   1.00
C18    C     0.36293   0.91830   0.36649   0.00000  Uiso   1.00
C19    C     0.42734   0.92598   0.35007   0.00000  Uiso   1.00
C20    C     0.47649   0.91593   0.38605   0.00000  Uiso   1.00
C21    C     0.25965   0.97840   0.36051   0.00000  Uiso   1.00
C22    C     0.23724   0.03662   0.33907   0.00000  Uiso   1.00
C23    C     0.19945   0.07719   0.37003   0.00000  Uiso   1.00
H24    H     0.26293   0.88209   0.46603   0.00000  Uiso   1.00
H25    H     0.20327   0.77508   0.43886   0.00000  Uiso   1.00
H26    H     0.38575   0.87790   0.49219   0.00000  Uiso   1.00
H27    H     0.19567   0.98853   0.48120   0.00000  Uiso   1.00
H28    H     0.14368   0.66396   0.38643   0.00000  Uiso   1.00
H29    H     0.52843   0.88080   0.49890   0.00000  Uiso   1.00
H30    H     0.12763   0.11407   0.47572   0.00000  Uiso   1.00
H31    H     0.31319   0.94023   0.29421   0.00000  Uiso   1.00
H32    H     0.25629   0.83640   0.25760   0.00000  Uiso   1.00
H33    H     0.43876   0.93922   0.31094   0.00000  Uiso   1.00
H34    H     0.24869   0.04985   0.29994   0.00000  Uiso   1.00
H35    H     0.18671   0.71373   0.23932   0.00000  Uiso   1.00
H36    H     0.57146   0.93057   0.35178   0.00000  Uiso   1.00
H37    H     0.17066   0.16384   0.32860   0.00000  Uiso   1.00
O38    O     0.12688   0.61948   0.29190   0.00000  Uiso   1.00
O39    O     0.63165   0.90398   0.43945   0.00000  Uiso   1.00
O40    O     0.10581   0.21003   0.40904   0.00000  Uiso   1.00
N41    N     0.16160   0.68993   0.35683   0.00000  Uiso   1.00
N42    N     0.52132   0.89265   0.46198   0.00000  Uiso   1.00
N43    N     0.14662   0.11075   0.44031   0.00000  Uiso   1.00
N44    N     0.18476   0.71671   0.27767   0.00000  Uiso   1.00
N45    N     0.54448   0.91943   0.38282   0.00000  Uiso   1.00
N46    N     0.16978   0.13753   0.36115   0.00000  Uiso   1.00
C47    C     0.77444   0.39541   0.92667   0.00000  Uiso   1.00
C48    C     0.74899   0.34533   0.88807   0.00000  Uiso   1.00
C49    C     0.71471   0.28830   0.89972   0.00000  Uiso   1.00
C50    C     0.69571   0.24893   0.85897   0.00000  Uiso   1.00
C51    C     0.65397   0.16855   0.80674   0.00000  Uiso   1.00
C52    C     0.84814   0.40119   0.91705   0.00000  Uiso   1.00
C53    C     0.89721   0.39113   0.95307   0.00000  Uiso   1.00
C54    C     0.96167   0.39880   0.93670   0.00000  Uiso   1.00
C55    C     0.07386   0.40519   0.92947   0.00000  Uiso   1.00
C56    C     0.74486   0.46129   0.91108   0.00000  Uiso   1.00
C57    C     0.70711   0.50178   0.94207   0.00000  Uiso   1.00
C58    C     0.68464   0.56005   0.92068   0.00000  Uiso   1.00
C59    C     0.63647   0.65976   0.90418   0.00000  Uiso   1.00
C60    C     0.80167   0.42691   0.83357   0.00000  Uiso   1.00
C61    C     0.76379   0.36244   0.83751   0.00000  Uiso   1.00
C62    C     0.74483   0.32315   0.79673   0.00000  Uiso   1.00
C63    C     0.71052   0.26607   0.80831   0.00000  Uiso   1.00
C64    C     0.86293   0.41830   0.86649   0.00000  Uiso   1.00
C65    C     0.92734   0.42598   0.85007   0.00000  Uiso   1.00
C66    C     0.97649   0.41593   0.88605   0.00000  Uiso   1.00
C67    C     0.75965   0.47840   0.86051   0.00000  Uiso   1.00
C68    C     0.73724   0.53662   0.83907   0.00000  Uiso   1.00
C69    C     0.69945   0.57719   0.87003   0.00000  Uiso   1.00
H70    H     0.76293   0.38209   0.96603   0.00000  Uiso   1.00
H71    H     0.70327   0.27508   0.93886   0.00000  Uiso   1.00
H72    H     0.88575   0.37790   0.99219   0.00000  Uiso   1.00
H73    H     0.69567   0.48853   0.98120   0.00000  Uiso   1.00
H74    H     0.64368   0.16396   0.88643   0.00000  Uiso   1.00
H75    H     0.02843   0.38080   0.99890   0.00000  Uiso   1.00
H76    H     0.62763   0.61407   0.97572   0.00000  Uiso   1.00
H77    H     0.81319   0.44023   0.79421   0.00000  Uiso   1.00
H78    H     0.75629   0.33640   0.75760   0.00000  Uiso   1.00
H79    H     0.93876   0.43922   0.81094   0.00000  Uiso   1.00
H80    H     0.74869   0.54985   0.79994   0.00000  Uiso   1.00
H81    H     0.68671   0.21373   0.73932   0.00000  Uiso   1.00
H82    H     0.07146   0.43057   0.85178   0.00000  Uiso   1.00
H83    H     0.67066   0.66384   0.82860   0.00000  Uiso   1.00
O84    O     0.62688   0.11948   0.79190   0.00000  Uiso   1.00
O85    O     0.13165   0.40398   0.93945   0.00000  Uiso   1.00
O86    O     0.60581   0.71003   0.90904   0.00000  Uiso   1.00
N87    N     0.66160   0.18993   0.85683   0.00000  Uiso   1.00
N88    N     0.02132   0.39265   0.96198   0.00000  Uiso   1.00
N89    N     0.64662   0.61075   0.94031   0.00000  Uiso   1.00
N90    N     0.68476   0.21671   0.77767   0.00000  Uiso   1.00
N91    N     0.04448   0.41943   0.88282   0.00000  Uiso   1.00
N92    N     0.66978   0.63753   0.86115   0.00000  Uiso   1.00
C93    C     0.22556   0.60459   0.92667   0.00000  Uiso   1.00
C94    C     0.25101   0.65467   0.88807   0.00000  Uiso   1.00
C95    C     0.28529   0.71170   0.89972   0.00000  Uiso   1.00
C96    C     0.30429   0.75107   0.85897   0.00000  Uiso   1.00
C97    C     0.34603   0.83145   0.80674   0.00000  Uiso   1.00
C98    C     0.15186   0.59881   0.91705   0.00000  Uiso   1.00
C99    C     0.10279   0.60887   0.95307   0.00000  Uiso   1.00
C100   C     0.03833   0.60120   0.93670   0.00000  Uiso   1.00
C101   C     0.92614   0.59481   0.92947   0.00000  Uiso   1.00
C102   C     0.25514   0.53871   0.91108   0.00000  Uiso   1.00
C103   C     0.29289   0.49822   0.94207   0.00000  Uiso   1.00
C104   C     0.31536   0.43995   0.92068   0.00000  Uiso   1.00
C105   C     0.36353   0.34024   0.90418   0.00000  Uiso   1.00
C106   C     0.19833   0.57309   0.83357   0.00000  Uiso   1.00
C107   C     0.23621   0.63756   0.83751   0.00000  Uiso   1.00
C108   C     0.25517   0.67685   0.79673   0.00000  Uiso   1.00
C109   C     0.28948   0.73393   0.80831   0.00000  Uiso   1.00
C110   C     0.13707   0.58170   0.86649   0.00000  Uiso   1.00
C111   C     0.07266   0.57402   0.85007   0.00000  Uiso   1.00
C112   C     0.02351   0.58407   0.88605   0.00000  Uiso   1.00
C113   C     0.24035   0.52160   0.86051   0.00000  Uiso   1.00
C114   C     0.26276   0.46338   0.83907   0.00000  Uiso   1.00
C115   C     0.30055   0.42281   0.87003   0.00000  Uiso   1.00
H116   H     0.23707   0.61791   0.96603   0.00000  Uiso   1.00
H117   H     0.29673   0.72492   0.93886   0.00000  Uiso   1.00
H118   H     0.11425   0.62210   0.99219   0.00000  Uiso   1.00
H119   H     0.30433   0.51147   0.98120   0.00000  Uiso   1.00
H120   H     0.35632   0.83604   0.88643   0.00000  Uiso   1.00
H121   H     0.97157   0.61920   0.99890   0.00000  Uiso   1.00
H122   H     0.37237   0.38593   0.97572   0.00000  Uiso   1.00
H123   H     0.18681   0.55977   0.79421   0.00000  Uiso   1.00
H124   H     0.24371   0.66360   0.75760   0.00000  Uiso   1.00
H125   H     0.06124   0.56078   0.81094   0.00000  Uiso   1.00
H126   H     0.25131   0.45015   0.79994   0.00000  Uiso   1.00
H127   H     0.31329   0.78627   0.73932   0.00000  Uiso   1.00
H128   H     0.92854   0.56943   0.85178   0.00000  Uiso   1.00
H129   H     0.32934   0.33616   0.82860   0.00000  Uiso   1.00
O130   O     0.37312   0.88052   0.79190   0.00000  Uiso   1.00
O131   O     0.86835   0.59602   0.93945   0.00000  Uiso   1.00
O132   O     0.39419   0.28997   0.90904   0.00000  Uiso   1.00
N133   N     0.33840   0.81007   0.85683   0.00000  Uiso   1.00
N134   N     0.97868   0.60735   0.96198   0.00000  Uiso   1.00
N135   N     0.35338   0.38925   0.94031   0.00000  Uiso   1.00
N136   N     0.31524   0.78329   0.77767   0.00000  Uiso   1.00
N137   N     0.95552   0.58057   0.88282   0.00000  Uiso   1.00
N138   N     0.33022   0.36247   0.86115   0.00000  Uiso   1.00
C139   C     0.72556   0.10459   0.42667   0.00000  Uiso   1.00
C140   C     0.75101   0.15467   0.38807   0.00000  Uiso   1.00
C141   C     0.78529   0.21170   0.39972   0.00000  Uiso   1.00
C142   C     0.80429   0.25107   0.35897   0.00000  Uiso   1.00
C143   C     0.84603   0.33145   0.30674   0.00000  Uiso   1.00
C144   C     0.65186   0.09881   0.41705   0.00000  Uiso   1.00
C145   C     0.60279   0.10887   0.45307   0.00000  Uiso   1.00
C146   C     0.53833   0.10120   0.43670   0.00000  Uiso   1.00
C147   C     0.42614   0.09481   0.42947   0.00000  Uiso   1.00
C148   C     0.75514   0.03871   0.41108   0.00000  Uiso   1.00
C149   C     0.79289   0.99822   0.44207   0.00000  Uiso   1.00
C150   C     0.81536   0.93995   0.42068   0.00000  Uiso   1.00
C151   C     0.86353   0.84024   0.40418   0.00000  Uiso   1.00
C152   C     0.69833   0.07309   0.33357   0.00000  Uiso   1.00
C153   C     0.73621   0.13756   0.33751   0.00000  Uiso   1.00
C154   C     0.75517   0.17685   0.29673   0.00000  Uiso   1.00
C155   C     0.78948   0.23393   0.30831   0.00000  Uiso   1.00
C156   C     0.63707   0.08170   0.36649   0.00000  Uiso   1.00
C157   C     0.57266   0.07402   0.35007   0.00000  Uiso   1.00
C158   C     0.52351   0.08407   0.38605   0.00000  Uiso   1.00
C159   C     0.74035   0.02160   0.36051   0.00000  Uiso   1.00
C160   C     0.76276   0.96338   0.33907   0.00000  Uiso   1.00
C161   C     0.80055   0.92281   0.37003   0.00000  Uiso   1.00
H162   H     0.73707   0.11791   0.46603   0.00000  Uiso   1.00
H163   H     0.79673   0.22492   0.43886   0.00000  Uiso   1.00
H164   H     0.61425   0.12210   0.49219   0.00000  Uiso   1.00
H165   H     0.80433   0.01147   0.48120   0.00000  Uiso   1.00
H166   H     0.85632   0.33604   0.38643   0.00000  Uiso   1.00
H167   H     0.47157   0.11920   0.49890   0.00000  Uiso   1.00
H168   H     0.87237   0.88593   0.47572   0.00000  Uiso   1.00
H169   H     0.68681   0.05977   0.29421   0.00000  Uiso   1.00
H170   H     0.74371   0.16360   0.25760   0.00000  Uiso   1.00
H171   H     0.56124   0.06078   0.31094   0.00000  Uiso   1.00
H172   H     0.75131   0.95015   0.29994   0.00000  Uiso   1.00
H173   H     0.81329   0.28627   0.23932   0.00000  Uiso   1.00
H174   H     0.42854   0.06943   0.35178   0.00000  Uiso   1.00
H175   H     0.82934   0.83616   0.32860   0.00000  Uiso   1.00
O176   O     0.87312   0.38052   0.29190   0.00000  Uiso   1.00
O177   O     0.36835   0.09602   0.43945   0.00000  Uiso   1.00
O178   O     0.89419   0.78997   0.40904   0.00000  Uiso   1.00
N179   N     0.83840   0.31007   0.35683   0.00000  Uiso   1.00
N180   N     0.47868   0.10735   0.46198   0.00000  Uiso   1.00
N181   N     0.85338   0.88925   0.44031   0.00000  Uiso   1.00
N182   N     0.81524   0.28329   0.27767   0.00000  Uiso   1.00
N183   N     0.45552   0.08057   0.38282   0.00000  Uiso   1.00
N184   N     0.83022   0.86247   0.36115   0.00000  Uiso   1.00
C185   C     0.10459   0.77444   0.67667   0.00000  Uiso   1.00
C186   C     0.15467   0.74899   0.63807   0.00000  Uiso   1.00
C187   C     0.21170   0.71471   0.64972   0.00000  Uiso   1.00
C188   C     0.25107   0.69571   0.60897   0.00000  Uiso   1.00
C189   C     0.33145   0.65397   0.55674   0.00000  Uiso   1.00
C190   C     0.09881   0.84814   0.66705   0.00000  Uiso   1.00
C191   C     0.10887   0.89721   0.70307   0.00000  Uiso   1.00
C192   C     0.10120   0.96167   0.68670   0.00000  Uiso   1.00
C193   C     0.09481   0.07386   0.67947   0.00000  Uiso   1.00
C194   C     0.03871   0.74486   0.66108   0.00000  Uiso   1.00
C195   C     0.99822   0.70711   0.69207   0.00000  Uiso   1.00
C196   C     0.93995   0.68464   0.67068   0.00000  Uiso   1.00
C197   C     0.84024   0.63647   0.65418   0.00000  Uiso   1.00
C198   C     0.07309   0.80167   0.58357   0.00000  Uiso   1.00
C199   C     0.13756   0.76379   0.58751   0.00000  Uiso   1.00
C200   C     0.17685   0.74483   0.54673   0.00000  Uiso   1.00
C201   C     0.23393   0.71052   0.55831   0.00000  Uiso   1.00
C202   C     0.08170   0.86293   0.61649   0.00000  Uiso   1.00
C203   C     0.07402   0.92734   0.60007   0.00000  Uiso   1.00
C204   C     0.08407   0.97649   0.63605   0.00000  Uiso   1.00
C205   C     0.02160   0.75965   0.61051   0.00000  Uiso   1.00
C206   C     0.96338   0.73724   0.58907   0.00000  Uiso   1.00
C207   C     0.92281   0.69945   0.62003   0.00000  Uiso   1.00
H208   H     0.11791   0.76293   0.71603   0.00000  Uiso   1.00
H209   H     0.22492   0.70327   0.68886   0.00000  Uiso   1.00
H210   H     0.12210   0.88575   0.74219   0.00000  Uiso   1.00
H211   H     0.01147   0.69567   0.73120   0.00000  Uiso   1.00
H212   H     0.33604   0.64368   0.63643   0.00000  Uiso   1.00
H213   H     0.11920   0.02843   0.74890   0.00000  Uiso   1.00
H214   H     0.88593   0.62763   0.72572   0.00000  Uiso   1.00
H215   H     0.05977   0.81319   0.54421   0.00000  Uiso   1.00
H216   H     0.16360   0.75629   0.50760   0.00000  Uiso   1.00
H217   H     0.06078   0.93876   0.56094   0.00000  Uiso   1.00
H218   H     0.95015   0.74869   0.54994   0.00000  Uiso   1.00
H219   H     0.28627   0.68671   0.48932   0.00000  Uiso   1.00
H220   H     0.06943   0.07146   0.60178   0.00000  Uiso   1.00
H221   H     0.83616   0.67066   0.57860   0.00000  Uiso   1.00
O222   O     0.38052   0.62688   0.54190   0.00000  Uiso   1.00
O223   O     0.09602   0.13165   0.68945   0.00000  Uiso   1.00
O224   O     0.78997   0.60581   0.65904   0.00000  Uiso   1.00
N225   N     0.31007   0.66160   0.60683   0.00000  Uiso   1.00
N226   N     0.10735   0.02132   0.71198   0.00000  Uiso   1.00
N227   N     0.88925   0.64662   0.69031   0.00000  Uiso   1.00
N228   N     0.28329   0.68476   0.52767   0.00000  Uiso   1.00
N229   N     0.08057   0.04448   0.63282   0.00000  Uiso   1.00
N230   N     0.86247   0.66978   0.61115   0.00000  Uiso   1.00
C231   C     0.60459   0.27444   0.17667   0.00000  Uiso   1.00
C232   C     0.65467   0.24899   0.13807   0.00000  Uiso   1.00
C233   C     0.71170   0.21471   0.14972   0.00000  Uiso   1.00
C234   C     0.75107   0.19571   0.10897   0.00000  Uiso   1.00
C235   C     0.83145   0.15397   0.05674   0.00000  Uiso   1.00
C236   C     0.59881   0.34814   0.16705   0.00000  Uiso   1.00
C237   C     0.60887   0.39721   0.20307   0.00000  Uiso   1.00
C238   C     0.60120   0.46167   0.18670   0.00000  Uiso   1.00
C239   C     0.59481   0.57386   0.17947   0.00000  Uiso   1.00
C240   C     0.53871   0.24486   0.16108   0.00000  Uiso   1.00
C241   C     0.49822   0.20711   0.19207   0.00000  Uiso   1.00
C242   C     0.43995   0.18464   0.17068   0.00000  Uiso   1.00
C243   C     0.34024   0.13647   0.15418   0.00000  Uiso   1.00
C244   C     0.57309   0.30167   0.08357   0.00000  Uiso   1.00
C245   C     0.63756   0.26379   0.08751   0.00000  Uiso   1.00
C246   C     0.67685   0.24483   0.04673   0.00000  Uiso   1.00
C247   C     0.73393   0.21052   0.05831   0.00000  Uiso   1.00
C248   C     0.58170   0.36293   0.11649   0.00000  Uiso   1.00
C249   C     0.57402   0.42734   0.10007   0.00000  Uiso   1.00
C250   C     0.58407   0.47649   0.13605   0.00000  Uiso   1.00
C251   C     0.52160   0.25965   0.11051   0.00000  Uiso   1.00
C252   C     0.46338   0.23724   0.08907   0.00000  Uiso   1.00
C253   C     0.42281   0.19945   0.12003   0.00000  Uiso   1.00
H254   H     0.61791   0.26293   0.21603   0.00000  Uiso   1.00
H255   H     0.72492   0.20327   0.18886   0.00000  Uiso   1.00
H256   H     0.62210   0.38575   0.24219   0.00000  Uiso   1.00
H257   H     0.51147   0.19567   0.23120   0.00000  Uiso   1.00
H258   H     0.83604   0.14368   0.13643   0.00000  Uiso   1.00
H259   H     0.61920   0.52843   0.24890   0.00000  Uiso   1.00
H260   H     0.38593   0.12763   0.22572   0.00000  Uiso   1.00
H261   H     0.55977   0.31319   0.04421   0.00000  Uiso   1.00
H262   H     0.66360   0.25629   0.00760   0.00000  Uiso   1.00
H263   H     0.56078   0.43876   0.06094   0.00000  Uiso   1.00
H264   H     0.45015   0.24869   0.04994   0.00000  Uiso   1.00
H265   H     0.78627   0.18671   0.98932   0.00000  Uiso   1.00
H266   H     0.56943   0.57146   0.10178   0.00000  Uiso   1.00
H267   H     0.33616   0.17066   0.07860   0.00000  Uiso   1.00
O268   O     0.88052   0.12688   0.04190   0.00000  Uiso   1.00
O269   O     0.59602   0.63165   0.18945   0.00000  Uiso   1.00
O270   O     0.28997   0.10581   0.15904   0.00000  Uiso   1.00
N271   N     0.81007   0.16160   0.10683   0.00000  Uiso   1.00
N272   N     0.60735   0.52132   0.21198   0.00000  Uiso   1.00
N273   N     0.38925   0.14662   0.19031   0.00000  Uiso   1.00
N274   N     0.78329   0.18476   0.02767   0.00000  Uiso   1.00
N275   N     0.58057   0.54448   0.13282   0.00000  Uiso   1.00
N276   N     0.36247   0.16978   0.11115   0.00000  Uiso   1.00
C277   C     0.39541   0.72556   0.17667   0.00000  Uiso   1.00
C278   C     0.34533   0.75101   0.13807   0.00000  Uiso   1.00
C279   C     0.28830   0.78529   0.14972   0.00000  Uiso   1.00
C280   C     0.24893   0.80429   0.10897   0.00000  Uiso   1.00
C281   C     0.16855   0.84603   0.05674   0.00000  Uiso   1.00
C282   C     0.40119   0.65186   0.16705   0.00000  Uiso   1.00
C283   C     0.39113   0.60279   0.20307   0.00000  Uiso   1.00
C284   C     0.39880   0.53833   0.18670   0.00000  Uiso   1.00
C285   C     0.40519   0.42614   0.17947   0.00000  Uiso   1.00
C286   C     0.46129   0.75514   0.16108   0.00000  Uiso   1.00
C287   C     0.50178   0.79289   0.19207   0.00000  Uiso   1.00
C288   C     0.56005   0.81536   0.17068   0.00000  Uiso   1.00
C289   C     0.65976   0.86353   0.15418   0.00000  Uiso   1.00
C290   C     0.42691   0.69833   0.08357   0.00000  Uiso   1.00
C291   C     0.36244   0.73621   0.08751   0.00000  Uiso   1.00
C292   C     0.32315   0.75517   0.04673   0.00000  Uiso   1.00
C293   C     0.26607   0.78948   0.05831   0.00000  Uiso   1.00
C294   C     0.41830   0.63707   0.11649   0.00000  Uiso   1.00
C295   C     0.42598   0.57266   0.10007   0.00000  Uiso   1.00
C296   C     0.41593   0.52351   0.13605   0.00000  Uiso   1.00
C297   C     0.47840   0.74035   0.11051   0.00000  Uiso   1.00
C298   C     0.53662   0.76276   0.08907   0.00000  Uiso   1.00
C299   C     0.57719   0.80055   0.12003   0.00000  Uiso   1.00
H300   H     0.38209   0.73707   0.21603   0.00000  Uiso   1.00
H301   H     0.27508   0.79673   0.18886   0.00000  Uiso   1.00
H302   H     0.37790   0.61425   0.24219   0.00000  Uiso   1.00
H303   H     0.48853   0.80433   0.23120   0.00000  Uiso   1.00
H304   H     0.16396   0.85632   0.13643   0.00000  Uiso   1.00
H305   H     0.38080   0.47157   0.24890   0.00000  Uiso   1.00
H306   H     0.61407   0.87237   0.22572   0.00000  Uiso   1.00
H307   H     0.44023   0.68681   0.04421   0.00000  Uiso   1.00
H308   H     0.33640   0.74371   0.00760   0.00000  Uiso   1.00
H309   H     0.43922   0.56124   0.06094   0.00000  Uiso   1.00
H310   H     0.54985   0.75131   0.04994   0.00000  Uiso   1.00
H311   H     0.21373   0.81329   0.98932   0.00000  Uiso   1.00
H312   H     0.43057   0.42854   0.10178   0.00000  Uiso   1.00
H313   H     0.66384   0.82934   0.07860   0.00000  Uiso   1.00
O314   O     0.11948   0.87312   0.04190   0.00000  Uiso   1.00
O315   O     0.40398   0.36835   0.18945   0.00000  Uiso   1.00
O316   O     0.71003   0.89419   0.15904   0.00000  Uiso   1.00
N317   N     0.18993   0.83840   0.10683   0.00000  Uiso   1.00
N318   N     0.39265   0.47868   0.21198   0.00000  Uiso   1.00
N319   N     0.61075   0.85338   0.19031   0.00000  Uiso   1.00
N320   N     0.21671   0.81524   0.02767   0.00000  Uiso   1.00
N321   N     0.41943   0.45552   0.13282   0.00000  Uiso   1.00
N322   N     0.63753   0.83022   0.11115   0.00000  Uiso   1.00
C323   C     0.89541   0.22556   0.67667   0.00000  Uiso   1.00
C324   C     0.84533   0.25101   0.63807   0.00000  Uiso   1.00
C325   C     0.78830   0.28529   0.64972   0.00000  Uiso   1.00
C326   C     0.74893   0.30429   0.60897   0.00000  Uiso   1.00
C327   C     0.66855   0.34603   0.55674   0.00000  Uiso   1.00
C328   C     0.90119   0.15186   0.66705   0.00000  Uiso   1.00
C329   C     0.89113   0.10279   0.70307   0.00000  Uiso   1.00
C330   C     0.89880   0.03833   0.68670   0.00000  Uiso   1.00
C331   C     0.90519   0.92614   0.67947   0.00000  Uiso   1.00
C332   C     0.96129   0.25514   0.66108   0.00000  Uiso   1.00
C333   C     0.00178   0.29289   0.69207   0.00000  Uiso   1.00
C334   C     0.06005   0.31536   0.67068   0.00000  Uiso   1.00
C335   C     0.15976   0.36353   0.65418   0.00000  Uiso   1.00
C336   C     0.92691   0.19833   0.58357   0.00000  Uiso   1.00
C337   C     0.86244   0.23621   0.58751   0.00000  Uiso   1.00
C338   C     0.82315   0.25517   0.54673   0.00000  Uiso   1.00
C339   C     0.76607   0.28948   0.55831   0.00000  Uiso   1.00
C340   C     0.91830   0.13707   0.61649   0.00000  Uiso   1.00
C341   C     0.92598   0.07266   0.60007   0.00000  Uiso   1.00
C342   C     0.91593   0.02351   0.63605   0.00000  Uiso   1.00
C343   C     0.97840   0.24035   0.61051   0.00000  Uiso   1.00
C344   C     0.03662   0.26276   0.58907   0.00000  Uiso   1.00
C345   C     0.07719   0.30055   0.62003   0.00000  Uiso   1.00
H346   H     0.88209   0.23707   0.71603   0.00000  Uiso   1.00
H347   H     0.77508   0.29673   0.68886   0.00000  Uiso   1.00
H348   H     0.87790   0.11425   0.74219   0.00000  Uiso   1.00
H349   H     0.98853   0.30433   0.73120   0.00000  Uiso   1.00
H350   H     0.66396   0.35632   0.63643   0.00000  Uiso   1.00
H351   H     0.88080   0.97157   0.74890   0.00000  Uiso   1.00
H352   H     0.11407   0.37237   0.72572   0.00000  Uiso   1.00
H353   H     0.94023   0.18681   0.54421   0.00000  Uiso   1.00
H354   H     0.83640   0.24371   0.50760   0.00000  Uiso   1.00
H355   H     0.93922   0.06124   0.56094   0.00000  Uiso   1.00
H356   H     0.04985   0.25131   0.54994   0.00000  Uiso   1.00
H357   H     0.71373   0.31329   0.48932   0.00000  Uiso   1.00
H358   H     0.93057   0.92854   0.60178   0.00000  Uiso   1.00
H359   H     0.16384   0.32934   0.57860   0.00000  Uiso   1.00
O360   O     0.61948   0.37312   0.54190   0.00000  Uiso   1.00
O361   O     0.90398   0.86835   0.68945   0.00000  Uiso   1.00
O362   O     0.21003   0.39419   0.65904   0.00000  Uiso   1.00
N363   N     0.68993   0.33840   0.60683   0.00000  Uiso   1.00
N364   N     0.89265   0.97868   0.71198   0.00000  Uiso   1.00
N365   N     0.11075   0.35338   0.69031   0.00000  Uiso   1.00
N366   N     0.71671   0.31524   0.52767   0.00000  Uiso   1.00
N367   N     0.91943   0.95552   0.63282   0.00000  Uiso   1.00
N368   N     0.13753   0.33022   0.61115   0.00000  Uiso   1.00
C369   C     0.27444   0.10459   0.92667   0.00000  Uiso   1.00
C370   C     0.24899   0.15467   0.88807   0.00000  Uiso   1.00
C371   C     0.21471   0.21170   0.89972   0.00000  Uiso   1.00
C372   C     0.19571   0.25107   0.85897   0.00000  Uiso   1.00
C373   C     0.15397   0.33145   0.80674   0.00000  Uiso   1.00
C374   C     0.34814   0.09881   0.91705   0.00000  Uiso   1.00
C375   C     0.39721   0.10887   0.95307   0.00000  Uiso   1.00
C376   C     0.46167   0.10120   0.93670   0.00000  Uiso   1.00
C377   C     0.57386   0.09481   0.92947   0.00000  Uiso   1.00
C378   C     0.24486   0.03871   0.91108   0.00000  Uiso   1.00
C379   C     0.20711   0.99822   0.94207   0.00000  Uiso   1.00
C380   C     0.18464   0.93995   0.92068   0.00000  Uiso   1.00
C381   C     0.13647   0.84024   0.90418   0.00000  Uiso   1.00
C382   C     0.30167   0.07309   0.83357   0.00000  Uiso   1.00
C383   C     0.26379   0.13756   0.83751   0.00000  Uiso   1.00
C384   C     0.24483   0.17685   0.79673   0.00000  Uiso   1.00
C385   C     0.21052   0.23393   0.80831   0.00000  Uiso   1.00
C386   C     0.36293   0.08170   0.86649   0.00000  Uiso   1.00
C387   C     0.42734   0.07402   0.85007   0.00000  Uiso   1.00
C388   C     0.47649   0.08407   0.88605   0.00000  Uiso   1.00
C389   C     0.25965   0.02160   0.86051   0.00000  Uiso   1.00
C390   C     0.23724   0.96338   0.83907   0.00000  Uiso   1.00
C391   C     0.19945   0.92281   0.87003   0.00000  Uiso   1.00
H392   H     0.26293   0.11791   0.96603   0.00000  Uiso   1.00
H393   H     0.20327   0.22492   0.93886   0.00000  Uiso   1.00
H394   H     0.38575   0.12210   0.99219   0.00000  Uiso   1.00
H395   H     0.19567   0.01147   0.98120   0.00000  Uiso   1.00
H396   H     0.14368   0.33604   0.88643   0.00000  Uiso   1.00
H397   H     0.52843   0.11920   0.99890   0.00000  Uiso   1.00
H398   H     0.12763   0.88593   0.97572   0.00000  Uiso   1.00
H399   H     0.31319   0.05977   0.79421   0.00000  Uiso   1.00
H400   H     0.25629   0.16360   0.75760   0.00000  Uiso   1.00
H401   H     0.43876   0.06078   0.81094   0.00000  Uiso   1.00
H402   H     0.24869   0.95015   0.79994   0.00000  Uiso   1.00
H403   H     0.18671   0.28627   0.73932   0.00000  Uiso   1.00
H404   H     0.57146   0.06943   0.85178   0.00000  Uiso   1.00
H405   H     0.17066   0.83616   0.82860   0.00000  Uiso   1.00
O406   O     0.12688   0.38052   0.79190   0.00000  Uiso   1.00
O407   O     0.63165   0.09602   0.93945   0.00000  Uiso   1.00
O408   O     0.10581   0.78997   0.90904   0.00000  Uiso   1.00
N409   N     0.16160   0.31007   0.85683   0.00000  Uiso   1.00
N410   N     0.52132   0.10735   0.96198   0.00000  Uiso   1.00
N411   N     0.14662   0.88925   0.94031   0.00000  Uiso   1.00
N412   N     0.18476   0.28329   0.77767   0.00000  Uiso   1.00
N413   N     0.54448   0.08057   0.88282   0.00000  Uiso   1.00
N414   N     0.16978   0.86247   0.86115   0.00000  Uiso   1.00
C415   C     0.77444   0.60459   0.42667   0.00000  Uiso   1.00
C416   C     0.74899   0.65467   0.38807   0.00000  Uiso   1.00
C417   C     0.71471   0.71170   0.39972   0.00000  Uiso   1.00
C418   C     0.69571   0.75107   0.35897   0.00000  Uiso   1.00
C419   C     0.65397   0.83145   0.30674   0.00000  Uiso   1.00
C420   C     0.84814   0.59881   0.41705   0.00000  Uiso   1.00
C421   C     0.89721   0.60887   0.45307   0.00000  Uiso   1.00
C422   C     0.96167   0.60120   0.43670   0.00000  Uiso   1.00
C423   C     0.07386   0.59481   0.42947   0.00000  Uiso   1.00
C424   C     0.74486   0.53871   0.41108   0.00000  Uiso   1.00
C425   C     0.70711   0.49822   0.44207   0.00000  Uiso   1.00
C426   C     0.68464   0.43995   0.42068   0.00000  Uiso   1.00
C427   C     0.63647   0.34024   0.40418   0.00000  Uiso   1.00
C428   C     0.80167   0.57309   0.33357   0.00000  Uiso   1.00
C429   C     0.76379   0.63756   0.33751   0.00000  Uiso   1.00
C430   C     0.74483   0.67685   0.29673   0.00000  Uiso   1.00
C431   C     0.71052   0.73393   0.30831   0.00000  Uiso   1.00
C432   C     0.86293   0.58170   0.36649   0.00000  Uiso   1.00
C433   C     0.92734   0.57402   0.35007   0.00000  Uiso   1.00
C434   C     0.97649   0.58407   0.38605   0.00000  Uiso   1.00
C435   C     0.75965   0.52160   0.36051   0.00000  Uiso   1.00
C436   C     0.73724   0.46338   0.33907   0.00000  Uiso   1.00
C437   C     0.69945   0.42281   0.37003   0.00000  Uiso   1.00
H438   H     0.76293   0.61791   0.46603   0.00000  Uiso   1.00
H439   H     0.70327   0.72492   0.43886   0.00000  Uiso   1.00
H440   H     0.88575   0.62210   0.49219   0.00000  Uiso   1.00
H441   H     0.69567   0.51147   0.48120   0.00000  Uiso   1.00
H442   H     0.64368   0.83604   0.38643   0.00000  Uiso   1.00
H443   H     0.02843   0.61920   0.49890   0.00000  Uiso   1.00
H444   H     0.62763   0.38593   0.47572   0.00000  Uiso   1.00
H445   H     0.81319   0.55977   0.29421   0.00000  Uiso   1.00
H446   H     0.75629   0.66360   0.25760   0.00000  Uiso   1.00
H447   H     0.93876   0.56078   0.31094   0.00000  Uiso   1.00
H448   H     0.74869   0.45015   0.29994   0.00000  Uiso   1.00
H449   H     0.68671   0.78627   0.23932   0.00000  Uiso   1.00
H450   H     0.07146   0.56943   0.35178   0.00000  Uiso   1.00
H451   H     0.67066   0.33616   0.32860   0.00000  Uiso   1.00
O452   O     0.62688   0.88052   0.29190   0.00000  Uiso   1.00
O453   O     0.13165   0.59602   0.43945   0.00000  Uiso   1.00
O454   O     0.60581   0.28997   0.40904   0.00000  Uiso   1.00
N455   N     0.66160   0.81007   0.35683   0.00000  Uiso   1.00
N456   N     0.02132   0.60735   0.46198   0.00000  Uiso   1.00
N457   N     0.64662   0.38925   0.44031   0.00000  Uiso   1.00
N458   N     0.68476   0.78329   0.27767   0.00000  Uiso   1.00
N459   N     0.04448   0.58057   0.38282   0.00000  Uiso   1.00
N460   N     0.66978   0.36247   0.36115   0.00000  Uiso   1.00
C461   C     0.22556   0.39541   0.42667   0.00000  Uiso   1.00
C462   C     0.25101   0.34533   0.38807   0.00000  Uiso   1.00
C463   C     0.28529   0.28830   0.39972   0.00000  Uiso   1.00
C464   C     0.30429   0.24893   0.35897   0.00000  Uiso   1.00
C465   C     0.34603   0.16855   0.30674   0.00000  Uiso   1.00
C466   C     0.15186   0.40119   0.41705   0.00000  Uiso   1.00
C467   C     0.10279   0.39113   0.45307   0.00000  Uiso   1.00
C468   C     0.03833   0.39880   0.43670   0.00000  Uiso   1.00
C469   C     0.92614   0.40519   0.42947   0.00000  Uiso   1.00
C470   C     0.25514   0.46129   0.41108   0.00000  Uiso   1.00
C471   C     0.29289   0.50178   0.44207   0.00000  Uiso   1.00
C472   C     0.31536   0.56005   0.42068   0.00000  Uiso   1.00
C473   C     0.36353   0.65976   0.40418   0.00000  Uiso   1.00
C474   C     0.19833   0.42691   0.33357   0.00000  Uiso   1.00
C475   C     0.23621   0.36244   0.33751   0.00000  Uiso   1.00
C476   C     0.25517   0.32315   0.29673   0.00000  Uiso   1.00
C477   C     0.28948   0.26607   0.30831   0.00000  Uiso   1.00
C478   C     0.13707   0.41830   0.36649   0.00000  Uiso   1.00
C479   C     0.07266   0.42598   0.35007   0.00000  Uiso   1.00
C480   C     0.02351   0.41593   0.38605   0.00000  Uiso   1.00
C481   C     0.24035   0.47840   0.36051   0.00000  Uiso   1.00
C482   C     0.26276   0.53662   0.33907   0.00000  Uiso   1.00
C483   C     0.30055   0.57719   0.37003   0.00000  Uiso   1.00
H484   H     0.23707   0.38209   0.46603   0.00000  Uiso   1.00
H485   H     0.29673   0.27508   0.43886   0.00000  Uiso   1.00
H486   H     0.11425   0.37790   0.49219   0.00000  Uiso   1.00
H487   H     0.30433   0.48853   0.48120   0.00000  Uiso   1.00
H488   H     0.35632   0.16396   0.38643   0.00000  Uiso   1.00
H489   H     0.97157   0.38080   0.49890   0.00000  Uiso   1.00
H490   H     0.37237   0.61407   0.47572   0.00000  Uiso   1.00
H491   H     0.18681   0.44023   0.29421   0.00000  Uiso   1.00
H492   H     0.24371   0.33640   0.25760   0.00000  Uiso   1.00
H493   H     0.06124   0.43922   0.31094   0.00000  Uiso   1.00
H494   H     0.25131   0.54985   0.29994   0.00000  Uiso   1.00
H495   H     0.31329   0.21373   0.23932   0.00000  Uiso   1.00
H496   H     0.92854   0.43057   0.35178   0.00000  Uiso   1.00
H497   H     0.32934   0.66384   0.32860   0.00000  Uiso   1.00
O498   O     0.37312   0.11948   0.29190   0.00000  Uiso   1.00
O499   O     0.86835   0.40398   0.43945   0.00000  Uiso   1.00
O500   O     0.39419   0.71003   0.40904   0.00000  Uiso   1.00
N501   N     0.33840   0.18993   0.35683   0.00000  Uiso   1.00
N502   N     0.97868   0.39265   0.46198   0.00000  Uiso   1.00
N503   N     0.35338   0.61075   0.44031   0.00000  Uiso   1.00
N504   N     0.31524   0.21671   0.27767   0.00000  Uiso   1.00
N505   N     0.95552   0.41943   0.38282   0.00000  Uiso   1.00
N506   N     0.33022   0.63753   0.36115   0.00000  Uiso   1.00
C507   C     0.72556   0.89541   0.92667   0.00000  Uiso   1.00
C508   C     0.75101   0.84533   0.88807   0.00000  Uiso   1.00
C509   C     0.78529   0.78830   0.89972   0.00000  Uiso   1.00
C510   C     0.80429   0.74893   0.85897   0.00000  Uiso   1.00
C511   C     0.84603   0.66855   0.80674   0.00000  Uiso   1.00
C512   C     0.65186   0.90119   0.91705   0.00000  Uiso   1.00
C513   C     0.60279   0.89113   0.95307   0.00000  Uiso   1.00
C514   C     0.53833   0.89880   0.93670   0.00000  Uiso   1.00
C515   C     0.42614   0.90519   0.92947   0.00000  Uiso   1.00
C516   C     0.75514   0.96129   0.91108   0.00000  Uiso   1.00
C517   C     0.79289   0.00178   0.94207   0.00000  Uiso   1.00
C518   C     0.81536   0.06005   0.92068   0.00000  Uiso   1.00
C519   C     0.86353   0.15976   0.90418   0.00000  Uiso   1.00
C520   C     0.69833   0.92691   0.83357   0.00000  Uiso   1.00
C521   C     0.73621   0.86244   0.83751   0.00000  Uiso   1.00
C522   C     0.75517   0.82315   0.79673   0.00000  Uiso   1.00
C523   C     0.78948   0.76607   0.80831   0.00000  Uiso   1.00
C524   C     0.63707   0.91830   0.86649   0.00000  Uiso   1.00
C525   C     0.57266   0.92598   0.85007   0.00000  Uiso   1.00
C526   C     0.52351   0.91593   0.88605   0.00000  Uiso   1.00
C527   C     0.74035   0.97840   0.86051   0.00000  Uiso   1.00
C528   C     0.76276   0.03662   0.83907   0.00000  Uiso   1.00
C529   C     0.80055   0.07719   0.87003   0.00000  Uiso   1.00
H530   H     0.73707   0.88209   0.96603   0.00000  Uiso   1.00
H531   H     0.79673   0.77508   0.93886   0.00000  Uiso   1.00
H532   H     0.61425   0.87790   0.99219   0.00000  Uiso   1.00
H533   H     0.80433   0.98853   0.98120   0.00000  Uiso   1.00
H534   H     0.85632   0.66396   0.88643   0.00000  Uiso   1.00
H535   H     0.47157   0.88080   0.99890   0.00000  Uiso   1.00
H536   H     0.87237   0.11407   0.97572   0.00000  Uiso   1.00
H537   H     0.68681   0.94023   0.79421   0.00000  Uiso   1.00
H538   H     0.74371   0.83640   0.75760   0.00000  Uiso   1.00
H539   H     0.56124   0.93922   0.81094   0.00000  Uiso   1.00
H540   H     0.75131   0.04985   0.79994   0.00000  Uiso   1.00
H541   H     0.81329   0.71373   0.73932   0.00000  Uiso   1.00
H542   H     0.42854   0.93057   0.85178   0.00000  Uiso   1.00
H543   H     0.82934   0.16384   0.82860   0.00000  Uiso   1.00
O544   O     0.87312   0.61948   0.79190   0.00000  Uiso   1.00
O545   O     0.36835   0.90398   0.93945   0.00000  Uiso   1.00
O546   O     0.89419   0.21003   0.90904   0.00000  Uiso   1.00
N547   N     0.83840   0.68993   0.85683   0.00000  Uiso   1.00
N548   N     0.47868   0.89265   0.96198   0.00000  Uiso   1.00
N549   N     0.85338   0.11075   0.94031   0.00000  Uiso   1.00
N550   N     0.81524   0.71671   0.77767   0.00000  Uiso   1.00
N551   N     0.45552   0.91943   0.88282   0.00000  Uiso   1.00
N552   N     0.83022   0.13753   0.86115   0.00000  Uiso   1.00
C553   C     0.10459   0.22556   0.17667   0.00000  Uiso   1.00
C554   C     0.15467   0.25101   0.13807   0.00000  Uiso   1.00
C555   C     0.21170   0.28529   0.14972   0.00000  Uiso   1.00
C556   C     0.25107   0.30429   0.10897   0.00000  Uiso   1.00
C557   C     0.33145   0.34603   0.05674   0.00000  Uiso   1.00
C558   C     0.09881   0.15186   0.16705   0.00000  Uiso   1.00
C559   C     0.10887   0.10279   0.20307   0.00000  Uiso   1.00
C560   C     0.10120   0.03833   0.18670   0.00000  Uiso   1.00
C561   C     0.09481   0.92614   0.17947   0.00000  Uiso   1.00
C562   C     0.03871   0.25514   0.16108   0.00000  Uiso   1.00
C563   C     0.99822   0.29289   0.19207   0.00000  Uiso   1.00
C564   C     0.93995   0.31536   0.17068   0.00000  Uiso   1.00
C565   C     0.84024   0.36353   0.15418   0.00000  Uiso   1.00
C566   C     0.07309   0.19833   0.08357   0.00000  Uiso   1.00
C567   C     0.13756   0.23621   0.08751   0.00000  Uiso   1.00
C568   C     0.17685   0.25517   0.04673   0.00000  Uiso   1.00
C569   C     0.23393   0.28948   0.05831   0.00000  Uiso   1.00
C570   C     0.08170   0.13707   0.11649   0.00000  Uiso   1.00
C571   C     0.07402   0.07266   0.10007   0.00000  Uiso   1.00
C572   C     0.08407   0.02351   0.13605   0.00000  Uiso   1.00
C573   C     0.02160   0.24035   0.11051   0.00000  Uiso   1.00
C574   C     0.96338   0.26276   0.08907   0.00000  Uiso   1.00
C575   C     0.92281   0.30055   0.12003   0.00000  Uiso   1.00
H576   H     0.11791   0.23707   0.21603   0.00000  Uiso   1.00
H577   H     0.22492   0.29673   0.18886   0.00000  Uiso   1.00
H578   H     0.12210   0.11425   0.24219   0.00000  Uiso   1.00
H579   H     0.01147   0.30433   0.23120   0.00000  Uiso   1.00
H580   H     0.33604   0.35632   0.13643   0.00000  Uiso   1.00
H581   H     0.11920   0.97157   0.24890   0.00000  Uiso   1.00
H582   H     0.88593   0.37237   0.22572   0.00000  Uiso   1.00
H583   H     0.05977   0.18681   0.04421   0.00000  Uiso   1.00
H584   H     0.16360   0.24371   0.00760   0.00000  Uiso   1.00
H585   H     0.06078   0.06124   0.06094   0.00000  Uiso   1.00
H586   H     0.95015   0.25131   0.04994   0.00000  Uiso   1.00
H587   H     0.28627   0.31329   0.98932   0.00000  Uiso   1.00
H588   H     0.06943   0.92854   0.10178   0.00000  Uiso   1.00
H589   H     0.83616   0.32934   0.07860   0.00000  Uiso   1.00
O590   O     0.38052   0.37312   0.04190   0.00000  Uiso   1.00
O591   O     0.09602   0.86835   0.18945   0.00000  Uiso   1.00
O592   O     0.78997   0.39419   0.15904   0.00000  Uiso   1.00
N593   N     0.31007   0.33840   0.10683   0.00000  Uiso   1.00
N594   N     0.10735   0.97868   0.21198   0.00000  Uiso   1.00
N595   N     0.88925   0.35338   0.19031   0.00000  Uiso   1.00
N596   N     0.28329   0.31524   0.02767   0.00000  Uiso   1.00
N597   N     0.08057   0.95552   0.13282   0.00000  Uiso   1.00
N598   N     0.86247   0.33022   0.11115   0.00000  Uiso   1.00
C599   C     0.60459   0.72556   0.67667   0.00000  Uiso   1.00
C600   C     0.65467   0.75101   0.63807   0.00000  Uiso   1.00
C601   C     0.71170   0.78529   0.64972   0.00000  Uiso   1.00
C602   C     0.75107   0.80429   0.60897   0.00000  Uiso   1.00
C603   C     0.83145   0.84603   0.55674   0.00000  Uiso   1.00
C604   C     0.59881   0.65186   0.66705   0.00000  Uiso   1.00
C605   C     0.60887   0.60279   0.70307   0.00000  Uiso   1.00
C606   C     0.60120   0.53833   0.68670   0.00000  Uiso   1.00
C607   C     0.59481   0.42614   0.67947   0.00000  Uiso   1.00
C608   C     0.53871   0.75514   0.66108   0.00000  Uiso   1.00
C609   C     0.49822   0.79289   0.69207   0.00000  Uiso   1.00
C610   C     0.43995   0.81536   0.67068   0.00000  Uiso   1.00
C611   C     0.34024   0.86353   0.65418   0.00000  Uiso   1.00
C612   C     0.57309   0.69833   0.58357   0.00000  Uiso   1.00
C613   C     0.63756   0.73621   0.58751   0.00000  Uiso   1.00
C614   C     0.67685   0.75517   0.54673   0.00000  Uiso   1.00
C615   C     0.73393   0.78948   0.55831   0.00000  Uiso   1.00
C616   C     0.58170   0.63707   0.61649   0.00000  Uiso   1.00
C617   C     0.57402   0.57266   0.60007   0.00000  Uiso   1.00
C618   C     0.58407   0.52351   0.63605   0.00000  Uiso   1.00
C619   C     0.52160   0.74035   0.61051   0.00000  Uiso   1.00
C620   C     0.46338   0.76276   0.58907   0.00000  Uiso   1.00
C621   C     0.42281   0.80055   0.62003   0.00000  Uiso   1.00
H622   H     0.61791   0.73707   0.71603   0.00000  Uiso   1.00
H623   H     0.72492   0.79673   0.68886   0.00000  Uiso   1.00
H624   H     0.62210   0.61425   0.74219   0.00000  Uiso   1.00
H625   H     0.51147   0.80433   0.73120   0.00000  Uiso   1.00
H626   H     0.83604   0.85632   0.63643   0.00000  Uiso   1.00
H627   H     0.61920   0.47157   0.74890   0.00000  Uiso   1.00
H628   H     0.38593   0.87237   0.72572   0.00000  Uiso   1.00
H629   H     0.55977   0.68681   0.54421   0.00000  Uiso   1.00
H630   H     0.66360   0.74371   0.50760   0.00000  Uiso   1.00
H631   H     0.56078   0.56124   0.56094   0.00000  Uiso   1.00
H632   H     0.45015   0.75131   0.54994   0.00000  Uiso   1.00
H633   H     0.78627   0.81329   0.48932   0.00000  Uiso   1.00
H634   H     0.56943   0.42854   0.60178   0.00000  Uiso   1.00
H635   H     0.33616   0.82934   0.57860   0.00000  Uiso   1.00
O636   O     0.88052   0.87312   0.54190   0.00000  Uiso   1.00
O637   O     0.59602   0.36835   0.68945   0.00000  Uiso   1.00
O638   O     0.28997   0.89419   0.65904   0.00000  Uiso   1.00
N639   N     0.81007   0.83840   0.60683   0.00000  Uiso   1.00
N640   N     0.60735   0.47868   0.71198   0.00000  Uiso   1.00
N641   N     0.38925   0.85338   0.69031   0.00000  Uiso   1.00
N642   N     0.78329   0.81524   0.52767   0.00000  Uiso   1.00
N643   N     0.58057   0.45552   0.63282   0.00000  Uiso   1.00
N644   N     0.36247   0.83022   0.61115   0.00000  Uiso   1.00
C645   C     0.39541   0.27444   0.67667   0.00000  Uiso   1.00
C646   C     0.34533   0.24899   0.63807   0.00000  Uiso   1.00
C647   C     0.28830   0.21471   0.64972   0.00000  Uiso   1.00
C648   C     0.24893   0.19571   0.60897   0.00000  Uiso   1.00
C649   C     0.16855   0.15397   0.55674   0.00000  Uiso   1.00
C650   C     0.40119   0.34814   0.66705   0.00000  Uiso   1.00
C651   C     0.39113   0.39721   0.70307   0.00000  Uiso   1.00
C652   C     0.39880   0.46167   0.68670   0.00000  Uiso   1.00
C653   C     0.40519   0.57386   0.67947   0.00000  Uiso   1.00
C654   C     0.46129   0.24486   0.66108   0.00000  Uiso   1.00
C655   C     0.50178   0.20711   0.69207   0.00000  Uiso   1.00
C656   C     0.56005   0.18464   0.67068   0.00000  Uiso   1.00
C657   C     0.65976   0.13647   0.65418   0.00000  Uiso   1.00
C658   C     0.42691   0.30167   0.58357   0.00000  Uiso   1.00
C659   C     0.36244   0.26379   0.58751   0.00000  Uiso   1.00
C660   C     0.32315   0.24483   0.54673   0.00000  Uiso   1.00
C661   C     0.26607   0.21052   0.55831   0.00000  Uiso   1.00
C662   C     0.41830   0.36293   0.61649   0.00000  Uiso   1.00
C663   C     0.42598   0.42734   0.60007   0.00000  Uiso   1.00
C664   C     0.41593   0.47649   0.63605   0.00000  Uiso   1.00
C665   C     0.47840   0.25965   0.61051   0.00000  Uiso   1.00
C666   C     0.53662   0.23724   0.58907   0.00000  Uiso   1.00
C667   C     0.57719   0.19945   0.62003   0.00000  Uiso   1.00
H668   H     0.38209   0.26293   0.71603   0.00000  Uiso   1.00
H669   H     0.27508   0.20327   0.68886   0.00000  Uiso   1.00
H670   H     0.37790   0.38575   0.74219   0.00000  Uiso   1.00
H671   H     0.48853   0.19567   0.73120   0.00000  Uiso   1.00
H672   H     0.16396   0.14368   0.63643   0.00000  Uiso   1.00
H673   H     0.38080   0.52843   0.74890   0.00000  Uiso   1.00
H674   H     0.61407   0.12763   0.72572   0.00000  Uiso   1.00
H675   H     0.44023   0.31319   0.54421   0.00000  Uiso   1.00
H676   H     0.33640   0.25629   0.50760   0.00000  Uiso   1.00
H677   H     0.43922   0.43876   0.56094   0.00000  Uiso   1.00
H678   H     0.54985   0.24869   0.54994   0.00000  Uiso   1.00
H679   H     0.21373   0.18671   0.48932   0.00000  Uiso   1.00
H680   H     0.43057   0.57146   0.60178   0.00000  Uiso   1.00
H681   H     0.66384   0.17066   0.57860   0.00000  Uiso   1.00
O682   O     0.11948   0.12688   0.54190   0.00000  Uiso   1.00
O683   O     0.40398   0.63165   0.68945   0.00000  Uiso   1.00
O684   O     0.71003   0.10581   0.65904   0.00000  Uiso   1.00
N685   N     0.18993   0.16160   0.60683   0.00000  Uiso   1.00
N686   N     0.39265   0.52132   0.71198   0.00000  Uiso   1.00
N687   N     0.61075   0.14662   0.69031   0.00000  Uiso   1.00
N688   N     0.21671   0.18476   0.52767   0.00000  Uiso   1.00
N689   N     0.41943   0.54448   0.63282   0.00000  Uiso   1.00
N690   N     0.63753   0.16978   0.61115   0.00000  Uiso   1.00
C691   C     0.89541   0.77444   0.17667   0.00000  Uiso   1.00
C692   C     0.84533   0.74899   0.13807   0.00000  Uiso   1.00
C693   C     0.78830   0.71471   0.14972   0.00000  Uiso   1.00
C694   C     0.74893   0.69571   0.10897   0.00000  Uiso   1.00
C695   C     0.66855   0.65397   0.05674   0.00000  Uiso   1.00
C696   C     0.90119   0.84814   0.16705   0.00000  Uiso   1.00
C697   C     0.89113   0.89721   0.20307   0.00000  Uiso   1.00
C698   C     0.89880   0.96167   0.18670   0.00000  Uiso   1.00
C699   C     0.90519   0.07386   0.17947   0.00000  Uiso   1.00
C700   C     0.96129   0.74486   0.16108   0.00000  Uiso   1.00
C701   C     0.00178   0.70711   0.19207   0.00000  Uiso   1.00
C702   C     0.06005   0.68464   0.17068   0.00000  Uiso   1.00
C703   C     0.15976   0.63647   0.15418   0.00000  Uiso   1.00
C704   C     0.92691   0.80167   0.08357   0.00000  Uiso   1.00
C705   C     0.86244   0.76379   0.08751   0.00000  Uiso   1.00
C706   C     0.82315   0.74483   0.04673   0.00000  Uiso   1.00
C707   C     0.76607   0.71052   0.05831   0.00000  Uiso   1.00
C708   C     0.91830   0.86293   0.11649   0.00000  Uiso   1.00
C709   C     0.92598   0.92734   0.10007   0.00000  Uiso   1.00
C710   C     0.91593   0.97649   0.13605   0.00000  Uiso   1.00
C711   C     0.97840   0.75965   0.11051   0.00000  Uiso   1.00
C712   C     0.03662   0.73724   0.08907   0.00000  Uiso   1.00
C713   C     0.07719   0.69945   0.12003   0.00000  Uiso   1.00
H714   H     0.88209   0.76293   0.21603   0.00000  Uiso   1.00
H715   H     0.77508   0.70327   0.18886   0.00000  Uiso   1.00
H716   H     0.87790   0.88575   0.24219   0.00000  Uiso   1.00
H717   H     0.98853   0.69567   0.23120   0.00000  Uiso   1.00
H718   H     0.66396   0.64368   0.13643   0.00000  Uiso   1.00
H719   H     0.88080   0.02843   0.24890   0.00000  Uiso   1.00
H720   H     0.11407   0.62763   0.22572   0.00000  Uiso   1.00
H721   H     0.94023   0.81319   0.04421   0.00000  Uiso   1.00
H722   H     0.83640   0.75629   0.00760   0.00000  Uiso   1.00
H723   H     0.93922   0.93876   0.06094   0.00000  Uiso   1.00
H724   H     0.04985   0.74869   0.04994   0.00000  Uiso   1.00
H725   H     0.71373   0.68671   0.98932   0.00000  Uiso   1.00
H726   H     0.93057   0.07146   0.10178   0.00000  Uiso   1.00
H727   H     0.16384   0.67066   0.07860   0.00000  Uiso   1.00
O728   O     0.61948   0.62688   0.04190   0.00000  Uiso   1.00
O729   O     0.90398   0.13165   0.18945   0.00000  Uiso   1.00
O730   O     0.21003   0.60581   0.15904   0.00000  Uiso   1.00
N731   N     0.68993   0.66160   0.10683   0.00000  Uiso   1.00
N732   N     0.89265   0.02132   0.21198   0.00000  Uiso   1.00
N733   N     0.11075   0.64662   0.19031   0.00000  Uiso   1.00
N734   N     0.71671   0.68476   0.02767   0.00000  Uiso   1.00
N735   N     0.91943   0.04448   0.13282   0.00000  Uiso   1.00
N736   N     0.13753   0.66978   0.11115   0.00000  Uiso   1.00
