data_job_05618
_audit_creation_date              2018-12-19
_audit_creation_method            'Materials Studio'
_symmetry_space_group_name_H-M    'P1'
_symmetry_Int_Tables_number       1
_symmetry_cell_setting            triclinic
loop_
_symmetry_equiv_pos_as_xyz
  x,y,z
_cell_length_a                    23.0787
_cell_length_b                    23.0787
_cell_length_c                    28.5966
_cell_angle_alpha                 90.0000
_cell_angle_beta                  90.0000
_cell_angle_gamma                 90.0000
loop_
_atom_site_label
_atom_site_type_symbol
_atom_site_fract_x
_atom_site_fract_y
_atom_site_fract_z
_atom_site_U_iso_or_equiv
_atom_site_adp_type
_atom_site_occupancy
C1     C     0.16140   0.37062   0.01723   0.00000  Uiso   1.00
C2     C     0.18639   0.42549   0.03906   0.00000  Uiso   1.00
C3     C     0.20654   0.47346   0.01474   0.00000  Uiso   1.00
C4     C     0.22775   0.51930   0.04112   0.00000  Uiso   1.00
C5     C     0.26642   0.60479   0.06757   0.00000  Uiso   1.00
C6     C     0.19783   0.32061   0.03594   0.00000  Uiso   1.00
C7     C     0.22759   0.28041   0.00900   0.00000  Uiso   1.00
C8     C     0.25843   0.23796   0.03276   0.00000  Uiso   1.00
C9     C     0.31483   0.16062   0.05437   0.00000  Uiso   1.00
C10    C     0.10124   0.36309   0.03842   0.00000  Uiso   1.00
C11    C     0.04978   0.35858   0.01357   0.00000  Uiso   1.00
C12    C     0.99930   0.35188   0.03941   0.00000  Uiso   1.00
C13    C     0.90573   0.34048   0.06488   0.00000  Uiso   1.00
C14    C     0.16323   0.36671   0.10732   0.00000  Uiso   1.00
C15    C     0.18738   0.42336   0.08800   0.00000  Uiso   1.00
C16    C     0.20856   0.46913   0.11442   0.00000  Uiso   1.00
C17    C     0.22874   0.51717   0.09014   0.00000  Uiso   1.00
C18    C     0.19882   0.31849   0.08488   0.00000  Uiso   1.00
C19    C     0.22962   0.27608   0.10868   0.00000  Uiso   1.00
C20    C     0.25942   0.23583   0.08178   0.00000  Uiso   1.00
C21    C     0.10223   0.36096   0.08736   0.00000  Uiso   1.00
C22    C     0.05181   0.35426   0.11325   0.00000  Uiso   1.00
C23    C     0.00029   0.34975   0.08844   0.00000  Uiso   1.00
H24    H     0.16062   0.37228   0.97913   0.00000  Uiso   1.00
H25    H     0.20576   0.47509   0.97687   0.00000  Uiso   1.00
H26    H     0.22681   0.28207   0.97113   0.00000  Uiso   1.00
H27    H     0.04903   0.36023   0.97570   0.00000  Uiso   1.00
H28    H     0.25627   0.58813   0.99594   0.00000  Uiso   1.00
H29    H     0.30063   0.18112   0.98385   0.00000  Uiso   1.00
H30    H     0.92575   0.34594   0.99347   0.00000  Uiso   1.00
H31    H     0.16400   0.36505   0.14542   0.00000  Uiso   1.00
H32    H     0.20933   0.46747   0.15229   0.00000  Uiso   1.00
H33    H     0.23038   0.27445   0.14655   0.00000  Uiso   1.00
H34    H     0.05260   0.35261   0.15112   0.00000  Uiso   1.00
H35    H     0.25917   0.58195   0.13832   0.00000  Uiso   1.00
H36    H     0.30352   0.17494   0.12622   0.00000  Uiso   1.00
H37    H     0.92865   0.33976   0.13585   0.00000  Uiso   1.00
O38    O     0.28749   0.65254   0.06865   0.00000  Uiso   1.00
O39    O     0.34568   0.11855   0.05278   0.00000  Uiso   1.00
O40    O     0.85385   0.33479   0.06541   0.00000  Uiso   1.00
N41    N     0.25072   0.57262   0.02851   0.00000  Uiso   1.00
N42    N     0.29220   0.19210   0.01720   0.00000  Uiso   1.00
N43    N     0.94172   0.34617   0.02620   0.00000  Uiso   1.00
N44    N     0.25228   0.56930   0.10512   0.00000  Uiso   1.00
N45    N     0.29376   0.18877   0.09381   0.00000  Uiso   1.00
N46    N     0.94328   0.34285   0.10281   0.00000  Uiso   1.00
C47    C     0.66140   0.87062   0.51723   0.00000  Uiso   1.00
C48    C     0.68639   0.92549   0.53906   0.00000  Uiso   1.00
C49    C     0.70654   0.97346   0.51474   0.00000  Uiso   1.00
C50    C     0.72775   0.01930   0.54112   0.00000  Uiso   1.00
C51    C     0.76642   0.10479   0.56757   0.00000  Uiso   1.00
C52    C     0.69783   0.82061   0.53594   0.00000  Uiso   1.00
C53    C     0.72759   0.78041   0.50900   0.00000  Uiso   1.00
C54    C     0.75843   0.73796   0.53276   0.00000  Uiso   1.00
C55    C     0.81483   0.66062   0.55437   0.00000  Uiso   1.00
C56    C     0.60124   0.86309   0.53842   0.00000  Uiso   1.00
C57    C     0.54978   0.85858   0.51357   0.00000  Uiso   1.00
C58    C     0.49930   0.85188   0.53941   0.00000  Uiso   1.00
C59    C     0.40573   0.84048   0.56488   0.00000  Uiso   1.00
C60    C     0.66323   0.86671   0.60732   0.00000  Uiso   1.00
C61    C     0.68738   0.92336   0.58800   0.00000  Uiso   1.00
C62    C     0.70856   0.96913   0.61442   0.00000  Uiso   1.00
C63    C     0.72874   0.01717   0.59014   0.00000  Uiso   1.00
C64    C     0.69882   0.81849   0.58488   0.00000  Uiso   1.00
C65    C     0.72962   0.77608   0.60868   0.00000  Uiso   1.00
C66    C     0.75942   0.73583   0.58178   0.00000  Uiso   1.00
C67    C     0.60223   0.86096   0.58736   0.00000  Uiso   1.00
C68    C     0.55181   0.85426   0.61325   0.00000  Uiso   1.00
C69    C     0.50029   0.84975   0.58844   0.00000  Uiso   1.00
H70    H     0.66062   0.87228   0.47913   0.00000  Uiso   1.00
H71    H     0.70576   0.97509   0.47687   0.00000  Uiso   1.00
H72    H     0.72681   0.78207   0.47113   0.00000  Uiso   1.00
H73    H     0.54903   0.86023   0.47570   0.00000  Uiso   1.00
H74    H     0.75627   0.08813   0.49594   0.00000  Uiso   1.00
H75    H     0.80063   0.68112   0.48385   0.00000  Uiso   1.00
H76    H     0.42575   0.84594   0.49347   0.00000  Uiso   1.00
H77    H     0.66400   0.86505   0.64542   0.00000  Uiso   1.00
H78    H     0.70933   0.96747   0.65229   0.00000  Uiso   1.00
H79    H     0.73038   0.77445   0.64655   0.00000  Uiso   1.00
H80    H     0.55260   0.85261   0.65112   0.00000  Uiso   1.00
H81    H     0.75917   0.08195   0.63832   0.00000  Uiso   1.00
H82    H     0.80352   0.67494   0.62622   0.00000  Uiso   1.00
H83    H     0.42865   0.83976   0.63585   0.00000  Uiso   1.00
O84    O     0.78749   0.15254   0.56865   0.00000  Uiso   1.00
O85    O     0.84568   0.61855   0.55278   0.00000  Uiso   1.00
O86    O     0.35385   0.83479   0.56541   0.00000  Uiso   1.00
N87    N     0.75072   0.07262   0.52851   0.00000  Uiso   1.00
N88    N     0.79220   0.69210   0.51720   0.00000  Uiso   1.00
N89    N     0.44172   0.84617   0.52620   0.00000  Uiso   1.00
N90    N     0.75228   0.06930   0.60512   0.00000  Uiso   1.00
N91    N     0.79376   0.68877   0.59381   0.00000  Uiso   1.00
N92    N     0.44328   0.84285   0.60281   0.00000  Uiso   1.00
C93    C     0.33860   0.12938   0.51723   0.00000  Uiso   1.00
C94    C     0.31361   0.07451   0.53906   0.00000  Uiso   1.00
C95    C     0.29346   0.02654   0.51474   0.00000  Uiso   1.00
C96    C     0.27225   0.98070   0.54112   0.00000  Uiso   1.00
C97    C     0.23358   0.89521   0.56757   0.00000  Uiso   1.00
C98    C     0.30217   0.17939   0.53594   0.00000  Uiso   1.00
C99    C     0.27241   0.21959   0.50900   0.00000  Uiso   1.00
C100   C     0.24157   0.26204   0.53276   0.00000  Uiso   1.00
C101   C     0.18517   0.33938   0.55437   0.00000  Uiso   1.00
C102   C     0.39876   0.13691   0.53842   0.00000  Uiso   1.00
C103   C     0.45022   0.14142   0.51357   0.00000  Uiso   1.00
C104   C     0.50070   0.14812   0.53941   0.00000  Uiso   1.00
C105   C     0.59427   0.15952   0.56488   0.00000  Uiso   1.00
C106   C     0.33677   0.13329   0.60732   0.00000  Uiso   1.00
C107   C     0.31262   0.07664   0.58800   0.00000  Uiso   1.00
C108   C     0.29144   0.03087   0.61442   0.00000  Uiso   1.00
C109   C     0.27126   0.98283   0.59014   0.00000  Uiso   1.00
C110   C     0.30118   0.18151   0.58488   0.00000  Uiso   1.00
C111   C     0.27038   0.22392   0.60868   0.00000  Uiso   1.00
C112   C     0.24058   0.26417   0.58178   0.00000  Uiso   1.00
C113   C     0.39777   0.13904   0.58736   0.00000  Uiso   1.00
C114   C     0.44819   0.14574   0.61325   0.00000  Uiso   1.00
C115   C     0.49971   0.15025   0.58844   0.00000  Uiso   1.00
H116   H     0.33938   0.12772   0.47913   0.00000  Uiso   1.00
H117   H     0.29424   0.02491   0.47687   0.00000  Uiso   1.00
H118   H     0.27319   0.21793   0.47113   0.00000  Uiso   1.00
H119   H     0.45097   0.13977   0.47570   0.00000  Uiso   1.00
H120   H     0.24373   0.91187   0.49594   0.00000  Uiso   1.00
H121   H     0.19937   0.31888   0.48385   0.00000  Uiso   1.00
H122   H     0.57425   0.15406   0.49347   0.00000  Uiso   1.00
H123   H     0.33600   0.13495   0.64542   0.00000  Uiso   1.00
H124   H     0.29067   0.03253   0.65229   0.00000  Uiso   1.00
H125   H     0.26962   0.22555   0.64655   0.00000  Uiso   1.00
H126   H     0.44740   0.14739   0.65112   0.00000  Uiso   1.00
H127   H     0.24083   0.91805   0.63832   0.00000  Uiso   1.00
H128   H     0.19648   0.32506   0.62622   0.00000  Uiso   1.00
H129   H     0.57135   0.16024   0.63585   0.00000  Uiso   1.00
O130   O     0.21251   0.84746   0.56865   0.00000  Uiso   1.00
O131   O     0.15432   0.38145   0.55278   0.00000  Uiso   1.00
O132   O     0.64615   0.16521   0.56541   0.00000  Uiso   1.00
N133   N     0.24928   0.92738   0.52851   0.00000  Uiso   1.00
N134   N     0.20780   0.30790   0.51720   0.00000  Uiso   1.00
N135   N     0.55828   0.15383   0.52620   0.00000  Uiso   1.00
N136   N     0.24772   0.93070   0.60512   0.00000  Uiso   1.00
N137   N     0.20624   0.31123   0.59381   0.00000  Uiso   1.00
N138   N     0.55672   0.15715   0.60281   0.00000  Uiso   1.00
C139   C     0.83860   0.62938   0.01723   0.00000  Uiso   1.00
C140   C     0.81361   0.57451   0.03906   0.00000  Uiso   1.00
C141   C     0.79346   0.52654   0.01474   0.00000  Uiso   1.00
C142   C     0.77225   0.48070   0.04112   0.00000  Uiso   1.00
C143   C     0.73358   0.39521   0.06757   0.00000  Uiso   1.00
C144   C     0.80217   0.67939   0.03594   0.00000  Uiso   1.00
C145   C     0.77241   0.71959   0.00900   0.00000  Uiso   1.00
C146   C     0.74157   0.76204   0.03276   0.00000  Uiso   1.00
C147   C     0.68517   0.83938   0.05437   0.00000  Uiso   1.00
C148   C     0.89876   0.63691   0.03842   0.00000  Uiso   1.00
C149   C     0.95022   0.64142   0.01357   0.00000  Uiso   1.00
C150   C     0.00070   0.64812   0.03941   0.00000  Uiso   1.00
C151   C     0.09427   0.65952   0.06488   0.00000  Uiso   1.00
C152   C     0.83677   0.63329   0.10732   0.00000  Uiso   1.00
C153   C     0.81262   0.57664   0.08800   0.00000  Uiso   1.00
C154   C     0.79144   0.53087   0.11442   0.00000  Uiso   1.00
C155   C     0.77126   0.48283   0.09014   0.00000  Uiso   1.00
C156   C     0.80118   0.68151   0.08488   0.00000  Uiso   1.00
C157   C     0.77038   0.72392   0.10868   0.00000  Uiso   1.00
C158   C     0.74058   0.76417   0.08178   0.00000  Uiso   1.00
C159   C     0.89777   0.63904   0.08736   0.00000  Uiso   1.00
C160   C     0.94819   0.64574   0.11325   0.00000  Uiso   1.00
C161   C     0.99971   0.65025   0.08844   0.00000  Uiso   1.00
H162   H     0.83938   0.62772   0.97913   0.00000  Uiso   1.00
H163   H     0.79424   0.52491   0.97687   0.00000  Uiso   1.00
H164   H     0.77319   0.71793   0.97113   0.00000  Uiso   1.00
H165   H     0.95097   0.63977   0.97570   0.00000  Uiso   1.00
H166   H     0.74373   0.41187   0.99594   0.00000  Uiso   1.00
H167   H     0.69937   0.81888   0.98385   0.00000  Uiso   1.00
H168   H     0.07425   0.65406   0.99347   0.00000  Uiso   1.00
H169   H     0.83600   0.63495   0.14542   0.00000  Uiso   1.00
H170   H     0.79067   0.53253   0.15229   0.00000  Uiso   1.00
H171   H     0.76962   0.72555   0.14655   0.00000  Uiso   1.00
H172   H     0.94740   0.64739   0.15112   0.00000  Uiso   1.00
H173   H     0.74083   0.41805   0.13832   0.00000  Uiso   1.00
H174   H     0.69648   0.82506   0.12622   0.00000  Uiso   1.00
H175   H     0.07135   0.66024   0.13585   0.00000  Uiso   1.00
O176   O     0.71251   0.34746   0.06865   0.00000  Uiso   1.00
O177   O     0.65432   0.88145   0.05278   0.00000  Uiso   1.00
O178   O     0.14615   0.66521   0.06541   0.00000  Uiso   1.00
N179   N     0.74928   0.42738   0.02851   0.00000  Uiso   1.00
N180   N     0.70780   0.80790   0.01720   0.00000  Uiso   1.00
N181   N     0.05828   0.65383   0.02620   0.00000  Uiso   1.00
N182   N     0.74772   0.43070   0.10512   0.00000  Uiso   1.00
N183   N     0.70624   0.81123   0.09381   0.00000  Uiso   1.00
N184   N     0.05672   0.65715   0.10281   0.00000  Uiso   1.00
C185   C     0.62938   0.66140   0.26723   0.00000  Uiso   1.00
C186   C     0.57451   0.68639   0.28906   0.00000  Uiso   1.00
C187   C     0.52654   0.70654   0.26474   0.00000  Uiso   1.00
C188   C     0.48070   0.72775   0.29112   0.00000  Uiso   1.00
C189   C     0.39521   0.76642   0.31757   0.00000  Uiso   1.00
C190   C     0.67939   0.69783   0.28594   0.00000  Uiso   1.00
C191   C     0.71959   0.72759   0.25900   0.00000  Uiso   1.00
C192   C     0.76204   0.75843   0.28276   0.00000  Uiso   1.00
C193   C     0.83938   0.81483   0.30437   0.00000  Uiso   1.00
C194   C     0.63691   0.60124   0.28842   0.00000  Uiso   1.00
C195   C     0.64142   0.54978   0.26357   0.00000  Uiso   1.00
C196   C     0.64812   0.49930   0.28941   0.00000  Uiso   1.00
C197   C     0.65952   0.40573   0.31488   0.00000  Uiso   1.00
C198   C     0.63329   0.66323   0.35732   0.00000  Uiso   1.00
C199   C     0.57664   0.68738   0.33800   0.00000  Uiso   1.00
C200   C     0.53087   0.70856   0.36442   0.00000  Uiso   1.00
C201   C     0.48283   0.72874   0.34014   0.00000  Uiso   1.00
C202   C     0.68151   0.69882   0.33488   0.00000  Uiso   1.00
C203   C     0.72392   0.72962   0.35868   0.00000  Uiso   1.00
C204   C     0.76417   0.75942   0.33178   0.00000  Uiso   1.00
C205   C     0.63904   0.60223   0.33736   0.00000  Uiso   1.00
C206   C     0.64574   0.55181   0.36325   0.00000  Uiso   1.00
C207   C     0.65025   0.50029   0.33844   0.00000  Uiso   1.00
H208   H     0.62772   0.66062   0.22913   0.00000  Uiso   1.00
H209   H     0.52491   0.70576   0.22687   0.00000  Uiso   1.00
H210   H     0.71793   0.72681   0.22113   0.00000  Uiso   1.00
H211   H     0.63977   0.54903   0.22570   0.00000  Uiso   1.00
H212   H     0.41187   0.75627   0.24594   0.00000  Uiso   1.00
H213   H     0.81888   0.80063   0.23385   0.00000  Uiso   1.00
H214   H     0.65406   0.42575   0.24347   0.00000  Uiso   1.00
H215   H     0.63495   0.66400   0.39542   0.00000  Uiso   1.00
H216   H     0.53253   0.70933   0.40229   0.00000  Uiso   1.00
H217   H     0.72555   0.73038   0.39655   0.00000  Uiso   1.00
H218   H     0.64739   0.55260   0.40112   0.00000  Uiso   1.00
H219   H     0.41805   0.75917   0.38832   0.00000  Uiso   1.00
H220   H     0.82506   0.80352   0.37622   0.00000  Uiso   1.00
H221   H     0.66024   0.42865   0.38585   0.00000  Uiso   1.00
O222   O     0.34746   0.78749   0.31865   0.00000  Uiso   1.00
O223   O     0.88145   0.84568   0.30278   0.00000  Uiso   1.00
O224   O     0.66521   0.35385   0.31541   0.00000  Uiso   1.00
N225   N     0.42738   0.75072   0.27851   0.00000  Uiso   1.00
N226   N     0.80790   0.79220   0.26720   0.00000  Uiso   1.00
N227   N     0.65383   0.44172   0.27620   0.00000  Uiso   1.00
N228   N     0.43070   0.75228   0.35512   0.00000  Uiso   1.00
N229   N     0.81123   0.79376   0.34381   0.00000  Uiso   1.00
N230   N     0.65715   0.44328   0.35281   0.00000  Uiso   1.00
C231   C     0.12938   0.16140   0.76723   0.00000  Uiso   1.00
C232   C     0.07451   0.18639   0.78906   0.00000  Uiso   1.00
C233   C     0.02654   0.20654   0.76474   0.00000  Uiso   1.00
C234   C     0.98070   0.22775   0.79112   0.00000  Uiso   1.00
C235   C     0.89521   0.26642   0.81757   0.00000  Uiso   1.00
C236   C     0.17939   0.19783   0.78594   0.00000  Uiso   1.00
C237   C     0.21959   0.22759   0.75900   0.00000  Uiso   1.00
C238   C     0.26204   0.25843   0.78276   0.00000  Uiso   1.00
C239   C     0.33938   0.31483   0.80437   0.00000  Uiso   1.00
C240   C     0.13691   0.10124   0.78842   0.00000  Uiso   1.00
C241   C     0.14142   0.04978   0.76357   0.00000  Uiso   1.00
C242   C     0.14812   0.99930   0.78941   0.00000  Uiso   1.00
C243   C     0.15952   0.90573   0.81488   0.00000  Uiso   1.00
C244   C     0.13329   0.16323   0.85732   0.00000  Uiso   1.00
C245   C     0.07664   0.18738   0.83800   0.00000  Uiso   1.00
C246   C     0.03087   0.20856   0.86442   0.00000  Uiso   1.00
C247   C     0.98283   0.22874   0.84014   0.00000  Uiso   1.00
C248   C     0.18151   0.19882   0.83488   0.00000  Uiso   1.00
C249   C     0.22392   0.22962   0.85868   0.00000  Uiso   1.00
C250   C     0.26417   0.25942   0.83178   0.00000  Uiso   1.00
C251   C     0.13904   0.10223   0.83736   0.00000  Uiso   1.00
C252   C     0.14574   0.05181   0.86325   0.00000  Uiso   1.00
C253   C     0.15025   0.00029   0.83844   0.00000  Uiso   1.00
H254   H     0.12772   0.16062   0.72913   0.00000  Uiso   1.00
H255   H     0.02491   0.20576   0.72687   0.00000  Uiso   1.00
H256   H     0.21793   0.22681   0.72113   0.00000  Uiso   1.00
H257   H     0.13977   0.04903   0.72570   0.00000  Uiso   1.00
H258   H     0.91187   0.25627   0.74594   0.00000  Uiso   1.00
H259   H     0.31888   0.30063   0.73385   0.00000  Uiso   1.00
H260   H     0.15406   0.92575   0.74347   0.00000  Uiso   1.00
H261   H     0.13495   0.16400   0.89542   0.00000  Uiso   1.00
H262   H     0.03253   0.20933   0.90229   0.00000  Uiso   1.00
H263   H     0.22555   0.23038   0.89655   0.00000  Uiso   1.00
H264   H     0.14739   0.05260   0.90112   0.00000  Uiso   1.00
H265   H     0.91805   0.25917   0.88832   0.00000  Uiso   1.00
H266   H     0.32506   0.30352   0.87622   0.00000  Uiso   1.00
H267   H     0.16024   0.92865   0.88585   0.00000  Uiso   1.00
O268   O     0.84746   0.28749   0.81865   0.00000  Uiso   1.00
O269   O     0.38145   0.34568   0.80278   0.00000  Uiso   1.00
O270   O     0.16521   0.85385   0.81541   0.00000  Uiso   1.00
N271   N     0.92738   0.25072   0.77851   0.00000  Uiso   1.00
N272   N     0.30790   0.29220   0.76720   0.00000  Uiso   1.00
N273   N     0.15383   0.94172   0.77620   0.00000  Uiso   1.00
N274   N     0.93070   0.25228   0.85512   0.00000  Uiso   1.00
N275   N     0.31123   0.29376   0.84381   0.00000  Uiso   1.00
N276   N     0.15715   0.94328   0.85281   0.00000  Uiso   1.00
C277   C     0.87062   0.83860   0.76723   0.00000  Uiso   1.00
C278   C     0.92549   0.81361   0.78906   0.00000  Uiso   1.00
C279   C     0.97346   0.79346   0.76474   0.00000  Uiso   1.00
C280   C     0.01930   0.77225   0.79112   0.00000  Uiso   1.00
C281   C     0.10479   0.73358   0.81757   0.00000  Uiso   1.00
C282   C     0.82061   0.80217   0.78594   0.00000  Uiso   1.00
C283   C     0.78041   0.77241   0.75900   0.00000  Uiso   1.00
C284   C     0.73796   0.74157   0.78276   0.00000  Uiso   1.00
C285   C     0.66062   0.68517   0.80437   0.00000  Uiso   1.00
C286   C     0.86309   0.89876   0.78842   0.00000  Uiso   1.00
C287   C     0.85858   0.95022   0.76357   0.00000  Uiso   1.00
C288   C     0.85188   0.00070   0.78941   0.00000  Uiso   1.00
C289   C     0.84048   0.09427   0.81488   0.00000  Uiso   1.00
C290   C     0.86671   0.83677   0.85732   0.00000  Uiso   1.00
C291   C     0.92336   0.81262   0.83800   0.00000  Uiso   1.00
C292   C     0.96913   0.79144   0.86442   0.00000  Uiso   1.00
C293   C     0.01717   0.77126   0.84014   0.00000  Uiso   1.00
C294   C     0.81849   0.80118   0.83488   0.00000  Uiso   1.00
C295   C     0.77608   0.77038   0.85868   0.00000  Uiso   1.00
C296   C     0.73583   0.74058   0.83178   0.00000  Uiso   1.00
C297   C     0.86096   0.89777   0.83736   0.00000  Uiso   1.00
C298   C     0.85426   0.94819   0.86325   0.00000  Uiso   1.00
C299   C     0.84975   0.99971   0.83844   0.00000  Uiso   1.00
H300   H     0.87228   0.83938   0.72913   0.00000  Uiso   1.00
H301   H     0.97509   0.79424   0.72687   0.00000  Uiso   1.00
H302   H     0.78207   0.77319   0.72113   0.00000  Uiso   1.00
H303   H     0.86023   0.95097   0.72570   0.00000  Uiso   1.00
H304   H     0.08813   0.74373   0.74594   0.00000  Uiso   1.00
H305   H     0.68112   0.69937   0.73385   0.00000  Uiso   1.00
H306   H     0.84594   0.07425   0.74347   0.00000  Uiso   1.00
H307   H     0.86505   0.83600   0.89542   0.00000  Uiso   1.00
H308   H     0.96747   0.79067   0.90229   0.00000  Uiso   1.00
H309   H     0.77445   0.76962   0.89655   0.00000  Uiso   1.00
H310   H     0.85261   0.94740   0.90112   0.00000  Uiso   1.00
H311   H     0.08195   0.74083   0.88832   0.00000  Uiso   1.00
H312   H     0.67494   0.69648   0.87622   0.00000  Uiso   1.00
H313   H     0.83976   0.07135   0.88585   0.00000  Uiso   1.00
O314   O     0.15254   0.71251   0.81865   0.00000  Uiso   1.00
O315   O     0.61855   0.65432   0.80278   0.00000  Uiso   1.00
O316   O     0.83479   0.14615   0.81541   0.00000  Uiso   1.00
N317   N     0.07262   0.74928   0.77851   0.00000  Uiso   1.00
N318   N     0.69210   0.70780   0.76720   0.00000  Uiso   1.00
N319   N     0.84617   0.05828   0.77620   0.00000  Uiso   1.00
N320   N     0.06930   0.74772   0.85512   0.00000  Uiso   1.00
N321   N     0.68877   0.70624   0.84381   0.00000  Uiso   1.00
N322   N     0.84285   0.05672   0.85281   0.00000  Uiso   1.00
C323   C     0.37062   0.33860   0.26723   0.00000  Uiso   1.00
C324   C     0.42549   0.31361   0.28906   0.00000  Uiso   1.00
C325   C     0.47346   0.29346   0.26474   0.00000  Uiso   1.00
C326   C     0.51930   0.27225   0.29112   0.00000  Uiso   1.00
C327   C     0.60479   0.23358   0.31757   0.00000  Uiso   1.00
C328   C     0.32061   0.30217   0.28594   0.00000  Uiso   1.00
C329   C     0.28041   0.27241   0.25900   0.00000  Uiso   1.00
C330   C     0.23796   0.24157   0.28276   0.00000  Uiso   1.00
C331   C     0.16062   0.18517   0.30437   0.00000  Uiso   1.00
C332   C     0.36309   0.39876   0.28842   0.00000  Uiso   1.00
C333   C     0.35858   0.45022   0.26357   0.00000  Uiso   1.00
C334   C     0.35188   0.50070   0.28941   0.00000  Uiso   1.00
C335   C     0.34048   0.59427   0.31488   0.00000  Uiso   1.00
C336   C     0.36671   0.33677   0.35732   0.00000  Uiso   1.00
C337   C     0.42336   0.31262   0.33800   0.00000  Uiso   1.00
C338   C     0.46913   0.29144   0.36442   0.00000  Uiso   1.00
C339   C     0.51717   0.27126   0.34014   0.00000  Uiso   1.00
C340   C     0.31849   0.30118   0.33488   0.00000  Uiso   1.00
C341   C     0.27608   0.27038   0.35868   0.00000  Uiso   1.00
C342   C     0.23583   0.24058   0.33178   0.00000  Uiso   1.00
C343   C     0.36096   0.39777   0.33736   0.00000  Uiso   1.00
C344   C     0.35426   0.44819   0.36325   0.00000  Uiso   1.00
C345   C     0.34975   0.49971   0.33844   0.00000  Uiso   1.00
H346   H     0.37228   0.33938   0.22913   0.00000  Uiso   1.00
H347   H     0.47509   0.29424   0.22687   0.00000  Uiso   1.00
H348   H     0.28207   0.27319   0.22113   0.00000  Uiso   1.00
H349   H     0.36023   0.45097   0.22570   0.00000  Uiso   1.00
H350   H     0.58813   0.24373   0.24594   0.00000  Uiso   1.00
H351   H     0.18112   0.19937   0.23385   0.00000  Uiso   1.00
H352   H     0.34594   0.57425   0.24347   0.00000  Uiso   1.00
H353   H     0.36505   0.33600   0.39542   0.00000  Uiso   1.00
H354   H     0.46747   0.29067   0.40229   0.00000  Uiso   1.00
H355   H     0.27445   0.26962   0.39655   0.00000  Uiso   1.00
H356   H     0.35261   0.44740   0.40112   0.00000  Uiso   1.00
H357   H     0.58195   0.24083   0.38832   0.00000  Uiso   1.00
H358   H     0.17494   0.19648   0.37622   0.00000  Uiso   1.00
H359   H     0.33976   0.57135   0.38585   0.00000  Uiso   1.00
O360   O     0.65254   0.21251   0.31865   0.00000  Uiso   1.00
O361   O     0.11855   0.15432   0.30278   0.00000  Uiso   1.00
O362   O     0.33479   0.64615   0.31541   0.00000  Uiso   1.00
N363   N     0.57262   0.24928   0.27851   0.00000  Uiso   1.00
N364   N     0.19210   0.20780   0.26720   0.00000  Uiso   1.00
N365   N     0.34617   0.55828   0.27620   0.00000  Uiso   1.00
N366   N     0.56930   0.24772   0.35512   0.00000  Uiso   1.00
N367   N     0.18877   0.20624   0.34381   0.00000  Uiso   1.00
N368   N     0.34285   0.55672   0.35281   0.00000  Uiso   1.00
C369   C     0.83860   0.12938   0.23277   0.00000  Uiso   1.00
C370   C     0.81361   0.07451   0.21094   0.00000  Uiso   1.00
C371   C     0.79346   0.02654   0.23526   0.00000  Uiso   1.00
C372   C     0.77225   0.98070   0.20888   0.00000  Uiso   1.00
C373   C     0.73358   0.89521   0.18243   0.00000  Uiso   1.00
C374   C     0.80217   0.17939   0.21406   0.00000  Uiso   1.00
C375   C     0.77241   0.21959   0.24100   0.00000  Uiso   1.00
C376   C     0.74157   0.26204   0.21724   0.00000  Uiso   1.00
C377   C     0.68517   0.33938   0.19563   0.00000  Uiso   1.00
C378   C     0.89876   0.13691   0.21158   0.00000  Uiso   1.00
C379   C     0.95022   0.14142   0.23643   0.00000  Uiso   1.00
C380   C     0.00070   0.14812   0.21059   0.00000  Uiso   1.00
C381   C     0.09427   0.15952   0.18512   0.00000  Uiso   1.00
C382   C     0.83677   0.13329   0.14268   0.00000  Uiso   1.00
C383   C     0.81262   0.07664   0.16200   0.00000  Uiso   1.00
C384   C     0.79144   0.03087   0.13558   0.00000  Uiso   1.00
C385   C     0.77126   0.98283   0.15986   0.00000  Uiso   1.00
C386   C     0.80118   0.18151   0.16512   0.00000  Uiso   1.00
C387   C     0.77038   0.22392   0.14132   0.00000  Uiso   1.00
C388   C     0.74058   0.26417   0.16822   0.00000  Uiso   1.00
C389   C     0.89777   0.13904   0.16264   0.00000  Uiso   1.00
C390   C     0.94819   0.14574   0.13675   0.00000  Uiso   1.00
C391   C     0.99971   0.15025   0.16156   0.00000  Uiso   1.00
H392   H     0.83938   0.12772   0.27087   0.00000  Uiso   1.00
H393   H     0.79424   0.02491   0.27313   0.00000  Uiso   1.00
H394   H     0.77319   0.21793   0.27887   0.00000  Uiso   1.00
H395   H     0.95097   0.13977   0.27430   0.00000  Uiso   1.00
H396   H     0.74373   0.91187   0.25406   0.00000  Uiso   1.00
H397   H     0.69937   0.31888   0.26615   0.00000  Uiso   1.00
H398   H     0.07425   0.15406   0.25653   0.00000  Uiso   1.00
H399   H     0.83600   0.13495   0.10458   0.00000  Uiso   1.00
H400   H     0.79067   0.03253   0.09771   0.00000  Uiso   1.00
H401   H     0.76962   0.22555   0.10345   0.00000  Uiso   1.00
H402   H     0.94740   0.14739   0.09888   0.00000  Uiso   1.00
H403   H     0.74083   0.91805   0.11168   0.00000  Uiso   1.00
H404   H     0.69648   0.32506   0.12378   0.00000  Uiso   1.00
H405   H     0.07135   0.16024   0.11415   0.00000  Uiso   1.00
O406   O     0.71251   0.84746   0.18135   0.00000  Uiso   1.00
O407   O     0.65432   0.38145   0.19722   0.00000  Uiso   1.00
O408   O     0.14615   0.16521   0.18459   0.00000  Uiso   1.00
N409   N     0.74928   0.92738   0.22149   0.00000  Uiso   1.00
N410   N     0.70780   0.30790   0.23280   0.00000  Uiso   1.00
N411   N     0.05828   0.15383   0.22380   0.00000  Uiso   1.00
N412   N     0.74772   0.93070   0.14488   0.00000  Uiso   1.00
N413   N     0.70624   0.31123   0.15619   0.00000  Uiso   1.00
N414   N     0.05672   0.15715   0.14719   0.00000  Uiso   1.00
C415   C     0.33860   0.62938   0.73277   0.00000  Uiso   1.00
C416   C     0.31361   0.57451   0.71094   0.00000  Uiso   1.00
C417   C     0.29346   0.52654   0.73526   0.00000  Uiso   1.00
C418   C     0.27225   0.48070   0.70888   0.00000  Uiso   1.00
C419   C     0.23358   0.39521   0.68243   0.00000  Uiso   1.00
C420   C     0.30217   0.67939   0.71406   0.00000  Uiso   1.00
C421   C     0.27241   0.71959   0.74100   0.00000  Uiso   1.00
C422   C     0.24157   0.76204   0.71724   0.00000  Uiso   1.00
C423   C     0.18517   0.83938   0.69563   0.00000  Uiso   1.00
C424   C     0.39876   0.63691   0.71158   0.00000  Uiso   1.00
C425   C     0.45022   0.64142   0.73643   0.00000  Uiso   1.00
C426   C     0.50070   0.64812   0.71059   0.00000  Uiso   1.00
C427   C     0.59427   0.65952   0.68512   0.00000  Uiso   1.00
C428   C     0.33677   0.63329   0.64268   0.00000  Uiso   1.00
C429   C     0.31262   0.57664   0.66200   0.00000  Uiso   1.00
C430   C     0.29144   0.53087   0.63558   0.00000  Uiso   1.00
C431   C     0.27126   0.48283   0.65986   0.00000  Uiso   1.00
C432   C     0.30118   0.68151   0.66512   0.00000  Uiso   1.00
C433   C     0.27038   0.72392   0.64132   0.00000  Uiso   1.00
C434   C     0.24058   0.76417   0.66822   0.00000  Uiso   1.00
C435   C     0.39777   0.63904   0.66264   0.00000  Uiso   1.00
C436   C     0.44819   0.64574   0.63675   0.00000  Uiso   1.00
C437   C     0.49971   0.65025   0.66156   0.00000  Uiso   1.00
H438   H     0.33938   0.62772   0.77087   0.00000  Uiso   1.00
H439   H     0.29424   0.52491   0.77313   0.00000  Uiso   1.00
H440   H     0.27319   0.71793   0.77887   0.00000  Uiso   1.00
H441   H     0.45097   0.63977   0.77430   0.00000  Uiso   1.00
H442   H     0.24373   0.41187   0.75406   0.00000  Uiso   1.00
H443   H     0.19937   0.81888   0.76615   0.00000  Uiso   1.00
H444   H     0.57425   0.65406   0.75653   0.00000  Uiso   1.00
H445   H     0.33600   0.63495   0.60458   0.00000  Uiso   1.00
H446   H     0.29067   0.53253   0.59771   0.00000  Uiso   1.00
H447   H     0.26962   0.72555   0.60345   0.00000  Uiso   1.00
H448   H     0.44740   0.64739   0.59888   0.00000  Uiso   1.00
H449   H     0.24083   0.41805   0.61168   0.00000  Uiso   1.00
H450   H     0.19648   0.82506   0.62378   0.00000  Uiso   1.00
H451   H     0.57135   0.66024   0.61415   0.00000  Uiso   1.00
O452   O     0.21251   0.34746   0.68135   0.00000  Uiso   1.00
O453   O     0.15432   0.88145   0.69722   0.00000  Uiso   1.00
O454   O     0.64615   0.66521   0.68459   0.00000  Uiso   1.00
N455   N     0.24928   0.42738   0.72149   0.00000  Uiso   1.00
N456   N     0.20780   0.80790   0.73280   0.00000  Uiso   1.00
N457   N     0.55828   0.65383   0.72380   0.00000  Uiso   1.00
N458   N     0.24772   0.43070   0.64488   0.00000  Uiso   1.00
N459   N     0.20624   0.81123   0.65619   0.00000  Uiso   1.00
N460   N     0.55672   0.65715   0.64719   0.00000  Uiso   1.00
C461   C     0.66140   0.37062   0.73277   0.00000  Uiso   1.00
C462   C     0.68639   0.42549   0.71094   0.00000  Uiso   1.00
C463   C     0.70654   0.47346   0.73526   0.00000  Uiso   1.00
C464   C     0.72775   0.51930   0.70888   0.00000  Uiso   1.00
C465   C     0.76642   0.60479   0.68243   0.00000  Uiso   1.00
C466   C     0.69783   0.32061   0.71406   0.00000  Uiso   1.00
C467   C     0.72759   0.28041   0.74100   0.00000  Uiso   1.00
C468   C     0.75843   0.23796   0.71724   0.00000  Uiso   1.00
C469   C     0.81483   0.16062   0.69563   0.00000  Uiso   1.00
C470   C     0.60124   0.36309   0.71158   0.00000  Uiso   1.00
C471   C     0.54978   0.35858   0.73643   0.00000  Uiso   1.00
C472   C     0.49930   0.35188   0.71059   0.00000  Uiso   1.00
C473   C     0.40573   0.34048   0.68512   0.00000  Uiso   1.00
C474   C     0.66323   0.36671   0.64268   0.00000  Uiso   1.00
C475   C     0.68738   0.42336   0.66200   0.00000  Uiso   1.00
C476   C     0.70856   0.46913   0.63558   0.00000  Uiso   1.00
C477   C     0.72874   0.51717   0.65986   0.00000  Uiso   1.00
C478   C     0.69882   0.31849   0.66512   0.00000  Uiso   1.00
C479   C     0.72962   0.27608   0.64132   0.00000  Uiso   1.00
C480   C     0.75942   0.23583   0.66822   0.00000  Uiso   1.00
C481   C     0.60223   0.36096   0.66264   0.00000  Uiso   1.00
C482   C     0.55181   0.35426   0.63675   0.00000  Uiso   1.00
C483   C     0.50029   0.34975   0.66156   0.00000  Uiso   1.00
H484   H     0.66062   0.37228   0.77087   0.00000  Uiso   1.00
H485   H     0.70576   0.47509   0.77313   0.00000  Uiso   1.00
H486   H     0.72681   0.28207   0.77887   0.00000  Uiso   1.00
H487   H     0.54903   0.36023   0.77430   0.00000  Uiso   1.00
H488   H     0.75627   0.58813   0.75406   0.00000  Uiso   1.00
H489   H     0.80063   0.18112   0.76615   0.00000  Uiso   1.00
H490   H     0.42575   0.34594   0.75653   0.00000  Uiso   1.00
H491   H     0.66400   0.36505   0.60458   0.00000  Uiso   1.00
H492   H     0.70933   0.46747   0.59771   0.00000  Uiso   1.00
H493   H     0.73038   0.27445   0.60345   0.00000  Uiso   1.00
H494   H     0.55260   0.35261   0.59888   0.00000  Uiso   1.00
H495   H     0.75917   0.58195   0.61168   0.00000  Uiso   1.00
H496   H     0.80352   0.17494   0.62378   0.00000  Uiso   1.00
H497   H     0.42865   0.33976   0.61415   0.00000  Uiso   1.00
O498   O     0.78749   0.65254   0.68135   0.00000  Uiso   1.00
O499   O     0.84568   0.11855   0.69722   0.00000  Uiso   1.00
O500   O     0.35385   0.33479   0.68459   0.00000  Uiso   1.00
N501   N     0.75072   0.57262   0.72149   0.00000  Uiso   1.00
N502   N     0.79220   0.19210   0.73280   0.00000  Uiso   1.00
N503   N     0.44172   0.34617   0.72380   0.00000  Uiso   1.00
N504   N     0.75228   0.56930   0.64488   0.00000  Uiso   1.00
N505   N     0.79376   0.18877   0.65619   0.00000  Uiso   1.00
N506   N     0.44328   0.34285   0.64719   0.00000  Uiso   1.00
C507   C     0.16140   0.87062   0.23277   0.00000  Uiso   1.00
C508   C     0.18639   0.92549   0.21094   0.00000  Uiso   1.00
C509   C     0.20654   0.97346   0.23526   0.00000  Uiso   1.00
C510   C     0.22775   0.01930   0.20888   0.00000  Uiso   1.00
C511   C     0.26642   0.10479   0.18243   0.00000  Uiso   1.00
C512   C     0.19783   0.82061   0.21406   0.00000  Uiso   1.00
C513   C     0.22759   0.78041   0.24100   0.00000  Uiso   1.00
C514   C     0.25843   0.73796   0.21724   0.00000  Uiso   1.00
C515   C     0.31483   0.66062   0.19563   0.00000  Uiso   1.00
C516   C     0.10124   0.86309   0.21158   0.00000  Uiso   1.00
C517   C     0.04978   0.85858   0.23643   0.00000  Uiso   1.00
C518   C     0.99930   0.85188   0.21059   0.00000  Uiso   1.00
C519   C     0.90573   0.84048   0.18512   0.00000  Uiso   1.00
C520   C     0.16323   0.86671   0.14268   0.00000  Uiso   1.00
C521   C     0.18738   0.92336   0.16200   0.00000  Uiso   1.00
C522   C     0.20856   0.96913   0.13558   0.00000  Uiso   1.00
C523   C     0.22874   0.01717   0.15986   0.00000  Uiso   1.00
C524   C     0.19882   0.81849   0.16512   0.00000  Uiso   1.00
C525   C     0.22962   0.77608   0.14132   0.00000  Uiso   1.00
C526   C     0.25942   0.73583   0.16822   0.00000  Uiso   1.00
C527   C     0.10223   0.86096   0.16264   0.00000  Uiso   1.00
C528   C     0.05181   0.85426   0.13675   0.00000  Uiso   1.00
C529   C     0.00029   0.84975   0.16156   0.00000  Uiso   1.00
H530   H     0.16062   0.87228   0.27087   0.00000  Uiso   1.00
H531   H     0.20576   0.97509   0.27313   0.00000  Uiso   1.00
H532   H     0.22681   0.78207   0.27887   0.00000  Uiso   1.00
H533   H     0.04903   0.86023   0.27430   0.00000  Uiso   1.00
H534   H     0.25627   0.08813   0.25406   0.00000  Uiso   1.00
H535   H     0.30063   0.68112   0.26615   0.00000  Uiso   1.00
H536   H     0.92575   0.84594   0.25653   0.00000  Uiso   1.00
H537   H     0.16400   0.86505   0.10458   0.00000  Uiso   1.00
H538   H     0.20933   0.96747   0.09771   0.00000  Uiso   1.00
H539   H     0.23038   0.77445   0.10345   0.00000  Uiso   1.00
H540   H     0.05260   0.85261   0.09888   0.00000  Uiso   1.00
H541   H     0.25917   0.08195   0.11168   0.00000  Uiso   1.00
H542   H     0.30352   0.67494   0.12378   0.00000  Uiso   1.00
H543   H     0.92865   0.83976   0.11415   0.00000  Uiso   1.00
O544   O     0.28749   0.15254   0.18135   0.00000  Uiso   1.00
O545   O     0.34568   0.61855   0.19722   0.00000  Uiso   1.00
O546   O     0.85385   0.83479   0.18459   0.00000  Uiso   1.00
N547   N     0.25072   0.07262   0.22149   0.00000  Uiso   1.00
N548   N     0.29220   0.69210   0.23280   0.00000  Uiso   1.00
N549   N     0.94172   0.84617   0.22380   0.00000  Uiso   1.00
N550   N     0.25228   0.06930   0.14488   0.00000  Uiso   1.00
N551   N     0.29376   0.68877   0.15619   0.00000  Uiso   1.00
N552   N     0.94328   0.84285   0.14719   0.00000  Uiso   1.00
C553   C     0.37062   0.83860   0.98277   0.00000  Uiso   1.00
C554   C     0.42549   0.81361   0.96094   0.00000  Uiso   1.00
C555   C     0.47346   0.79346   0.98526   0.00000  Uiso   1.00
C556   C     0.51930   0.77225   0.95888   0.00000  Uiso   1.00
C557   C     0.60479   0.73358   0.93243   0.00000  Uiso   1.00
C558   C     0.32061   0.80217   0.96406   0.00000  Uiso   1.00
C559   C     0.28041   0.77241   0.99100   0.00000  Uiso   1.00
C560   C     0.23796   0.74157   0.96724   0.00000  Uiso   1.00
C561   C     0.16062   0.68517   0.94563   0.00000  Uiso   1.00
C562   C     0.36309   0.89876   0.96158   0.00000  Uiso   1.00
C563   C     0.35858   0.95022   0.98643   0.00000  Uiso   1.00
C564   C     0.35188   0.00070   0.96059   0.00000  Uiso   1.00
C565   C     0.34048   0.09427   0.93512   0.00000  Uiso   1.00
C566   C     0.36671   0.83677   0.89268   0.00000  Uiso   1.00
C567   C     0.42336   0.81262   0.91200   0.00000  Uiso   1.00
C568   C     0.46913   0.79144   0.88558   0.00000  Uiso   1.00
C569   C     0.51717   0.77126   0.90986   0.00000  Uiso   1.00
C570   C     0.31849   0.80118   0.91512   0.00000  Uiso   1.00
C571   C     0.27608   0.77038   0.89132   0.00000  Uiso   1.00
C572   C     0.23583   0.74058   0.91822   0.00000  Uiso   1.00
C573   C     0.36096   0.89777   0.91264   0.00000  Uiso   1.00
C574   C     0.35426   0.94819   0.88675   0.00000  Uiso   1.00
C575   C     0.34975   0.99971   0.91156   0.00000  Uiso   1.00
H576   H     0.37228   0.83938   0.02087   0.00000  Uiso   1.00
H577   H     0.47509   0.79424   0.02313   0.00000  Uiso   1.00
H578   H     0.28207   0.77319   0.02887   0.00000  Uiso   1.00
H579   H     0.36023   0.95097   0.02430   0.00000  Uiso   1.00
H580   H     0.58813   0.74373   0.00406   0.00000  Uiso   1.00
H581   H     0.18112   0.69937   0.01615   0.00000  Uiso   1.00
H582   H     0.34594   0.07425   0.00653   0.00000  Uiso   1.00
H583   H     0.36505   0.83600   0.85458   0.00000  Uiso   1.00
H584   H     0.46747   0.79067   0.84771   0.00000  Uiso   1.00
H585   H     0.27445   0.76962   0.85345   0.00000  Uiso   1.00
H586   H     0.35261   0.94740   0.84888   0.00000  Uiso   1.00
H587   H     0.58195   0.74083   0.86168   0.00000  Uiso   1.00
H588   H     0.17494   0.69648   0.87378   0.00000  Uiso   1.00
H589   H     0.33976   0.07135   0.86415   0.00000  Uiso   1.00
O590   O     0.65254   0.71251   0.93135   0.00000  Uiso   1.00
O591   O     0.11855   0.65432   0.94722   0.00000  Uiso   1.00
O592   O     0.33479   0.14615   0.93459   0.00000  Uiso   1.00
N593   N     0.57262   0.74928   0.97149   0.00000  Uiso   1.00
N594   N     0.19210   0.70780   0.98280   0.00000  Uiso   1.00
N595   N     0.34617   0.05828   0.97380   0.00000  Uiso   1.00
N596   N     0.56930   0.74772   0.89488   0.00000  Uiso   1.00
N597   N     0.18877   0.70624   0.90619   0.00000  Uiso   1.00
N598   N     0.34285   0.05672   0.89719   0.00000  Uiso   1.00
C599   C     0.87062   0.33860   0.48277   0.00000  Uiso   1.00
C600   C     0.92549   0.31361   0.46094   0.00000  Uiso   1.00
C601   C     0.97346   0.29346   0.48526   0.00000  Uiso   1.00
C602   C     0.01930   0.27225   0.45888   0.00000  Uiso   1.00
C603   C     0.10479   0.23358   0.43243   0.00000  Uiso   1.00
C604   C     0.82061   0.30217   0.46406   0.00000  Uiso   1.00
C605   C     0.78041   0.27241   0.49100   0.00000  Uiso   1.00
C606   C     0.73796   0.24157   0.46724   0.00000  Uiso   1.00
C607   C     0.66062   0.18517   0.44563   0.00000  Uiso   1.00
C608   C     0.86309   0.39876   0.46158   0.00000  Uiso   1.00
C609   C     0.85858   0.45022   0.48643   0.00000  Uiso   1.00
C610   C     0.85188   0.50070   0.46059   0.00000  Uiso   1.00
C611   C     0.84048   0.59427   0.43512   0.00000  Uiso   1.00
C612   C     0.86671   0.33677   0.39268   0.00000  Uiso   1.00
C613   C     0.92336   0.31262   0.41200   0.00000  Uiso   1.00
C614   C     0.96913   0.29144   0.38558   0.00000  Uiso   1.00
C615   C     0.01717   0.27126   0.40986   0.00000  Uiso   1.00
C616   C     0.81849   0.30118   0.41512   0.00000  Uiso   1.00
C617   C     0.77608   0.27038   0.39132   0.00000  Uiso   1.00
C618   C     0.73583   0.24058   0.41822   0.00000  Uiso   1.00
C619   C     0.86096   0.39777   0.41264   0.00000  Uiso   1.00
C620   C     0.85426   0.44819   0.38675   0.00000  Uiso   1.00
C621   C     0.84975   0.49971   0.41156   0.00000  Uiso   1.00
H622   H     0.87228   0.33938   0.52087   0.00000  Uiso   1.00
H623   H     0.97509   0.29424   0.52313   0.00000  Uiso   1.00
H624   H     0.78207   0.27319   0.52887   0.00000  Uiso   1.00
H625   H     0.86023   0.45097   0.52430   0.00000  Uiso   1.00
H626   H     0.08813   0.24373   0.50406   0.00000  Uiso   1.00
H627   H     0.68112   0.19937   0.51615   0.00000  Uiso   1.00
H628   H     0.84594   0.57425   0.50653   0.00000  Uiso   1.00
H629   H     0.86505   0.33600   0.35458   0.00000  Uiso   1.00
H630   H     0.96747   0.29067   0.34771   0.00000  Uiso   1.00
H631   H     0.77445   0.26962   0.35345   0.00000  Uiso   1.00
H632   H     0.85261   0.44740   0.34888   0.00000  Uiso   1.00
H633   H     0.08195   0.24083   0.36168   0.00000  Uiso   1.00
H634   H     0.67494   0.19648   0.37378   0.00000  Uiso   1.00
H635   H     0.83976   0.57135   0.36415   0.00000  Uiso   1.00
O636   O     0.15254   0.21251   0.43135   0.00000  Uiso   1.00
O637   O     0.61855   0.15432   0.44722   0.00000  Uiso   1.00
O638   O     0.83479   0.64615   0.43459   0.00000  Uiso   1.00
N639   N     0.07262   0.24928   0.47149   0.00000  Uiso   1.00
N640   N     0.69210   0.20780   0.48280   0.00000  Uiso   1.00
N641   N     0.84617   0.55828   0.47380   0.00000  Uiso   1.00
N642   N     0.06930   0.24772   0.39488   0.00000  Uiso   1.00
N643   N     0.68877   0.20624   0.40619   0.00000  Uiso   1.00
N644   N     0.84285   0.55672   0.39719   0.00000  Uiso   1.00
C645   C     0.12938   0.66140   0.48277   0.00000  Uiso   1.00
C646   C     0.07451   0.68639   0.46094   0.00000  Uiso   1.00
C647   C     0.02654   0.70654   0.48526   0.00000  Uiso   1.00
C648   C     0.98070   0.72775   0.45888   0.00000  Uiso   1.00
C649   C     0.89521   0.76642   0.43243   0.00000  Uiso   1.00
C650   C     0.17939   0.69783   0.46406   0.00000  Uiso   1.00
C651   C     0.21959   0.72759   0.49100   0.00000  Uiso   1.00
C652   C     0.26204   0.75843   0.46724   0.00000  Uiso   1.00
C653   C     0.33938   0.81483   0.44563   0.00000  Uiso   1.00
C654   C     0.13691   0.60124   0.46158   0.00000  Uiso   1.00
C655   C     0.14142   0.54978   0.48643   0.00000  Uiso   1.00
C656   C     0.14812   0.49930   0.46059   0.00000  Uiso   1.00
C657   C     0.15952   0.40573   0.43512   0.00000  Uiso   1.00
C658   C     0.13329   0.66323   0.39268   0.00000  Uiso   1.00
C659   C     0.07664   0.68738   0.41200   0.00000  Uiso   1.00
C660   C     0.03087   0.70856   0.38558   0.00000  Uiso   1.00
C661   C     0.98283   0.72874   0.40986   0.00000  Uiso   1.00
C662   C     0.18151   0.69882   0.41512   0.00000  Uiso   1.00
C663   C     0.22392   0.72962   0.39132   0.00000  Uiso   1.00
C664   C     0.26417   0.75942   0.41822   0.00000  Uiso   1.00
C665   C     0.13904   0.60223   0.41264   0.00000  Uiso   1.00
C666   C     0.14574   0.55181   0.38675   0.00000  Uiso   1.00
C667   C     0.15025   0.50029   0.41156   0.00000  Uiso   1.00
H668   H     0.12772   0.66062   0.52087   0.00000  Uiso   1.00
H669   H     0.02491   0.70576   0.52313   0.00000  Uiso   1.00
H670   H     0.21793   0.72681   0.52887   0.00000  Uiso   1.00
H671   H     0.13977   0.54903   0.52430   0.00000  Uiso   1.00
H672   H     0.91187   0.75627   0.50406   0.00000  Uiso   1.00
H673   H     0.31888   0.80063   0.51615   0.00000  Uiso   1.00
H674   H     0.15406   0.42575   0.50653   0.00000  Uiso   1.00
H675   H     0.13495   0.66400   0.35458   0.00000  Uiso   1.00
H676   H     0.03253   0.70933   0.34771   0.00000  Uiso   1.00
H677   H     0.22555   0.73038   0.35345   0.00000  Uiso   1.00
H678   H     0.14739   0.55260   0.34888   0.00000  Uiso   1.00
H679   H     0.91805   0.75917   0.36168   0.00000  Uiso   1.00
H680   H     0.32506   0.80352   0.37378   0.00000  Uiso   1.00
H681   H     0.16024   0.42865   0.36415   0.00000  Uiso   1.00
O682   O     0.84746   0.78749   0.43135   0.00000  Uiso   1.00
O683   O     0.38145   0.84568   0.44722   0.00000  Uiso   1.00
O684   O     0.16521   0.35385   0.43459   0.00000  Uiso   1.00
N685   N     0.92738   0.75072   0.47149   0.00000  Uiso   1.00
N686   N     0.30790   0.79220   0.48280   0.00000  Uiso   1.00
N687   N     0.15383   0.44172   0.47380   0.00000  Uiso   1.00
N688   N     0.93070   0.75228   0.39488   0.00000  Uiso   1.00
N689   N     0.31123   0.79376   0.40619   0.00000  Uiso   1.00
N690   N     0.15715   0.44328   0.39719   0.00000  Uiso   1.00
C691   C     0.62938   0.16140   0.98277   0.00000  Uiso   1.00
C692   C     0.57451   0.18639   0.96094   0.00000  Uiso   1.00
C693   C     0.52654   0.20654   0.98526   0.00000  Uiso   1.00
C694   C     0.48070   0.22775   0.95888   0.00000  Uiso   1.00
C695   C     0.39521   0.26642   0.93243   0.00000  Uiso   1.00
C696   C     0.67939   0.19783   0.96406   0.00000  Uiso   1.00
C697   C     0.71959   0.22759   0.99100   0.00000  Uiso   1.00
C698   C     0.76204   0.25843   0.96724   0.00000  Uiso   1.00
C699   C     0.83938   0.31483   0.94563   0.00000  Uiso   1.00
C700   C     0.63691   0.10124   0.96158   0.00000  Uiso   1.00
C701   C     0.64142   0.04978   0.98643   0.00000  Uiso   1.00
C702   C     0.64812   0.99930   0.96059   0.00000  Uiso   1.00
C703   C     0.65952   0.90573   0.93512   0.00000  Uiso   1.00
C704   C     0.63329   0.16323   0.89268   0.00000  Uiso   1.00
C705   C     0.57664   0.18738   0.91200   0.00000  Uiso   1.00
C706   C     0.53087   0.20856   0.88558   0.00000  Uiso   1.00
C707   C     0.48283   0.22874   0.90986   0.00000  Uiso   1.00
C708   C     0.68151   0.19882   0.91512   0.00000  Uiso   1.00
C709   C     0.72392   0.22962   0.89132   0.00000  Uiso   1.00
C710   C     0.76417   0.25942   0.91822   0.00000  Uiso   1.00
C711   C     0.63904   0.10223   0.91264   0.00000  Uiso   1.00
C712   C     0.64574   0.05181   0.88675   0.00000  Uiso   1.00
C713   C     0.65025   0.00029   0.91156   0.00000  Uiso   1.00
H714   H     0.62772   0.16062   0.02087   0.00000  Uiso   1.00
H715   H     0.52491   0.20576   0.02313   0.00000  Uiso   1.00
H716   H     0.71793   0.22681   0.02887   0.00000  Uiso   1.00
H717   H     0.63977   0.04903   0.02430   0.00000  Uiso   1.00
H718   H     0.41187   0.25627   0.00406   0.00000  Uiso   1.00
H719   H     0.81888   0.30063   0.01615   0.00000  Uiso   1.00
H720   H     0.65406   0.92575   0.00653   0.00000  Uiso   1.00
H721   H     0.63495   0.16400   0.85458   0.00000  Uiso   1.00
H722   H     0.53253   0.20933   0.84771   0.00000  Uiso   1.00
H723   H     0.72555   0.23038   0.85345   0.00000  Uiso   1.00
H724   H     0.64739   0.05260   0.84888   0.00000  Uiso   1.00
H725   H     0.41805   0.25917   0.86168   0.00000  Uiso   1.00
H726   H     0.82506   0.30352   0.87378   0.00000  Uiso   1.00
H727   H     0.66024   0.92865   0.86415   0.00000  Uiso   1.00
O728   O     0.34746   0.28749   0.93135   0.00000  Uiso   1.00
O729   O     0.88145   0.34568   0.94722   0.00000  Uiso   1.00
O730   O     0.66521   0.85385   0.93459   0.00000  Uiso   1.00
N731   N     0.42738   0.25072   0.97149   0.00000  Uiso   1.00
N732   N     0.80790   0.29220   0.98280   0.00000  Uiso   1.00
N733   N     0.65383   0.94172   0.97380   0.00000  Uiso   1.00
N734   N     0.43070   0.25228   0.89488   0.00000  Uiso   1.00
N735   N     0.81123   0.29376   0.90619   0.00000  Uiso   1.00
N736   N     0.65715   0.94328   0.89719   0.00000  Uiso   1.00
