data_job_02897
_audit_creation_date              2018-12-19
_audit_creation_method            'Materials Studio'
_symmetry_space_group_name_H-M    'P1'
_symmetry_Int_Tables_number       1
_symmetry_cell_setting            triclinic
loop_
_symmetry_equiv_pos_as_xyz
  x,y,z
_cell_length_a                    10.2718
_cell_length_b                    28.4221
_cell_length_c                    48.8222
_cell_angle_alpha                 90.0000
_cell_angle_beta                  90.0000
_cell_angle_gamma                 90.0000
loop_
_atom_site_label
_atom_site_type_symbol
_atom_site_fract_x
_atom_site_fract_y
_atom_site_fract_z
_atom_site_U_iso_or_equiv
_atom_site_adp_type
_atom_site_occupancy
C1     C     0.06839   0.21424   0.62940   0.00000  Uiso   1.00
C2     C     0.99996   0.22022   0.60190   0.00000  Uiso   1.00
C3     C     0.00039   0.26067   0.58598   0.00000  Uiso   1.00
C4     C     0.93188   0.25908   0.56148   0.00000  Uiso   1.00
C5     C     0.83568   0.27455   0.52005   0.00000  Uiso   1.00
C6     C     0.96324   0.19941   0.64969   0.00000  Uiso   1.00
C7     C     0.93281   0.22237   0.67395   0.00000  Uiso   1.00
C8     C     0.83341   0.20325   0.68968   0.00000  Uiso   1.00
C9     C     0.68027   0.18640   0.72245   0.00000  Uiso   1.00
C10    C     0.15808   0.17184   0.62620   0.00000  Uiso   1.00
C11    C     0.29147   0.17160   0.63071   0.00000  Uiso   1.00
C12    C     0.35611   0.12926   0.62667   0.00000  Uiso   1.00
C13    C     0.50548   0.06960   0.62296   0.00000  Uiso   1.00
C14    C     0.94598   0.13947   0.61420   0.00000  Uiso   1.00
C15    C     0.93346   0.17961   0.59365   0.00000  Uiso   1.00
C16    C     0.86495   0.17795   0.56917   0.00000  Uiso   1.00
C17    C     0.86528   0.21839   0.55321   0.00000  Uiso   1.00
C18    C     0.89675   0.15880   0.64144   0.00000  Uiso   1.00
C19    C     0.79737   0.13964   0.65714   0.00000  Uiso   1.00
C20    C     0.76680   0.16256   0.68141   0.00000  Uiso   1.00
C21    C     0.09159   0.13123   0.61794   0.00000  Uiso   1.00
C22    C     0.15603   0.08888   0.61389   0.00000  Uiso   1.00
C23    C     0.28949   0.08858   0.61840   0.00000  Uiso   1.00
H24    H     0.12015   0.24586   0.63583   0.00000  Uiso   1.00
H25    H     0.05184   0.29210   0.59238   0.00000  Uiso   1.00
H26    H     0.98429   0.25379   0.68033   0.00000  Uiso   1.00
H27    H     0.34289   0.20304   0.63710   0.00000  Uiso   1.00
H28    H     0.94675   0.32546   0.54057   0.00000  Uiso   1.00
H29    H     0.80434   0.24468   0.72603   0.00000  Uiso   1.00
H30    H     0.56052   0.13766   0.63486   0.00000  Uiso   1.00
H31    H     0.89421   0.10785   0.60778   0.00000  Uiso   1.00
H32    H     0.81350   0.14652   0.56279   0.00000  Uiso   1.00
H33    H     0.74595   0.10821   0.65074   0.00000  Uiso   1.00
H34    H     0.10454   0.05746   0.60751   0.00000  Uiso   1.00
H35    H     0.75330   0.20730   0.51655   0.00000  Uiso   1.00
H36    H     0.61089   0.12652   0.70202   0.00000  Uiso   1.00
H37    H     0.36706   0.01950   0.61085   0.00000  Uiso   1.00
O38    O     0.80097   0.29431   0.49948   0.00000  Uiso   1.00
O39    O     0.61416   0.18833   0.74280   0.00000  Uiso   1.00
O40    O     0.60624   0.04792   0.62319   0.00000  Uiso   1.00
N41    N     0.91232   0.29234   0.54109   0.00000  Uiso   1.00
N42    N     0.77916   0.21682   0.71448   0.00000  Uiso   1.00
N43    N     0.48612   0.11676   0.62926   0.00000  Uiso   1.00
N44    N     0.80822   0.22876   0.52817   0.00000  Uiso   1.00
N45    N     0.67507   0.15324   0.70156   0.00000  Uiso   1.00
N46    N     0.38202   0.05318   0.61633   0.00000  Uiso   1.00
C47    C     0.83279   0.22372   0.37325   0.00000  Uiso   1.00
C48    C     0.91351   0.23326   0.39887   0.00000  Uiso   1.00
C49    C     0.90971   0.27403   0.41449   0.00000  Uiso   1.00
C50    C     0.99112   0.27593   0.43717   0.00000  Uiso   1.00
C51    C     0.10400   0.29647   0.47590   0.00000  Uiso   1.00
C52    C     0.93005   0.21227   0.35061   0.00000  Uiso   1.00
C53    C     0.94013   0.23538   0.32566   0.00000  Uiso   1.00
C54    C     0.03545   0.21961   0.30771   0.00000  Uiso   1.00
C55    C     0.17394   0.20753   0.27152   0.00000  Uiso   1.00
C56    C     0.75854   0.17825   0.37882   0.00000  Uiso   1.00
C57    C     0.62442   0.17276   0.37759   0.00000  Uiso   1.00
C58    C     0.57534   0.12835   0.38338   0.00000  Uiso   1.00
C59    C     0.44754   0.06346   0.39100   0.00000  Uiso   1.00
C60    C     0.98414   0.15460   0.38573   0.00000  Uiso   1.00
C61    C     0.99572   0.19572   0.40565   0.00000  Uiso   1.00
C62    C     0.07716   0.19755   0.42830   0.00000  Uiso   1.00
C63    C     0.07347   0.23832   0.44396   0.00000  Uiso   1.00
C64    C     0.01226   0.17473   0.35739   0.00000  Uiso   1.00
C65    C     0.10758   0.15891   0.33947   0.00000  Uiso   1.00
C66    C     0.11781   0.18199   0.31450   0.00000  Uiso   1.00
C67    C     0.84075   0.14071   0.38560   0.00000  Uiso   1.00
C68    C     0.79187   0.09629   0.39140   0.00000  Uiso   1.00
C69    C     0.65770   0.09074   0.39017   0.00000  Uiso   1.00
H70    H     0.76880   0.25294   0.36797   0.00000  Uiso   1.00
H71    H     0.84609   0.30307   0.40924   0.00000  Uiso   1.00
H72    H     0.87649   0.26443   0.32042   0.00000  Uiso   1.00
H73    H     0.56084   0.20182   0.37234   0.00000  Uiso   1.00
H74    H     0.96806   0.34210   0.45797   0.00000  Uiso   1.00
H75    H     0.03215   0.26061   0.27069   0.00000  Uiso   1.00
H76    H     0.36652   0.12859   0.38017   0.00000  Uiso   1.00
H77    H     0.04815   0.12537   0.39101   0.00000  Uiso   1.00
H78    H     0.14076   0.16850   0.43355   0.00000  Uiso   1.00
H79    H     0.17117   0.12985   0.34473   0.00000  Uiso   1.00
H80    H     0.85552   0.06725   0.39665   0.00000  Uiso   1.00
H81    H     0.20724   0.23288   0.47770   0.00000  Uiso   1.00
H82    H     0.27132   0.15138   0.29042   0.00000  Uiso   1.00
H83    H     0.60570   0.01937   0.39990   0.00000  Uiso   1.00
O84    O     0.14357   0.31817   0.49540   0.00000  Uiso   1.00
O85    O     0.22763   0.21125   0.24969   0.00000  Uiso   1.00
O86    O     0.35434   0.03805   0.39333   0.00000  Uiso   1.00
N87    N     0.01162   0.31047   0.45678   0.00000  Uiso   1.00
N88    N     0.07155   0.23429   0.28169   0.00000  Uiso   1.00
N89    N     0.44925   0.11086   0.38404   0.00000  Uiso   1.00
N90    N     0.14032   0.25170   0.46740   0.00000  Uiso   1.00
N91    N     0.20025   0.17551   0.29231   0.00000  Uiso   1.00
N92    N     0.57795   0.05209   0.39465   0.00000  Uiso   1.00
C93    C     0.06839   0.71424   0.12940   0.00000  Uiso   1.00
C94    C     0.99996   0.72022   0.10190   0.00000  Uiso   1.00
C95    C     0.00039   0.76067   0.08598   0.00000  Uiso   1.00
C96    C     0.93188   0.75908   0.06148   0.00000  Uiso   1.00
C97    C     0.83568   0.77455   0.02005   0.00000  Uiso   1.00
C98    C     0.96324   0.69941   0.14969   0.00000  Uiso   1.00
C99    C     0.93281   0.72237   0.17395   0.00000  Uiso   1.00
C100   C     0.83341   0.70325   0.18968   0.00000  Uiso   1.00
C101   C     0.68027   0.68640   0.22245   0.00000  Uiso   1.00
C102   C     0.15808   0.67184   0.12620   0.00000  Uiso   1.00
C103   C     0.29147   0.67160   0.13071   0.00000  Uiso   1.00
C104   C     0.35611   0.62926   0.12667   0.00000  Uiso   1.00
C105   C     0.50548   0.56960   0.12296   0.00000  Uiso   1.00
C106   C     0.94598   0.63947   0.11420   0.00000  Uiso   1.00
C107   C     0.93346   0.67961   0.09365   0.00000  Uiso   1.00
C108   C     0.86495   0.67795   0.06917   0.00000  Uiso   1.00
C109   C     0.86528   0.71839   0.05321   0.00000  Uiso   1.00
C110   C     0.89675   0.65880   0.14144   0.00000  Uiso   1.00
C111   C     0.79737   0.63964   0.15714   0.00000  Uiso   1.00
C112   C     0.76680   0.66256   0.18141   0.00000  Uiso   1.00
C113   C     0.09159   0.63123   0.11794   0.00000  Uiso   1.00
C114   C     0.15603   0.58888   0.11389   0.00000  Uiso   1.00
C115   C     0.28949   0.58858   0.11840   0.00000  Uiso   1.00
H116   H     0.12015   0.74586   0.13583   0.00000  Uiso   1.00
H117   H     0.05184   0.79210   0.09238   0.00000  Uiso   1.00
H118   H     0.98429   0.75379   0.18033   0.00000  Uiso   1.00
H119   H     0.34289   0.70304   0.13710   0.00000  Uiso   1.00
H120   H     0.94675   0.82546   0.04057   0.00000  Uiso   1.00
H121   H     0.80434   0.74468   0.22603   0.00000  Uiso   1.00
H122   H     0.56052   0.63766   0.13486   0.00000  Uiso   1.00
H123   H     0.89421   0.60785   0.10778   0.00000  Uiso   1.00
H124   H     0.81350   0.64652   0.06279   0.00000  Uiso   1.00
H125   H     0.74595   0.60821   0.15074   0.00000  Uiso   1.00
H126   H     0.10454   0.55746   0.10751   0.00000  Uiso   1.00
H127   H     0.75330   0.70730   0.01655   0.00000  Uiso   1.00
H128   H     0.61089   0.62652   0.20202   0.00000  Uiso   1.00
H129   H     0.36706   0.51950   0.11085   0.00000  Uiso   1.00
O130   O     0.80097   0.79431   0.99948   0.00000  Uiso   1.00
O131   O     0.61416   0.68833   0.24280   0.00000  Uiso   1.00
O132   O     0.60624   0.54792   0.12319   0.00000  Uiso   1.00
N133   N     0.91232   0.79234   0.04109   0.00000  Uiso   1.00
N134   N     0.77916   0.71682   0.21448   0.00000  Uiso   1.00
N135   N     0.48612   0.61676   0.12926   0.00000  Uiso   1.00
N136   N     0.80822   0.72876   0.02817   0.00000  Uiso   1.00
N137   N     0.67507   0.65324   0.20156   0.00000  Uiso   1.00
N138   N     0.38202   0.55318   0.11633   0.00000  Uiso   1.00
C139   C     0.83279   0.72372   0.87325   0.00000  Uiso   1.00
C140   C     0.91351   0.73326   0.89887   0.00000  Uiso   1.00
C141   C     0.90971   0.77403   0.91449   0.00000  Uiso   1.00
C142   C     0.99112   0.77593   0.93717   0.00000  Uiso   1.00
C143   C     0.10400   0.79647   0.97590   0.00000  Uiso   1.00
C144   C     0.93005   0.71227   0.85061   0.00000  Uiso   1.00
C145   C     0.94013   0.73538   0.82566   0.00000  Uiso   1.00
C146   C     0.03545   0.71961   0.80771   0.00000  Uiso   1.00
C147   C     0.17394   0.70753   0.77152   0.00000  Uiso   1.00
C148   C     0.75854   0.67825   0.87882   0.00000  Uiso   1.00
C149   C     0.62442   0.67276   0.87759   0.00000  Uiso   1.00
C150   C     0.57534   0.62835   0.88338   0.00000  Uiso   1.00
C151   C     0.44754   0.56346   0.89100   0.00000  Uiso   1.00
C152   C     0.98414   0.65460   0.88573   0.00000  Uiso   1.00
C153   C     0.99572   0.69572   0.90565   0.00000  Uiso   1.00
C154   C     0.07716   0.69755   0.92830   0.00000  Uiso   1.00
C155   C     0.07347   0.73832   0.94396   0.00000  Uiso   1.00
C156   C     0.01226   0.67473   0.85739   0.00000  Uiso   1.00
C157   C     0.10758   0.65891   0.83947   0.00000  Uiso   1.00
C158   C     0.11781   0.68199   0.81450   0.00000  Uiso   1.00
C159   C     0.84075   0.64071   0.88560   0.00000  Uiso   1.00
C160   C     0.79187   0.59629   0.89140   0.00000  Uiso   1.00
C161   C     0.65770   0.59074   0.89017   0.00000  Uiso   1.00
H162   H     0.76880   0.75294   0.86797   0.00000  Uiso   1.00
H163   H     0.84609   0.80307   0.90924   0.00000  Uiso   1.00
H164   H     0.87649   0.76443   0.82042   0.00000  Uiso   1.00
H165   H     0.56084   0.70182   0.87234   0.00000  Uiso   1.00
H166   H     0.96806   0.84210   0.95797   0.00000  Uiso   1.00
H167   H     0.03215   0.76061   0.77069   0.00000  Uiso   1.00
H168   H     0.36652   0.62859   0.88017   0.00000  Uiso   1.00
H169   H     0.04815   0.62537   0.89101   0.00000  Uiso   1.00
H170   H     0.14076   0.66850   0.93355   0.00000  Uiso   1.00
H171   H     0.17117   0.62985   0.84473   0.00000  Uiso   1.00
H172   H     0.85552   0.56725   0.89665   0.00000  Uiso   1.00
H173   H     0.20724   0.73288   0.97770   0.00000  Uiso   1.00
H174   H     0.27132   0.65138   0.79042   0.00000  Uiso   1.00
H175   H     0.60570   0.51937   0.89990   0.00000  Uiso   1.00
O176   O     0.14357   0.81817   0.99540   0.00000  Uiso   1.00
O177   O     0.22763   0.71125   0.74969   0.00000  Uiso   1.00
O178   O     0.35434   0.53805   0.89333   0.00000  Uiso   1.00
N179   N     0.01162   0.81047   0.95678   0.00000  Uiso   1.00
N180   N     0.07155   0.73429   0.78169   0.00000  Uiso   1.00
N181   N     0.44925   0.61086   0.88404   0.00000  Uiso   1.00
N182   N     0.14032   0.75170   0.96740   0.00000  Uiso   1.00
N183   N     0.20025   0.67551   0.79231   0.00000  Uiso   1.00
N184   N     0.57795   0.55209   0.89465   0.00000  Uiso   1.00
C185   C     0.93161   0.78576   0.62940   0.00000  Uiso   1.00
C186   C     0.00004   0.77978   0.60190   0.00000  Uiso   1.00
C187   C     0.99961   0.73933   0.58598   0.00000  Uiso   1.00
C188   C     0.06812   0.74092   0.56148   0.00000  Uiso   1.00
C189   C     0.16432   0.72545   0.52005   0.00000  Uiso   1.00
C190   C     0.03676   0.80059   0.64969   0.00000  Uiso   1.00
C191   C     0.06719   0.77763   0.67395   0.00000  Uiso   1.00
C192   C     0.16659   0.79675   0.68968   0.00000  Uiso   1.00
C193   C     0.31973   0.81360   0.72245   0.00000  Uiso   1.00
C194   C     0.84192   0.82816   0.62620   0.00000  Uiso   1.00
C195   C     0.70853   0.82840   0.63071   0.00000  Uiso   1.00
C196   C     0.64389   0.87074   0.62667   0.00000  Uiso   1.00
C197   C     0.49452   0.93040   0.62296   0.00000  Uiso   1.00
C198   C     0.05402   0.86053   0.61420   0.00000  Uiso   1.00
C199   C     0.06654   0.82039   0.59365   0.00000  Uiso   1.00
C200   C     0.13505   0.82205   0.56917   0.00000  Uiso   1.00
C201   C     0.13472   0.78161   0.55321   0.00000  Uiso   1.00
C202   C     0.10325   0.84120   0.64144   0.00000  Uiso   1.00
C203   C     0.20263   0.86036   0.65714   0.00000  Uiso   1.00
C204   C     0.23320   0.83744   0.68141   0.00000  Uiso   1.00
C205   C     0.90841   0.86877   0.61794   0.00000  Uiso   1.00
C206   C     0.84397   0.91112   0.61389   0.00000  Uiso   1.00
C207   C     0.71051   0.91142   0.61840   0.00000  Uiso   1.00
H208   H     0.87985   0.75414   0.63583   0.00000  Uiso   1.00
H209   H     0.94816   0.70790   0.59238   0.00000  Uiso   1.00
H210   H     0.01571   0.74621   0.68033   0.00000  Uiso   1.00
H211   H     0.65711   0.79696   0.63710   0.00000  Uiso   1.00
H212   H     0.05325   0.67454   0.54057   0.00000  Uiso   1.00
H213   H     0.19566   0.75532   0.72603   0.00000  Uiso   1.00
H214   H     0.43948   0.86234   0.63486   0.00000  Uiso   1.00
H215   H     0.10579   0.89215   0.60778   0.00000  Uiso   1.00
H216   H     0.18650   0.85348   0.56279   0.00000  Uiso   1.00
H217   H     0.25405   0.89179   0.65074   0.00000  Uiso   1.00
H218   H     0.89546   0.94254   0.60751   0.00000  Uiso   1.00
H219   H     0.24670   0.79270   0.51655   0.00000  Uiso   1.00
H220   H     0.38911   0.87348   0.70202   0.00000  Uiso   1.00
H221   H     0.63294   0.98050   0.61085   0.00000  Uiso   1.00
O222   O     0.19903   0.70569   0.49948   0.00000  Uiso   1.00
O223   O     0.38584   0.81167   0.74280   0.00000  Uiso   1.00
O224   O     0.39376   0.95208   0.62319   0.00000  Uiso   1.00
N225   N     0.08768   0.70766   0.54109   0.00000  Uiso   1.00
N226   N     0.22084   0.78318   0.71448   0.00000  Uiso   1.00
N227   N     0.51388   0.88324   0.62926   0.00000  Uiso   1.00
N228   N     0.19178   0.77124   0.52817   0.00000  Uiso   1.00
N229   N     0.32493   0.84676   0.70156   0.00000  Uiso   1.00
N230   N     0.61798   0.94682   0.61633   0.00000  Uiso   1.00
C231   C     0.16721   0.77628   0.37325   0.00000  Uiso   1.00
C232   C     0.08649   0.76674   0.39887   0.00000  Uiso   1.00
C233   C     0.09029   0.72597   0.41449   0.00000  Uiso   1.00
C234   C     0.00888   0.72407   0.43717   0.00000  Uiso   1.00
C235   C     0.89600   0.70353   0.47590   0.00000  Uiso   1.00
C236   C     0.06995   0.78773   0.35061   0.00000  Uiso   1.00
C237   C     0.05987   0.76462   0.32566   0.00000  Uiso   1.00
C238   C     0.96455   0.78039   0.30771   0.00000  Uiso   1.00
C239   C     0.82606   0.79247   0.27152   0.00000  Uiso   1.00
C240   C     0.24146   0.82175   0.37882   0.00000  Uiso   1.00
C241   C     0.37558   0.82724   0.37759   0.00000  Uiso   1.00
C242   C     0.42466   0.87165   0.38338   0.00000  Uiso   1.00
C243   C     0.55246   0.93654   0.39100   0.00000  Uiso   1.00
C244   C     0.01586   0.84540   0.38573   0.00000  Uiso   1.00
C245   C     0.00428   0.80428   0.40565   0.00000  Uiso   1.00
C246   C     0.92284   0.80245   0.42830   0.00000  Uiso   1.00
C247   C     0.92653   0.76168   0.44396   0.00000  Uiso   1.00
C248   C     0.98774   0.82527   0.35739   0.00000  Uiso   1.00
C249   C     0.89242   0.84109   0.33947   0.00000  Uiso   1.00
C250   C     0.88219   0.81801   0.31450   0.00000  Uiso   1.00
C251   C     0.15925   0.85929   0.38560   0.00000  Uiso   1.00
C252   C     0.20813   0.90371   0.39140   0.00000  Uiso   1.00
C253   C     0.34230   0.90926   0.39017   0.00000  Uiso   1.00
H254   H     0.23120   0.74706   0.36797   0.00000  Uiso   1.00
H255   H     0.15391   0.69693   0.40924   0.00000  Uiso   1.00
H256   H     0.12351   0.73557   0.32042   0.00000  Uiso   1.00
H257   H     0.43916   0.79818   0.37234   0.00000  Uiso   1.00
H258   H     0.03194   0.65790   0.45797   0.00000  Uiso   1.00
H259   H     0.96785   0.73939   0.27069   0.00000  Uiso   1.00
H260   H     0.63348   0.87141   0.38017   0.00000  Uiso   1.00
H261   H     0.95185   0.87463   0.39101   0.00000  Uiso   1.00
H262   H     0.85924   0.83150   0.43355   0.00000  Uiso   1.00
H263   H     0.82883   0.87015   0.34473   0.00000  Uiso   1.00
H264   H     0.14448   0.93275   0.39665   0.00000  Uiso   1.00
H265   H     0.79276   0.76712   0.47770   0.00000  Uiso   1.00
H266   H     0.72868   0.84862   0.29042   0.00000  Uiso   1.00
H267   H     0.39430   0.98063   0.39990   0.00000  Uiso   1.00
O268   O     0.85643   0.68183   0.49540   0.00000  Uiso   1.00
O269   O     0.77237   0.78875   0.24969   0.00000  Uiso   1.00
O270   O     0.64566   0.96195   0.39333   0.00000  Uiso   1.00
N271   N     0.98838   0.68953   0.45678   0.00000  Uiso   1.00
N272   N     0.92845   0.76571   0.28169   0.00000  Uiso   1.00
N273   N     0.55075   0.88914   0.38404   0.00000  Uiso   1.00
N274   N     0.85968   0.74830   0.46740   0.00000  Uiso   1.00
N275   N     0.79975   0.82449   0.29231   0.00000  Uiso   1.00
N276   N     0.42205   0.94791   0.39465   0.00000  Uiso   1.00
C277   C     0.93161   0.28576   0.12940   0.00000  Uiso   1.00
C278   C     0.00004   0.27978   0.10190   0.00000  Uiso   1.00
C279   C     0.99961   0.23933   0.08598   0.00000  Uiso   1.00
C280   C     0.06812   0.24092   0.06148   0.00000  Uiso   1.00
C281   C     0.16432   0.22545   0.02005   0.00000  Uiso   1.00
C282   C     0.03676   0.30059   0.14969   0.00000  Uiso   1.00
C283   C     0.06719   0.27763   0.17395   0.00000  Uiso   1.00
C284   C     0.16659   0.29675   0.18968   0.00000  Uiso   1.00
C285   C     0.31973   0.31360   0.22245   0.00000  Uiso   1.00
C286   C     0.84192   0.32816   0.12620   0.00000  Uiso   1.00
C287   C     0.70853   0.32840   0.13071   0.00000  Uiso   1.00
C288   C     0.64389   0.37074   0.12667   0.00000  Uiso   1.00
C289   C     0.49452   0.43040   0.12296   0.00000  Uiso   1.00
C290   C     0.05402   0.36053   0.11420   0.00000  Uiso   1.00
C291   C     0.06654   0.32039   0.09365   0.00000  Uiso   1.00
C292   C     0.13505   0.32205   0.06917   0.00000  Uiso   1.00
C293   C     0.13472   0.28161   0.05321   0.00000  Uiso   1.00
C294   C     0.10325   0.34120   0.14144   0.00000  Uiso   1.00
C295   C     0.20263   0.36036   0.15714   0.00000  Uiso   1.00
C296   C     0.23320   0.33744   0.18141   0.00000  Uiso   1.00
C297   C     0.90841   0.36877   0.11794   0.00000  Uiso   1.00
C298   C     0.84397   0.41112   0.11389   0.00000  Uiso   1.00
C299   C     0.71051   0.41142   0.11840   0.00000  Uiso   1.00
H300   H     0.87985   0.25414   0.13583   0.00000  Uiso   1.00
H301   H     0.94816   0.20790   0.09238   0.00000  Uiso   1.00
H302   H     0.01571   0.24621   0.18033   0.00000  Uiso   1.00
H303   H     0.65711   0.29696   0.13710   0.00000  Uiso   1.00
H304   H     0.05325   0.17454   0.04057   0.00000  Uiso   1.00
H305   H     0.19566   0.25532   0.22603   0.00000  Uiso   1.00
H306   H     0.43948   0.36234   0.13486   0.00000  Uiso   1.00
H307   H     0.10579   0.39215   0.10778   0.00000  Uiso   1.00
H308   H     0.18650   0.35348   0.06279   0.00000  Uiso   1.00
H309   H     0.25405   0.39179   0.15074   0.00000  Uiso   1.00
H310   H     0.89546   0.44254   0.10751   0.00000  Uiso   1.00
H311   H     0.24670   0.29270   0.01655   0.00000  Uiso   1.00
H312   H     0.38911   0.37348   0.20202   0.00000  Uiso   1.00
H313   H     0.63294   0.48050   0.11085   0.00000  Uiso   1.00
O314   O     0.19903   0.20569   0.99948   0.00000  Uiso   1.00
O315   O     0.38584   0.31167   0.24280   0.00000  Uiso   1.00
O316   O     0.39376   0.45208   0.12319   0.00000  Uiso   1.00
N317   N     0.08768   0.20766   0.04109   0.00000  Uiso   1.00
N318   N     0.22084   0.28318   0.21448   0.00000  Uiso   1.00
N319   N     0.51388   0.38324   0.12926   0.00000  Uiso   1.00
N320   N     0.19178   0.27124   0.02817   0.00000  Uiso   1.00
N321   N     0.32493   0.34676   0.20156   0.00000  Uiso   1.00
N322   N     0.61798   0.44682   0.11633   0.00000  Uiso   1.00
C323   C     0.16721   0.27628   0.87325   0.00000  Uiso   1.00
C324   C     0.08649   0.26674   0.89887   0.00000  Uiso   1.00
C325   C     0.09029   0.22597   0.91449   0.00000  Uiso   1.00
C326   C     0.00888   0.22407   0.93717   0.00000  Uiso   1.00
C327   C     0.89600   0.20353   0.97590   0.00000  Uiso   1.00
C328   C     0.06995   0.28773   0.85061   0.00000  Uiso   1.00
C329   C     0.05987   0.26462   0.82566   0.00000  Uiso   1.00
C330   C     0.96455   0.28039   0.80771   0.00000  Uiso   1.00
C331   C     0.82606   0.29247   0.77152   0.00000  Uiso   1.00
C332   C     0.24146   0.32175   0.87882   0.00000  Uiso   1.00
C333   C     0.37558   0.32724   0.87759   0.00000  Uiso   1.00
C334   C     0.42466   0.37165   0.88338   0.00000  Uiso   1.00
C335   C     0.55246   0.43654   0.89100   0.00000  Uiso   1.00
C336   C     0.01586   0.34540   0.88573   0.00000  Uiso   1.00
C337   C     0.00428   0.30428   0.90565   0.00000  Uiso   1.00
C338   C     0.92284   0.30245   0.92830   0.00000  Uiso   1.00
C339   C     0.92653   0.26168   0.94396   0.00000  Uiso   1.00
C340   C     0.98774   0.32527   0.85739   0.00000  Uiso   1.00
C341   C     0.89242   0.34109   0.83947   0.00000  Uiso   1.00
C342   C     0.88219   0.31801   0.81450   0.00000  Uiso   1.00
C343   C     0.15925   0.35929   0.88560   0.00000  Uiso   1.00
C344   C     0.20813   0.40371   0.89140   0.00000  Uiso   1.00
C345   C     0.34230   0.40926   0.89017   0.00000  Uiso   1.00
H346   H     0.23120   0.24706   0.86797   0.00000  Uiso   1.00
H347   H     0.15391   0.19693   0.90924   0.00000  Uiso   1.00
H348   H     0.12351   0.23557   0.82042   0.00000  Uiso   1.00
H349   H     0.43916   0.29818   0.87234   0.00000  Uiso   1.00
H350   H     0.03194   0.15790   0.95797   0.00000  Uiso   1.00
H351   H     0.96785   0.23939   0.77069   0.00000  Uiso   1.00
H352   H     0.63348   0.37141   0.88017   0.00000  Uiso   1.00
H353   H     0.95185   0.37463   0.89101   0.00000  Uiso   1.00
H354   H     0.85924   0.33150   0.93355   0.00000  Uiso   1.00
H355   H     0.82883   0.37015   0.84473   0.00000  Uiso   1.00
H356   H     0.14448   0.43275   0.89665   0.00000  Uiso   1.00
H357   H     0.79276   0.26712   0.97770   0.00000  Uiso   1.00
H358   H     0.72868   0.34862   0.79042   0.00000  Uiso   1.00
H359   H     0.39430   0.48063   0.89990   0.00000  Uiso   1.00
O360   O     0.85643   0.18183   0.99540   0.00000  Uiso   1.00
O361   O     0.77237   0.28875   0.74969   0.00000  Uiso   1.00
O362   O     0.64566   0.46195   0.89333   0.00000  Uiso   1.00
N363   N     0.98838   0.18953   0.95678   0.00000  Uiso   1.00
N364   N     0.92845   0.26571   0.78169   0.00000  Uiso   1.00
N365   N     0.55075   0.38914   0.88404   0.00000  Uiso   1.00
N366   N     0.85968   0.24830   0.96740   0.00000  Uiso   1.00
N367   N     0.79975   0.32449   0.79231   0.00000  Uiso   1.00
N368   N     0.42205   0.44791   0.89465   0.00000  Uiso   1.00
C369   C     0.56839   0.28576   0.62940   0.00000  Uiso   1.00
C370   C     0.49996   0.27978   0.60190   0.00000  Uiso   1.00
C371   C     0.50039   0.23933   0.58598   0.00000  Uiso   1.00
C372   C     0.43188   0.24092   0.56148   0.00000  Uiso   1.00
C373   C     0.33568   0.22545   0.52005   0.00000  Uiso   1.00
C374   C     0.46324   0.30059   0.64969   0.00000  Uiso   1.00
C375   C     0.43281   0.27763   0.67395   0.00000  Uiso   1.00
C376   C     0.33341   0.29675   0.68968   0.00000  Uiso   1.00
C377   C     0.18027   0.31360   0.72245   0.00000  Uiso   1.00
C378   C     0.65808   0.32816   0.62620   0.00000  Uiso   1.00
C379   C     0.79147   0.32840   0.63071   0.00000  Uiso   1.00
C380   C     0.85611   0.37074   0.62667   0.00000  Uiso   1.00
C381   C     0.00548   0.43040   0.62296   0.00000  Uiso   1.00
C382   C     0.44598   0.36053   0.61420   0.00000  Uiso   1.00
C383   C     0.43346   0.32039   0.59365   0.00000  Uiso   1.00
C384   C     0.36495   0.32205   0.56917   0.00000  Uiso   1.00
C385   C     0.36528   0.28161   0.55321   0.00000  Uiso   1.00
C386   C     0.39675   0.34120   0.64144   0.00000  Uiso   1.00
C387   C     0.29737   0.36036   0.65714   0.00000  Uiso   1.00
C388   C     0.26680   0.33744   0.68141   0.00000  Uiso   1.00
C389   C     0.59159   0.36877   0.61794   0.00000  Uiso   1.00
C390   C     0.65603   0.41112   0.61389   0.00000  Uiso   1.00
C391   C     0.78949   0.41142   0.61840   0.00000  Uiso   1.00
H392   H     0.62015   0.25414   0.63583   0.00000  Uiso   1.00
H393   H     0.55184   0.20790   0.59238   0.00000  Uiso   1.00
H394   H     0.48429   0.24621   0.68033   0.00000  Uiso   1.00
H395   H     0.84289   0.29696   0.63710   0.00000  Uiso   1.00
H396   H     0.44675   0.17454   0.54057   0.00000  Uiso   1.00
H397   H     0.30434   0.25532   0.72603   0.00000  Uiso   1.00
H398   H     0.06052   0.36234   0.63486   0.00000  Uiso   1.00
H399   H     0.39421   0.39215   0.60778   0.00000  Uiso   1.00
H400   H     0.31350   0.35348   0.56279   0.00000  Uiso   1.00
H401   H     0.24595   0.39179   0.65074   0.00000  Uiso   1.00
H402   H     0.60454   0.44254   0.60751   0.00000  Uiso   1.00
H403   H     0.25330   0.29270   0.51655   0.00000  Uiso   1.00
H404   H     0.11089   0.37348   0.70202   0.00000  Uiso   1.00
H405   H     0.86706   0.48050   0.61085   0.00000  Uiso   1.00
O406   O     0.30097   0.20569   0.49948   0.00000  Uiso   1.00
O407   O     0.11416   0.31167   0.74280   0.00000  Uiso   1.00
O408   O     0.10624   0.45208   0.62319   0.00000  Uiso   1.00
N409   N     0.41232   0.20766   0.54109   0.00000  Uiso   1.00
N410   N     0.27916   0.28318   0.71448   0.00000  Uiso   1.00
N411   N     0.98612   0.38324   0.62926   0.00000  Uiso   1.00
N412   N     0.30822   0.27124   0.52817   0.00000  Uiso   1.00
N413   N     0.17507   0.34676   0.70156   0.00000  Uiso   1.00
N414   N     0.88202   0.44682   0.61633   0.00000  Uiso   1.00
C415   C     0.33279   0.27628   0.37325   0.00000  Uiso   1.00
C416   C     0.41351   0.26674   0.39887   0.00000  Uiso   1.00
C417   C     0.40971   0.22597   0.41449   0.00000  Uiso   1.00
C418   C     0.49112   0.22407   0.43717   0.00000  Uiso   1.00
C419   C     0.60400   0.20353   0.47590   0.00000  Uiso   1.00
C420   C     0.43005   0.28773   0.35061   0.00000  Uiso   1.00
C421   C     0.44013   0.26462   0.32566   0.00000  Uiso   1.00
C422   C     0.53545   0.28039   0.30771   0.00000  Uiso   1.00
C423   C     0.67394   0.29247   0.27152   0.00000  Uiso   1.00
C424   C     0.25854   0.32175   0.37882   0.00000  Uiso   1.00
C425   C     0.12442   0.32724   0.37759   0.00000  Uiso   1.00
C426   C     0.07534   0.37165   0.38338   0.00000  Uiso   1.00
C427   C     0.94754   0.43654   0.39100   0.00000  Uiso   1.00
C428   C     0.48414   0.34540   0.38573   0.00000  Uiso   1.00
C429   C     0.49572   0.30428   0.40565   0.00000  Uiso   1.00
C430   C     0.57716   0.30245   0.42830   0.00000  Uiso   1.00
C431   C     0.57347   0.26168   0.44396   0.00000  Uiso   1.00
C432   C     0.51226   0.32527   0.35739   0.00000  Uiso   1.00
C433   C     0.60758   0.34109   0.33947   0.00000  Uiso   1.00
C434   C     0.61781   0.31801   0.31450   0.00000  Uiso   1.00
C435   C     0.34075   0.35929   0.38560   0.00000  Uiso   1.00
C436   C     0.29187   0.40371   0.39140   0.00000  Uiso   1.00
C437   C     0.15770   0.40926   0.39017   0.00000  Uiso   1.00
H438   H     0.26880   0.24706   0.36797   0.00000  Uiso   1.00
H439   H     0.34609   0.19693   0.40924   0.00000  Uiso   1.00
H440   H     0.37649   0.23557   0.32042   0.00000  Uiso   1.00
H441   H     0.06084   0.29818   0.37234   0.00000  Uiso   1.00
H442   H     0.46806   0.15790   0.45797   0.00000  Uiso   1.00
H443   H     0.53215   0.23939   0.27069   0.00000  Uiso   1.00
H444   H     0.86652   0.37141   0.38017   0.00000  Uiso   1.00
H445   H     0.54815   0.37463   0.39101   0.00000  Uiso   1.00
H446   H     0.64076   0.33150   0.43355   0.00000  Uiso   1.00
H447   H     0.67117   0.37015   0.34473   0.00000  Uiso   1.00
H448   H     0.35552   0.43275   0.39665   0.00000  Uiso   1.00
H449   H     0.70724   0.26712   0.47770   0.00000  Uiso   1.00
H450   H     0.77132   0.34862   0.29042   0.00000  Uiso   1.00
H451   H     0.10570   0.48063   0.39990   0.00000  Uiso   1.00
O452   O     0.64357   0.18183   0.49540   0.00000  Uiso   1.00
O453   O     0.72763   0.28875   0.24969   0.00000  Uiso   1.00
O454   O     0.85434   0.46195   0.39333   0.00000  Uiso   1.00
N455   N     0.51162   0.18953   0.45678   0.00000  Uiso   1.00
N456   N     0.57155   0.26571   0.28169   0.00000  Uiso   1.00
N457   N     0.94925   0.38914   0.38404   0.00000  Uiso   1.00
N458   N     0.64032   0.24830   0.46740   0.00000  Uiso   1.00
N459   N     0.70025   0.32449   0.29231   0.00000  Uiso   1.00
N460   N     0.07795   0.44791   0.39465   0.00000  Uiso   1.00
C461   C     0.56839   0.78576   0.12940   0.00000  Uiso   1.00
C462   C     0.49996   0.77978   0.10190   0.00000  Uiso   1.00
C463   C     0.50039   0.73933   0.08598   0.00000  Uiso   1.00
C464   C     0.43188   0.74092   0.06148   0.00000  Uiso   1.00
C465   C     0.33568   0.72545   0.02005   0.00000  Uiso   1.00
C466   C     0.46324   0.80059   0.14969   0.00000  Uiso   1.00
C467   C     0.43281   0.77763   0.17395   0.00000  Uiso   1.00
C468   C     0.33341   0.79675   0.18968   0.00000  Uiso   1.00
C469   C     0.18027   0.81360   0.22245   0.00000  Uiso   1.00
C470   C     0.65808   0.82816   0.12620   0.00000  Uiso   1.00
C471   C     0.79147   0.82840   0.13071   0.00000  Uiso   1.00
C472   C     0.85611   0.87074   0.12667   0.00000  Uiso   1.00
C473   C     0.00548   0.93040   0.12296   0.00000  Uiso   1.00
C474   C     0.44598   0.86053   0.11420   0.00000  Uiso   1.00
C475   C     0.43346   0.82039   0.09365   0.00000  Uiso   1.00
C476   C     0.36495   0.82205   0.06917   0.00000  Uiso   1.00
C477   C     0.36528   0.78161   0.05321   0.00000  Uiso   1.00
C478   C     0.39675   0.84120   0.14144   0.00000  Uiso   1.00
C479   C     0.29737   0.86036   0.15714   0.00000  Uiso   1.00
C480   C     0.26680   0.83744   0.18141   0.00000  Uiso   1.00
C481   C     0.59159   0.86877   0.11794   0.00000  Uiso   1.00
C482   C     0.65603   0.91112   0.11389   0.00000  Uiso   1.00
C483   C     0.78949   0.91142   0.11840   0.00000  Uiso   1.00
H484   H     0.62015   0.75414   0.13583   0.00000  Uiso   1.00
H485   H     0.55184   0.70790   0.09238   0.00000  Uiso   1.00
H486   H     0.48429   0.74621   0.18033   0.00000  Uiso   1.00
H487   H     0.84289   0.79696   0.13710   0.00000  Uiso   1.00
H488   H     0.44675   0.67454   0.04057   0.00000  Uiso   1.00
H489   H     0.30434   0.75532   0.22603   0.00000  Uiso   1.00
H490   H     0.06052   0.86234   0.13486   0.00000  Uiso   1.00
H491   H     0.39421   0.89215   0.10778   0.00000  Uiso   1.00
H492   H     0.31350   0.85348   0.06279   0.00000  Uiso   1.00
H493   H     0.24595   0.89179   0.15074   0.00000  Uiso   1.00
H494   H     0.60454   0.94254   0.10751   0.00000  Uiso   1.00
H495   H     0.25330   0.79270   0.01655   0.00000  Uiso   1.00
H496   H     0.11089   0.87348   0.20202   0.00000  Uiso   1.00
H497   H     0.86706   0.98050   0.11085   0.00000  Uiso   1.00
O498   O     0.30097   0.70569   0.99948   0.00000  Uiso   1.00
O499   O     0.11416   0.81167   0.24280   0.00000  Uiso   1.00
O500   O     0.10624   0.95208   0.12319   0.00000  Uiso   1.00
N501   N     0.41232   0.70766   0.04109   0.00000  Uiso   1.00
N502   N     0.27916   0.78318   0.21448   0.00000  Uiso   1.00
N503   N     0.98612   0.88324   0.12926   0.00000  Uiso   1.00
N504   N     0.30822   0.77124   0.02817   0.00000  Uiso   1.00
N505   N     0.17507   0.84676   0.20156   0.00000  Uiso   1.00
N506   N     0.88202   0.94682   0.11633   0.00000  Uiso   1.00
C507   C     0.33279   0.77628   0.87325   0.00000  Uiso   1.00
C508   C     0.41351   0.76674   0.89887   0.00000  Uiso   1.00
C509   C     0.40971   0.72597   0.91449   0.00000  Uiso   1.00
C510   C     0.49112   0.72407   0.93717   0.00000  Uiso   1.00
C511   C     0.60400   0.70353   0.97590   0.00000  Uiso   1.00
C512   C     0.43005   0.78773   0.85061   0.00000  Uiso   1.00
C513   C     0.44013   0.76462   0.82566   0.00000  Uiso   1.00
C514   C     0.53545   0.78039   0.80771   0.00000  Uiso   1.00
C515   C     0.67394   0.79247   0.77152   0.00000  Uiso   1.00
C516   C     0.25854   0.82175   0.87882   0.00000  Uiso   1.00
C517   C     0.12442   0.82724   0.87759   0.00000  Uiso   1.00
C518   C     0.07534   0.87165   0.88338   0.00000  Uiso   1.00
C519   C     0.94754   0.93654   0.89100   0.00000  Uiso   1.00
C520   C     0.48414   0.84540   0.88573   0.00000  Uiso   1.00
C521   C     0.49572   0.80428   0.90565   0.00000  Uiso   1.00
C522   C     0.57716   0.80245   0.92830   0.00000  Uiso   1.00
C523   C     0.57347   0.76168   0.94396   0.00000  Uiso   1.00
C524   C     0.51226   0.82527   0.85739   0.00000  Uiso   1.00
C525   C     0.60758   0.84109   0.83947   0.00000  Uiso   1.00
C526   C     0.61781   0.81801   0.81450   0.00000  Uiso   1.00
C527   C     0.34075   0.85929   0.88560   0.00000  Uiso   1.00
C528   C     0.29187   0.90371   0.89140   0.00000  Uiso   1.00
C529   C     0.15770   0.90926   0.89017   0.00000  Uiso   1.00
H530   H     0.26880   0.74706   0.86797   0.00000  Uiso   1.00
H531   H     0.34609   0.69693   0.90924   0.00000  Uiso   1.00
H532   H     0.37649   0.73557   0.82042   0.00000  Uiso   1.00
H533   H     0.06084   0.79818   0.87234   0.00000  Uiso   1.00
H534   H     0.46806   0.65790   0.95797   0.00000  Uiso   1.00
H535   H     0.53215   0.73939   0.77069   0.00000  Uiso   1.00
H536   H     0.86652   0.87141   0.88017   0.00000  Uiso   1.00
H537   H     0.54815   0.87463   0.89101   0.00000  Uiso   1.00
H538   H     0.64076   0.83150   0.93355   0.00000  Uiso   1.00
H539   H     0.67117   0.87015   0.84473   0.00000  Uiso   1.00
H540   H     0.35552   0.93275   0.89665   0.00000  Uiso   1.00
H541   H     0.70724   0.76712   0.97770   0.00000  Uiso   1.00
H542   H     0.77132   0.84862   0.79042   0.00000  Uiso   1.00
H543   H     0.10570   0.98063   0.89990   0.00000  Uiso   1.00
O544   O     0.64357   0.68183   0.99540   0.00000  Uiso   1.00
O545   O     0.72763   0.78875   0.74969   0.00000  Uiso   1.00
O546   O     0.85434   0.96195   0.89333   0.00000  Uiso   1.00
N547   N     0.51162   0.68953   0.95678   0.00000  Uiso   1.00
N548   N     0.57155   0.76571   0.78169   0.00000  Uiso   1.00
N549   N     0.94925   0.88914   0.88404   0.00000  Uiso   1.00
N550   N     0.64032   0.74830   0.96740   0.00000  Uiso   1.00
N551   N     0.70025   0.82449   0.79231   0.00000  Uiso   1.00
N552   N     0.07795   0.94791   0.89465   0.00000  Uiso   1.00
C553   C     0.43161   0.71424   0.62940   0.00000  Uiso   1.00
C554   C     0.50004   0.72022   0.60190   0.00000  Uiso   1.00
C555   C     0.49961   0.76067   0.58598   0.00000  Uiso   1.00
C556   C     0.56812   0.75908   0.56148   0.00000  Uiso   1.00
C557   C     0.66432   0.77455   0.52005   0.00000  Uiso   1.00
C558   C     0.53676   0.69941   0.64969   0.00000  Uiso   1.00
C559   C     0.56719   0.72237   0.67395   0.00000  Uiso   1.00
C560   C     0.66659   0.70325   0.68968   0.00000  Uiso   1.00
C561   C     0.81973   0.68640   0.72245   0.00000  Uiso   1.00
C562   C     0.34192   0.67184   0.62620   0.00000  Uiso   1.00
C563   C     0.20853   0.67160   0.63071   0.00000  Uiso   1.00
C564   C     0.14389   0.62926   0.62667   0.00000  Uiso   1.00
C565   C     0.99452   0.56960   0.62296   0.00000  Uiso   1.00
C566   C     0.55402   0.63947   0.61420   0.00000  Uiso   1.00
C567   C     0.56654   0.67961   0.59365   0.00000  Uiso   1.00
C568   C     0.63505   0.67795   0.56917   0.00000  Uiso   1.00
C569   C     0.63472   0.71839   0.55321   0.00000  Uiso   1.00
C570   C     0.60325   0.65880   0.64144   0.00000  Uiso   1.00
C571   C     0.70263   0.63964   0.65714   0.00000  Uiso   1.00
C572   C     0.73320   0.66256   0.68141   0.00000  Uiso   1.00
C573   C     0.40841   0.63123   0.61794   0.00000  Uiso   1.00
C574   C     0.34397   0.58888   0.61389   0.00000  Uiso   1.00
C575   C     0.21051   0.58858   0.61840   0.00000  Uiso   1.00
H576   H     0.37985   0.74586   0.63583   0.00000  Uiso   1.00
H577   H     0.44816   0.79210   0.59238   0.00000  Uiso   1.00
H578   H     0.51571   0.75379   0.68033   0.00000  Uiso   1.00
H579   H     0.15711   0.70304   0.63710   0.00000  Uiso   1.00
H580   H     0.55325   0.82546   0.54057   0.00000  Uiso   1.00
H581   H     0.69566   0.74468   0.72603   0.00000  Uiso   1.00
H582   H     0.93948   0.63766   0.63486   0.00000  Uiso   1.00
H583   H     0.60579   0.60785   0.60778   0.00000  Uiso   1.00
H584   H     0.68650   0.64652   0.56279   0.00000  Uiso   1.00
H585   H     0.75405   0.60821   0.65074   0.00000  Uiso   1.00
H586   H     0.39546   0.55746   0.60751   0.00000  Uiso   1.00
H587   H     0.74670   0.70730   0.51655   0.00000  Uiso   1.00
H588   H     0.88911   0.62652   0.70202   0.00000  Uiso   1.00
H589   H     0.13294   0.51950   0.61085   0.00000  Uiso   1.00
O590   O     0.69903   0.79431   0.49948   0.00000  Uiso   1.00
O591   O     0.88584   0.68833   0.74280   0.00000  Uiso   1.00
O592   O     0.89376   0.54792   0.62319   0.00000  Uiso   1.00
N593   N     0.58768   0.79234   0.54109   0.00000  Uiso   1.00
N594   N     0.72084   0.71682   0.71448   0.00000  Uiso   1.00
N595   N     0.01388   0.61676   0.62926   0.00000  Uiso   1.00
N596   N     0.69178   0.72876   0.52817   0.00000  Uiso   1.00
N597   N     0.82493   0.65324   0.70156   0.00000  Uiso   1.00
N598   N     0.11798   0.55318   0.61633   0.00000  Uiso   1.00
C599   C     0.66721   0.72372   0.37325   0.00000  Uiso   1.00
C600   C     0.58649   0.73326   0.39887   0.00000  Uiso   1.00
C601   C     0.59029   0.77403   0.41449   0.00000  Uiso   1.00
C602   C     0.50888   0.77593   0.43717   0.00000  Uiso   1.00
C603   C     0.39600   0.79647   0.47590   0.00000  Uiso   1.00
C604   C     0.56995   0.71227   0.35061   0.00000  Uiso   1.00
C605   C     0.55987   0.73538   0.32566   0.00000  Uiso   1.00
C606   C     0.46455   0.71961   0.30771   0.00000  Uiso   1.00
C607   C     0.32606   0.70753   0.27152   0.00000  Uiso   1.00
C608   C     0.74146   0.67825   0.37882   0.00000  Uiso   1.00
C609   C     0.87558   0.67276   0.37759   0.00000  Uiso   1.00
C610   C     0.92466   0.62835   0.38338   0.00000  Uiso   1.00
C611   C     0.05246   0.56346   0.39100   0.00000  Uiso   1.00
C612   C     0.51586   0.65460   0.38573   0.00000  Uiso   1.00
C613   C     0.50428   0.69572   0.40565   0.00000  Uiso   1.00
C614   C     0.42284   0.69755   0.42830   0.00000  Uiso   1.00
C615   C     0.42653   0.73832   0.44396   0.00000  Uiso   1.00
C616   C     0.48774   0.67473   0.35739   0.00000  Uiso   1.00
C617   C     0.39242   0.65891   0.33947   0.00000  Uiso   1.00
C618   C     0.38219   0.68199   0.31450   0.00000  Uiso   1.00
C619   C     0.65925   0.64071   0.38560   0.00000  Uiso   1.00
C620   C     0.70813   0.59629   0.39140   0.00000  Uiso   1.00
C621   C     0.84230   0.59074   0.39017   0.00000  Uiso   1.00
H622   H     0.73120   0.75294   0.36797   0.00000  Uiso   1.00
H623   H     0.65391   0.80307   0.40924   0.00000  Uiso   1.00
H624   H     0.62351   0.76443   0.32042   0.00000  Uiso   1.00
H625   H     0.93916   0.70182   0.37234   0.00000  Uiso   1.00
H626   H     0.53194   0.84210   0.45797   0.00000  Uiso   1.00
H627   H     0.46785   0.76061   0.27069   0.00000  Uiso   1.00
H628   H     0.13348   0.62859   0.38017   0.00000  Uiso   1.00
H629   H     0.45185   0.62537   0.39101   0.00000  Uiso   1.00
H630   H     0.35924   0.66850   0.43355   0.00000  Uiso   1.00
H631   H     0.32883   0.62985   0.34473   0.00000  Uiso   1.00
H632   H     0.64448   0.56725   0.39665   0.00000  Uiso   1.00
H633   H     0.29276   0.73288   0.47770   0.00000  Uiso   1.00
H634   H     0.22868   0.65138   0.29042   0.00000  Uiso   1.00
H635   H     0.89430   0.51937   0.39990   0.00000  Uiso   1.00
O636   O     0.35643   0.81817   0.49540   0.00000  Uiso   1.00
O637   O     0.27237   0.71125   0.24969   0.00000  Uiso   1.00
O638   O     0.14566   0.53805   0.39333   0.00000  Uiso   1.00
N639   N     0.48838   0.81047   0.45678   0.00000  Uiso   1.00
N640   N     0.42845   0.73429   0.28169   0.00000  Uiso   1.00
N641   N     0.05075   0.61086   0.38404   0.00000  Uiso   1.00
N642   N     0.35968   0.75170   0.46740   0.00000  Uiso   1.00
N643   N     0.29975   0.67551   0.29231   0.00000  Uiso   1.00
N644   N     0.92205   0.55209   0.39465   0.00000  Uiso   1.00
C645   C     0.43161   0.21424   0.12940   0.00000  Uiso   1.00
C646   C     0.50004   0.22022   0.10190   0.00000  Uiso   1.00
C647   C     0.49961   0.26067   0.08598   0.00000  Uiso   1.00
C648   C     0.56812   0.25908   0.06148   0.00000  Uiso   1.00
C649   C     0.66432   0.27455   0.02005   0.00000  Uiso   1.00
C650   C     0.53676   0.19941   0.14969   0.00000  Uiso   1.00
C651   C     0.56719   0.22237   0.17395   0.00000  Uiso   1.00
C652   C     0.66659   0.20325   0.18968   0.00000  Uiso   1.00
C653   C     0.81973   0.18640   0.22245   0.00000  Uiso   1.00
C654   C     0.34192   0.17184   0.12620   0.00000  Uiso   1.00
C655   C     0.20853   0.17160   0.13071   0.00000  Uiso   1.00
C656   C     0.14389   0.12926   0.12667   0.00000  Uiso   1.00
C657   C     0.99452   0.06960   0.12296   0.00000  Uiso   1.00
C658   C     0.55402   0.13947   0.11420   0.00000  Uiso   1.00
C659   C     0.56654   0.17961   0.09365   0.00000  Uiso   1.00
C660   C     0.63505   0.17795   0.06917   0.00000  Uiso   1.00
C661   C     0.63472   0.21839   0.05321   0.00000  Uiso   1.00
C662   C     0.60325   0.15880   0.14144   0.00000  Uiso   1.00
C663   C     0.70263   0.13964   0.15714   0.00000  Uiso   1.00
C664   C     0.73320   0.16256   0.18141   0.00000  Uiso   1.00
C665   C     0.40841   0.13123   0.11794   0.00000  Uiso   1.00
C666   C     0.34397   0.08888   0.11389   0.00000  Uiso   1.00
C667   C     0.21051   0.08858   0.11840   0.00000  Uiso   1.00
H668   H     0.37985   0.24586   0.13583   0.00000  Uiso   1.00
H669   H     0.44816   0.29210   0.09238   0.00000  Uiso   1.00
H670   H     0.51571   0.25379   0.18033   0.00000  Uiso   1.00
H671   H     0.15711   0.20304   0.13710   0.00000  Uiso   1.00
H672   H     0.55325   0.32546   0.04057   0.00000  Uiso   1.00
H673   H     0.69566   0.24468   0.22603   0.00000  Uiso   1.00
H674   H     0.93948   0.13766   0.13486   0.00000  Uiso   1.00
H675   H     0.60579   0.10785   0.10778   0.00000  Uiso   1.00
H676   H     0.68650   0.14652   0.06279   0.00000  Uiso   1.00
H677   H     0.75405   0.10821   0.15074   0.00000  Uiso   1.00
H678   H     0.39546   0.05746   0.10751   0.00000  Uiso   1.00
H679   H     0.74670   0.20730   0.01655   0.00000  Uiso   1.00
H680   H     0.88911   0.12652   0.20202   0.00000  Uiso   1.00
H681   H     0.13294   0.01950   0.11085   0.00000  Uiso   1.00
O682   O     0.69903   0.29431   0.99948   0.00000  Uiso   1.00
O683   O     0.88584   0.18833   0.24280   0.00000  Uiso   1.00
O684   O     0.89376   0.04792   0.12319   0.00000  Uiso   1.00
N685   N     0.58768   0.29234   0.04109   0.00000  Uiso   1.00
N686   N     0.72084   0.21682   0.21448   0.00000  Uiso   1.00
N687   N     0.01388   0.11676   0.12926   0.00000  Uiso   1.00
N688   N     0.69178   0.22876   0.02817   0.00000  Uiso   1.00
N689   N     0.82493   0.15324   0.20156   0.00000  Uiso   1.00
N690   N     0.11798   0.05318   0.11633   0.00000  Uiso   1.00
C691   C     0.66721   0.22372   0.87325   0.00000  Uiso   1.00
C692   C     0.58649   0.23326   0.89887   0.00000  Uiso   1.00
C693   C     0.59029   0.27403   0.91449   0.00000  Uiso   1.00
C694   C     0.50888   0.27593   0.93717   0.00000  Uiso   1.00
C695   C     0.39600   0.29647   0.97590   0.00000  Uiso   1.00
C696   C     0.56995   0.21227   0.85061   0.00000  Uiso   1.00
C697   C     0.55987   0.23538   0.82566   0.00000  Uiso   1.00
C698   C     0.46455   0.21961   0.80771   0.00000  Uiso   1.00
C699   C     0.32606   0.20753   0.77152   0.00000  Uiso   1.00
C700   C     0.74146   0.17825   0.87882   0.00000  Uiso   1.00
C701   C     0.87558   0.17276   0.87759   0.00000  Uiso   1.00
C702   C     0.92466   0.12835   0.88338   0.00000  Uiso   1.00
C703   C     0.05246   0.06346   0.89100   0.00000  Uiso   1.00
C704   C     0.51586   0.15460   0.88573   0.00000  Uiso   1.00
C705   C     0.50428   0.19572   0.90565   0.00000  Uiso   1.00
C706   C     0.42284   0.19755   0.92830   0.00000  Uiso   1.00
C707   C     0.42653   0.23832   0.94396   0.00000  Uiso   1.00
C708   C     0.48774   0.17473   0.85739   0.00000  Uiso   1.00
C709   C     0.39242   0.15891   0.83947   0.00000  Uiso   1.00
C710   C     0.38219   0.18199   0.81450   0.00000  Uiso   1.00
C711   C     0.65925   0.14071   0.88560   0.00000  Uiso   1.00
C712   C     0.70813   0.09629   0.89140   0.00000  Uiso   1.00
C713   C     0.84230   0.09074   0.89017   0.00000  Uiso   1.00
H714   H     0.73120   0.25294   0.86797   0.00000  Uiso   1.00
H715   H     0.65391   0.30307   0.90924   0.00000  Uiso   1.00
H716   H     0.62351   0.26443   0.82042   0.00000  Uiso   1.00
H717   H     0.93916   0.20182   0.87234   0.00000  Uiso   1.00
H718   H     0.53194   0.34210   0.95797   0.00000  Uiso   1.00
H719   H     0.46785   0.26061   0.77069   0.00000  Uiso   1.00
H720   H     0.13348   0.12859   0.88017   0.00000  Uiso   1.00
H721   H     0.45185   0.12537   0.89101   0.00000  Uiso   1.00
H722   H     0.35924   0.16850   0.93355   0.00000  Uiso   1.00
H723   H     0.32883   0.12985   0.84473   0.00000  Uiso   1.00
H724   H     0.64448   0.06725   0.89665   0.00000  Uiso   1.00
H725   H     0.29276   0.23288   0.97770   0.00000  Uiso   1.00
H726   H     0.22868   0.15138   0.79042   0.00000  Uiso   1.00
H727   H     0.89430   0.01937   0.89990   0.00000  Uiso   1.00
O728   O     0.35643   0.31817   0.99540   0.00000  Uiso   1.00
O729   O     0.27237   0.21125   0.74969   0.00000  Uiso   1.00
O730   O     0.14566   0.03805   0.89333   0.00000  Uiso   1.00
N731   N     0.48838   0.31047   0.95678   0.00000  Uiso   1.00
N732   N     0.42845   0.23429   0.78169   0.00000  Uiso   1.00
N733   N     0.05075   0.11086   0.88404   0.00000  Uiso   1.00
N734   N     0.35968   0.25170   0.96740   0.00000  Uiso   1.00
N735   N     0.29975   0.17551   0.79231   0.00000  Uiso   1.00
N736   N     0.92205   0.05209   0.89465   0.00000  Uiso   1.00
