data_job_03021
_audit_creation_date              2018-12-19
_audit_creation_method            'Materials Studio'
_symmetry_space_group_name_H-M    'P1'
_symmetry_Int_Tables_number       1
_symmetry_cell_setting            triclinic
loop_
_symmetry_equiv_pos_as_xyz
  x,y,z
_cell_length_a                    16.4078
_cell_length_b                    16.4078
_cell_length_c                    39.6340
_cell_angle_alpha                 90.0000
_cell_angle_beta                  90.0000
_cell_angle_gamma                 90.0000
loop_
_atom_site_label
_atom_site_type_symbol
_atom_site_fract_x
_atom_site_fract_y
_atom_site_fract_z
_atom_site_U_iso_or_equiv
_atom_site_adp_type
_atom_site_occupancy
C1     C     0.23664   0.20530   0.40895   0.00000  Uiso   1.00
C2     C     0.27703   0.18047   0.37586   0.00000  Uiso   1.00
C3     C     0.24001   0.13765   0.34984   0.00000  Uiso   1.00
C4     C     0.28733   0.12085   0.32165   0.00000  Uiso   1.00
C5     C     0.33769   0.07843   0.27059   0.00000  Uiso   1.00
C6     C     0.28946   0.16961   0.43695   0.00000  Uiso   1.00
C7     C     0.26288   0.11766   0.46229   0.00000  Uiso   1.00
C8     C     0.32066   0.09172   0.48553   0.00000  Uiso   1.00
C9     C     0.39029   0.03248   0.52932   0.00000  Uiso   1.00
C10    C     0.24613   0.29756   0.41143   0.00000  Uiso   1.00
C11    C     0.18312   0.35319   0.41534   0.00000  Uiso   1.00
C12    C     0.20443   0.43498   0.41710   0.00000  Uiso   1.00
C13    C     0.20678   0.57440   0.42128   0.00000  Uiso   1.00
C14    C     0.38651   0.25162   0.40514   0.00000  Uiso   1.00
C15    C     0.35844   0.20563   0.37379   0.00000  Uiso   1.00
C16    C     0.40583   0.18889   0.34562   0.00000  Uiso   1.00
C17    C     0.36888   0.14605   0.31957   0.00000  Uiso   1.00
C18    C     0.37086   0.19476   0.43488   0.00000  Uiso   1.00
C19    C     0.42870   0.16890   0.45808   0.00000  Uiso   1.00
C20    C     0.40221   0.11692   0.48345   0.00000  Uiso   1.00
C21    C     0.32754   0.32271   0.40936   0.00000  Uiso   1.00
C22    C     0.34894   0.40443   0.41112   0.00000  Uiso   1.00
C23    C     0.28598   0.46018   0.41503   0.00000  Uiso   1.00
H24    H     0.17326   0.18571   0.41056   0.00000  Uiso   1.00
H25    H     0.17701   0.11818   0.35145   0.00000  Uiso   1.00
H26    H     0.19987   0.09821   0.46389   0.00000  Uiso   1.00
H27    H     0.12013   0.33370   0.41694   0.00000  Uiso   1.00
H28    H     0.21708   0.05438   0.28501   0.00000  Uiso   1.00
H29    H     0.26528   0.01228   0.52210   0.00000  Uiso   1.00
H30    H     0.09713   0.50886   0.42310   0.00000  Uiso   1.00
H31    H     0.44989   0.27120   0.40353   0.00000  Uiso   1.00
H32    H     0.46883   0.20837   0.34403   0.00000  Uiso   1.00
H33    H     0.49169   0.18838   0.45647   0.00000  Uiso   1.00
H34    H     0.41195   0.42388   0.40952   0.00000  Uiso   1.00
H35    H     0.45393   0.12757   0.27899   0.00000  Uiso   1.00
H36    H     0.50212   0.08547   0.51608   0.00000  Uiso   1.00
H37    H     0.33398   0.58205   0.41707   0.00000  Uiso   1.00
O38    O     0.34298   0.04808   0.24300   0.00000  Uiso   1.00
O39    O     0.40620   0.99285   0.55405   0.00000  Uiso   1.00
O40    O     0.18560   0.64435   0.42416   0.00000  Uiso   1.00
N41    N     0.27022   0.08025   0.29176   0.00000  Uiso   1.00
N42    N     0.31528   0.04087   0.51342   0.00000  Uiso   1.00
N43    N     0.15808   0.50513   0.42087   0.00000  Uiso   1.00
N44    N     0.39767   0.11963   0.28852   0.00000  Uiso   1.00
N45    N     0.44273   0.08026   0.51018   0.00000  Uiso   1.00
N46    N     0.28553   0.54452   0.41763   0.00000  Uiso   1.00
C47    C     0.73664   0.70530   0.90895   0.00000  Uiso   1.00
C48    C     0.77703   0.68047   0.87586   0.00000  Uiso   1.00
C49    C     0.74001   0.63765   0.84984   0.00000  Uiso   1.00
C50    C     0.78733   0.62085   0.82165   0.00000  Uiso   1.00
C51    C     0.83769   0.57843   0.77059   0.00000  Uiso   1.00
C52    C     0.78946   0.66961   0.93695   0.00000  Uiso   1.00
C53    C     0.76288   0.61766   0.96229   0.00000  Uiso   1.00
C54    C     0.82066   0.59172   0.98553   0.00000  Uiso   1.00
C55    C     0.89029   0.53248   0.02932   0.00000  Uiso   1.00
C56    C     0.74613   0.79756   0.91143   0.00000  Uiso   1.00
C57    C     0.68312   0.85319   0.91534   0.00000  Uiso   1.00
C58    C     0.70443   0.93498   0.91710   0.00000  Uiso   1.00
C59    C     0.70678   0.07440   0.92128   0.00000  Uiso   1.00
C60    C     0.88651   0.75162   0.90514   0.00000  Uiso   1.00
C61    C     0.85844   0.70563   0.87379   0.00000  Uiso   1.00
C62    C     0.90583   0.68889   0.84562   0.00000  Uiso   1.00
C63    C     0.86888   0.64605   0.81957   0.00000  Uiso   1.00
C64    C     0.87086   0.69476   0.93488   0.00000  Uiso   1.00
C65    C     0.92870   0.66890   0.95808   0.00000  Uiso   1.00
C66    C     0.90221   0.61692   0.98345   0.00000  Uiso   1.00
C67    C     0.82754   0.82271   0.90936   0.00000  Uiso   1.00
C68    C     0.84894   0.90443   0.91112   0.00000  Uiso   1.00
C69    C     0.78598   0.96018   0.91503   0.00000  Uiso   1.00
H70    H     0.67326   0.68571   0.91056   0.00000  Uiso   1.00
H71    H     0.67701   0.61818   0.85145   0.00000  Uiso   1.00
H72    H     0.69987   0.59821   0.96389   0.00000  Uiso   1.00
H73    H     0.62013   0.83370   0.91694   0.00000  Uiso   1.00
H74    H     0.71708   0.55438   0.78501   0.00000  Uiso   1.00
H75    H     0.76528   0.51228   0.02210   0.00000  Uiso   1.00
H76    H     0.59713   0.00886   0.92310   0.00000  Uiso   1.00
H77    H     0.94989   0.77120   0.90353   0.00000  Uiso   1.00
H78    H     0.96883   0.70837   0.84403   0.00000  Uiso   1.00
H79    H     0.99169   0.68838   0.95647   0.00000  Uiso   1.00
H80    H     0.91195   0.92388   0.90952   0.00000  Uiso   1.00
H81    H     0.95393   0.62757   0.77899   0.00000  Uiso   1.00
H82    H     0.00212   0.58547   0.01608   0.00000  Uiso   1.00
H83    H     0.83398   0.08205   0.91707   0.00000  Uiso   1.00
O84    O     0.84298   0.54808   0.74300   0.00000  Uiso   1.00
O85    O     0.90620   0.49285   0.05405   0.00000  Uiso   1.00
O86    O     0.68560   0.14435   0.92416   0.00000  Uiso   1.00
N87    N     0.77022   0.58025   0.79176   0.00000  Uiso   1.00
N88    N     0.81528   0.54087   0.01342   0.00000  Uiso   1.00
N89    N     0.65808   0.00513   0.92087   0.00000  Uiso   1.00
N90    N     0.89767   0.61963   0.78852   0.00000  Uiso   1.00
N91    N     0.94273   0.58026   0.01018   0.00000  Uiso   1.00
N92    N     0.78553   0.04452   0.91763   0.00000  Uiso   1.00
C93    C     0.26336   0.29470   0.90895   0.00000  Uiso   1.00
C94    C     0.22297   0.31953   0.87586   0.00000  Uiso   1.00
C95    C     0.25999   0.36235   0.84984   0.00000  Uiso   1.00
C96    C     0.21267   0.37915   0.82165   0.00000  Uiso   1.00
C97    C     0.16231   0.42157   0.77059   0.00000  Uiso   1.00
C98    C     0.21054   0.33039   0.93695   0.00000  Uiso   1.00
C99    C     0.23712   0.38234   0.96229   0.00000  Uiso   1.00
C100   C     0.17934   0.40828   0.98553   0.00000  Uiso   1.00
C101   C     0.10971   0.46752   0.02932   0.00000  Uiso   1.00
C102   C     0.25387   0.20244   0.91143   0.00000  Uiso   1.00
C103   C     0.31688   0.14681   0.91534   0.00000  Uiso   1.00
C104   C     0.29557   0.06502   0.91710   0.00000  Uiso   1.00
C105   C     0.29322   0.92560   0.92128   0.00000  Uiso   1.00
C106   C     0.11349   0.24838   0.90514   0.00000  Uiso   1.00
C107   C     0.14156   0.29437   0.87379   0.00000  Uiso   1.00
C108   C     0.09417   0.31111   0.84562   0.00000  Uiso   1.00
C109   C     0.13112   0.35395   0.81957   0.00000  Uiso   1.00
C110   C     0.12914   0.30524   0.93488   0.00000  Uiso   1.00
C111   C     0.07130   0.33110   0.95808   0.00000  Uiso   1.00
C112   C     0.09779   0.38308   0.98345   0.00000  Uiso   1.00
C113   C     0.17246   0.17729   0.90936   0.00000  Uiso   1.00
C114   C     0.15106   0.09557   0.91112   0.00000  Uiso   1.00
C115   C     0.21402   0.03982   0.91503   0.00000  Uiso   1.00
H116   H     0.32674   0.31429   0.91056   0.00000  Uiso   1.00
H117   H     0.32299   0.38182   0.85145   0.00000  Uiso   1.00
H118   H     0.30013   0.40179   0.96389   0.00000  Uiso   1.00
H119   H     0.37987   0.16630   0.91694   0.00000  Uiso   1.00
H120   H     0.28292   0.44562   0.78501   0.00000  Uiso   1.00
H121   H     0.23472   0.48772   0.02210   0.00000  Uiso   1.00
H122   H     0.40287   0.99114   0.92310   0.00000  Uiso   1.00
H123   H     0.05011   0.22880   0.90353   0.00000  Uiso   1.00
H124   H     0.03117   0.29163   0.84403   0.00000  Uiso   1.00
H125   H     0.00831   0.31162   0.95647   0.00000  Uiso   1.00
H126   H     0.08805   0.07612   0.90952   0.00000  Uiso   1.00
H127   H     0.04607   0.37243   0.77899   0.00000  Uiso   1.00
H128   H     0.99788   0.41453   0.01608   0.00000  Uiso   1.00
H129   H     0.16602   0.91795   0.91707   0.00000  Uiso   1.00
O130   O     0.15702   0.45192   0.74300   0.00000  Uiso   1.00
O131   O     0.09380   0.50715   0.05405   0.00000  Uiso   1.00
O132   O     0.31440   0.85565   0.92416   0.00000  Uiso   1.00
N133   N     0.22978   0.41975   0.79176   0.00000  Uiso   1.00
N134   N     0.18472   0.45913   0.01342   0.00000  Uiso   1.00
N135   N     0.34192   0.99487   0.92087   0.00000  Uiso   1.00
N136   N     0.10233   0.38037   0.78852   0.00000  Uiso   1.00
N137   N     0.05727   0.41974   0.01018   0.00000  Uiso   1.00
N138   N     0.21447   0.95548   0.91763   0.00000  Uiso   1.00
C139   C     0.76336   0.79470   0.40895   0.00000  Uiso   1.00
C140   C     0.72297   0.81953   0.37586   0.00000  Uiso   1.00
C141   C     0.75999   0.86235   0.34984   0.00000  Uiso   1.00
C142   C     0.71267   0.87915   0.32165   0.00000  Uiso   1.00
C143   C     0.66231   0.92157   0.27059   0.00000  Uiso   1.00
C144   C     0.71054   0.83039   0.43695   0.00000  Uiso   1.00
C145   C     0.73712   0.88234   0.46229   0.00000  Uiso   1.00
C146   C     0.67934   0.90828   0.48553   0.00000  Uiso   1.00
C147   C     0.60971   0.96752   0.52932   0.00000  Uiso   1.00
C148   C     0.75387   0.70244   0.41143   0.00000  Uiso   1.00
C149   C     0.81688   0.64681   0.41534   0.00000  Uiso   1.00
C150   C     0.79557   0.56502   0.41710   0.00000  Uiso   1.00
C151   C     0.79322   0.42560   0.42128   0.00000  Uiso   1.00
C152   C     0.61349   0.74838   0.40514   0.00000  Uiso   1.00
C153   C     0.64156   0.79437   0.37379   0.00000  Uiso   1.00
C154   C     0.59417   0.81111   0.34562   0.00000  Uiso   1.00
C155   C     0.63112   0.85395   0.31957   0.00000  Uiso   1.00
C156   C     0.62914   0.80524   0.43488   0.00000  Uiso   1.00
C157   C     0.57130   0.83110   0.45808   0.00000  Uiso   1.00
C158   C     0.59779   0.88308   0.48345   0.00000  Uiso   1.00
C159   C     0.67246   0.67729   0.40936   0.00000  Uiso   1.00
C160   C     0.65106   0.59557   0.41112   0.00000  Uiso   1.00
C161   C     0.71402   0.53982   0.41503   0.00000  Uiso   1.00
H162   H     0.82674   0.81429   0.41056   0.00000  Uiso   1.00
H163   H     0.82299   0.88182   0.35145   0.00000  Uiso   1.00
H164   H     0.80013   0.90179   0.46389   0.00000  Uiso   1.00
H165   H     0.87987   0.66630   0.41694   0.00000  Uiso   1.00
H166   H     0.78292   0.94562   0.28501   0.00000  Uiso   1.00
H167   H     0.73472   0.98772   0.52210   0.00000  Uiso   1.00
H168   H     0.90287   0.49114   0.42310   0.00000  Uiso   1.00
H169   H     0.55011   0.72880   0.40353   0.00000  Uiso   1.00
H170   H     0.53117   0.79163   0.34403   0.00000  Uiso   1.00
H171   H     0.50831   0.81162   0.45647   0.00000  Uiso   1.00
H172   H     0.58805   0.57612   0.40952   0.00000  Uiso   1.00
H173   H     0.54607   0.87243   0.27899   0.00000  Uiso   1.00
H174   H     0.49788   0.91453   0.51608   0.00000  Uiso   1.00
H175   H     0.66602   0.41795   0.41707   0.00000  Uiso   1.00
O176   O     0.65702   0.95192   0.24300   0.00000  Uiso   1.00
O177   O     0.59380   0.00715   0.55405   0.00000  Uiso   1.00
O178   O     0.81440   0.35565   0.42416   0.00000  Uiso   1.00
N179   N     0.72978   0.91975   0.29176   0.00000  Uiso   1.00
N180   N     0.68472   0.95913   0.51342   0.00000  Uiso   1.00
N181   N     0.84192   0.49487   0.42087   0.00000  Uiso   1.00
N182   N     0.60233   0.88037   0.28852   0.00000  Uiso   1.00
N183   N     0.55727   0.91974   0.51018   0.00000  Uiso   1.00
N184   N     0.71447   0.45548   0.41763   0.00000  Uiso   1.00
C185   C     0.79470   0.73664   0.65895   0.00000  Uiso   1.00
C186   C     0.81953   0.77703   0.62586   0.00000  Uiso   1.00
C187   C     0.86235   0.74001   0.59984   0.00000  Uiso   1.00
C188   C     0.87915   0.78733   0.57165   0.00000  Uiso   1.00
C189   C     0.92157   0.83769   0.52059   0.00000  Uiso   1.00
C190   C     0.83039   0.78946   0.68695   0.00000  Uiso   1.00
C191   C     0.88234   0.76288   0.71229   0.00000  Uiso   1.00
C192   C     0.90828   0.82066   0.73553   0.00000  Uiso   1.00
C193   C     0.96752   0.89029   0.77932   0.00000  Uiso   1.00
C194   C     0.70244   0.74613   0.66143   0.00000  Uiso   1.00
C195   C     0.64681   0.68312   0.66534   0.00000  Uiso   1.00
C196   C     0.56502   0.70443   0.66710   0.00000  Uiso   1.00
C197   C     0.42560   0.70678   0.67128   0.00000  Uiso   1.00
C198   C     0.74838   0.88651   0.65514   0.00000  Uiso   1.00
C199   C     0.79437   0.85844   0.62379   0.00000  Uiso   1.00
C200   C     0.81111   0.90583   0.59562   0.00000  Uiso   1.00
C201   C     0.85395   0.86888   0.56957   0.00000  Uiso   1.00
C202   C     0.80524   0.87086   0.68488   0.00000  Uiso   1.00
C203   C     0.83110   0.92870   0.70808   0.00000  Uiso   1.00
C204   C     0.88308   0.90221   0.73345   0.00000  Uiso   1.00
C205   C     0.67729   0.82754   0.65936   0.00000  Uiso   1.00
C206   C     0.59557   0.84894   0.66112   0.00000  Uiso   1.00
C207   C     0.53982   0.78598   0.66503   0.00000  Uiso   1.00
H208   H     0.81429   0.67326   0.66056   0.00000  Uiso   1.00
H209   H     0.88182   0.67701   0.60145   0.00000  Uiso   1.00
H210   H     0.90179   0.69987   0.71389   0.00000  Uiso   1.00
H211   H     0.66630   0.62013   0.66694   0.00000  Uiso   1.00
H212   H     0.94562   0.71708   0.53501   0.00000  Uiso   1.00
H213   H     0.98772   0.76528   0.77210   0.00000  Uiso   1.00
H214   H     0.49114   0.59713   0.67310   0.00000  Uiso   1.00
H215   H     0.72880   0.94989   0.65353   0.00000  Uiso   1.00
H216   H     0.79163   0.96883   0.59403   0.00000  Uiso   1.00
H217   H     0.81162   0.99169   0.70647   0.00000  Uiso   1.00
H218   H     0.57612   0.91195   0.65952   0.00000  Uiso   1.00
H219   H     0.87243   0.95393   0.52899   0.00000  Uiso   1.00
H220   H     0.91453   0.00212   0.76608   0.00000  Uiso   1.00
H221   H     0.41795   0.83398   0.66707   0.00000  Uiso   1.00
O222   O     0.95192   0.84298   0.49300   0.00000  Uiso   1.00
O223   O     0.00715   0.90620   0.80405   0.00000  Uiso   1.00
O224   O     0.35565   0.68560   0.67416   0.00000  Uiso   1.00
N225   N     0.91975   0.77022   0.54176   0.00000  Uiso   1.00
N226   N     0.95913   0.81528   0.76342   0.00000  Uiso   1.00
N227   N     0.49487   0.65808   0.67087   0.00000  Uiso   1.00
N228   N     0.88037   0.89767   0.53852   0.00000  Uiso   1.00
N229   N     0.91974   0.94273   0.76018   0.00000  Uiso   1.00
N230   N     0.45548   0.78553   0.66763   0.00000  Uiso   1.00
C231   C     0.29470   0.23664   0.15895   0.00000  Uiso   1.00
C232   C     0.31953   0.27703   0.12586   0.00000  Uiso   1.00
C233   C     0.36235   0.24001   0.09984   0.00000  Uiso   1.00
C234   C     0.37915   0.28733   0.07165   0.00000  Uiso   1.00
C235   C     0.42157   0.33769   0.02059   0.00000  Uiso   1.00
C236   C     0.33039   0.28946   0.18695   0.00000  Uiso   1.00
C237   C     0.38234   0.26288   0.21229   0.00000  Uiso   1.00
C238   C     0.40828   0.32066   0.23553   0.00000  Uiso   1.00
C239   C     0.46752   0.39029   0.27932   0.00000  Uiso   1.00
C240   C     0.20244   0.24613   0.16143   0.00000  Uiso   1.00
C241   C     0.14681   0.18312   0.16534   0.00000  Uiso   1.00
C242   C     0.06502   0.20443   0.16710   0.00000  Uiso   1.00
C243   C     0.92560   0.20678   0.17128   0.00000  Uiso   1.00
C244   C     0.24838   0.38651   0.15514   0.00000  Uiso   1.00
C245   C     0.29437   0.35844   0.12379   0.00000  Uiso   1.00
C246   C     0.31111   0.40583   0.09562   0.00000  Uiso   1.00
C247   C     0.35395   0.36888   0.06957   0.00000  Uiso   1.00
C248   C     0.30524   0.37086   0.18488   0.00000  Uiso   1.00
C249   C     0.33110   0.42870   0.20808   0.00000  Uiso   1.00
C250   C     0.38308   0.40221   0.23345   0.00000  Uiso   1.00
C251   C     0.17729   0.32754   0.15936   0.00000  Uiso   1.00
C252   C     0.09557   0.34894   0.16112   0.00000  Uiso   1.00
C253   C     0.03982   0.28598   0.16503   0.00000  Uiso   1.00
H254   H     0.31429   0.17326   0.16056   0.00000  Uiso   1.00
H255   H     0.38182   0.17701   0.10145   0.00000  Uiso   1.00
H256   H     0.40179   0.19987   0.21389   0.00000  Uiso   1.00
H257   H     0.16630   0.12013   0.16694   0.00000  Uiso   1.00
H258   H     0.44562   0.21708   0.03501   0.00000  Uiso   1.00
H259   H     0.48772   0.26528   0.27210   0.00000  Uiso   1.00
H260   H     0.99114   0.09713   0.17310   0.00000  Uiso   1.00
H261   H     0.22880   0.44989   0.15353   0.00000  Uiso   1.00
H262   H     0.29163   0.46883   0.09403   0.00000  Uiso   1.00
H263   H     0.31162   0.49169   0.20647   0.00000  Uiso   1.00
H264   H     0.07612   0.41195   0.15952   0.00000  Uiso   1.00
H265   H     0.37243   0.45393   0.02899   0.00000  Uiso   1.00
H266   H     0.41453   0.50212   0.26608   0.00000  Uiso   1.00
H267   H     0.91795   0.33398   0.16707   0.00000  Uiso   1.00
O268   O     0.45192   0.34298   0.99300   0.00000  Uiso   1.00
O269   O     0.50715   0.40620   0.30405   0.00000  Uiso   1.00
O270   O     0.85565   0.18560   0.17416   0.00000  Uiso   1.00
N271   N     0.41975   0.27022   0.04176   0.00000  Uiso   1.00
N272   N     0.45913   0.31528   0.26342   0.00000  Uiso   1.00
N273   N     0.99487   0.15808   0.17087   0.00000  Uiso   1.00
N274   N     0.38037   0.39767   0.03852   0.00000  Uiso   1.00
N275   N     0.41974   0.44273   0.26018   0.00000  Uiso   1.00
N276   N     0.95548   0.28553   0.16763   0.00000  Uiso   1.00
C277   C     0.70530   0.76336   0.15895   0.00000  Uiso   1.00
C278   C     0.68047   0.72297   0.12586   0.00000  Uiso   1.00
C279   C     0.63765   0.75999   0.09984   0.00000  Uiso   1.00
C280   C     0.62085   0.71267   0.07165   0.00000  Uiso   1.00
C281   C     0.57843   0.66231   0.02059   0.00000  Uiso   1.00
C282   C     0.66961   0.71054   0.18695   0.00000  Uiso   1.00
C283   C     0.61766   0.73712   0.21229   0.00000  Uiso   1.00
C284   C     0.59172   0.67934   0.23553   0.00000  Uiso   1.00
C285   C     0.53248   0.60971   0.27932   0.00000  Uiso   1.00
C286   C     0.79756   0.75387   0.16143   0.00000  Uiso   1.00
C287   C     0.85319   0.81688   0.16534   0.00000  Uiso   1.00
C288   C     0.93498   0.79557   0.16710   0.00000  Uiso   1.00
C289   C     0.07440   0.79322   0.17128   0.00000  Uiso   1.00
C290   C     0.75162   0.61349   0.15514   0.00000  Uiso   1.00
C291   C     0.70563   0.64156   0.12379   0.00000  Uiso   1.00
C292   C     0.68889   0.59417   0.09562   0.00000  Uiso   1.00
C293   C     0.64605   0.63112   0.06957   0.00000  Uiso   1.00
C294   C     0.69476   0.62914   0.18488   0.00000  Uiso   1.00
C295   C     0.66890   0.57130   0.20808   0.00000  Uiso   1.00
C296   C     0.61692   0.59779   0.23345   0.00000  Uiso   1.00
C297   C     0.82271   0.67246   0.15936   0.00000  Uiso   1.00
C298   C     0.90443   0.65106   0.16112   0.00000  Uiso   1.00
C299   C     0.96018   0.71402   0.16503   0.00000  Uiso   1.00
H300   H     0.68571   0.82674   0.16056   0.00000  Uiso   1.00
H301   H     0.61818   0.82299   0.10145   0.00000  Uiso   1.00
H302   H     0.59821   0.80013   0.21389   0.00000  Uiso   1.00
H303   H     0.83370   0.87987   0.16694   0.00000  Uiso   1.00
H304   H     0.55438   0.78292   0.03501   0.00000  Uiso   1.00
H305   H     0.51228   0.73472   0.27210   0.00000  Uiso   1.00
H306   H     0.00886   0.90287   0.17310   0.00000  Uiso   1.00
H307   H     0.77120   0.55011   0.15353   0.00000  Uiso   1.00
H308   H     0.70837   0.53117   0.09403   0.00000  Uiso   1.00
H309   H     0.68838   0.50831   0.20647   0.00000  Uiso   1.00
H310   H     0.92388   0.58805   0.15952   0.00000  Uiso   1.00
H311   H     0.62757   0.54607   0.02899   0.00000  Uiso   1.00
H312   H     0.58547   0.49788   0.26608   0.00000  Uiso   1.00
H313   H     0.08205   0.66602   0.16707   0.00000  Uiso   1.00
O314   O     0.54808   0.65702   0.99300   0.00000  Uiso   1.00
O315   O     0.49285   0.59380   0.30405   0.00000  Uiso   1.00
O316   O     0.14435   0.81440   0.17416   0.00000  Uiso   1.00
N317   N     0.58025   0.72978   0.04176   0.00000  Uiso   1.00
N318   N     0.54087   0.68472   0.26342   0.00000  Uiso   1.00
N319   N     0.00513   0.84192   0.17087   0.00000  Uiso   1.00
N320   N     0.61963   0.60233   0.03852   0.00000  Uiso   1.00
N321   N     0.58026   0.55727   0.26018   0.00000  Uiso   1.00
N322   N     0.04452   0.71447   0.16763   0.00000  Uiso   1.00
C323   C     0.20530   0.26336   0.65895   0.00000  Uiso   1.00
C324   C     0.18047   0.22297   0.62586   0.00000  Uiso   1.00
C325   C     0.13765   0.25999   0.59984   0.00000  Uiso   1.00
C326   C     0.12085   0.21267   0.57165   0.00000  Uiso   1.00
C327   C     0.07843   0.16231   0.52059   0.00000  Uiso   1.00
C328   C     0.16961   0.21054   0.68695   0.00000  Uiso   1.00
C329   C     0.11766   0.23712   0.71229   0.00000  Uiso   1.00
C330   C     0.09172   0.17934   0.73553   0.00000  Uiso   1.00
C331   C     0.03248   0.10971   0.77932   0.00000  Uiso   1.00
C332   C     0.29756   0.25387   0.66143   0.00000  Uiso   1.00
C333   C     0.35319   0.31688   0.66534   0.00000  Uiso   1.00
C334   C     0.43498   0.29557   0.66710   0.00000  Uiso   1.00
C335   C     0.57440   0.29322   0.67128   0.00000  Uiso   1.00
C336   C     0.25162   0.11349   0.65514   0.00000  Uiso   1.00
C337   C     0.20563   0.14156   0.62379   0.00000  Uiso   1.00
C338   C     0.18889   0.09417   0.59562   0.00000  Uiso   1.00
C339   C     0.14605   0.13112   0.56957   0.00000  Uiso   1.00
C340   C     0.19476   0.12914   0.68488   0.00000  Uiso   1.00
C341   C     0.16890   0.07130   0.70808   0.00000  Uiso   1.00
C342   C     0.11692   0.09779   0.73345   0.00000  Uiso   1.00
C343   C     0.32271   0.17246   0.65936   0.00000  Uiso   1.00
C344   C     0.40443   0.15106   0.66112   0.00000  Uiso   1.00
C345   C     0.46018   0.21402   0.66503   0.00000  Uiso   1.00
H346   H     0.18571   0.32674   0.66056   0.00000  Uiso   1.00
H347   H     0.11818   0.32299   0.60145   0.00000  Uiso   1.00
H348   H     0.09821   0.30013   0.71389   0.00000  Uiso   1.00
H349   H     0.33370   0.37987   0.66694   0.00000  Uiso   1.00
H350   H     0.05438   0.28292   0.53501   0.00000  Uiso   1.00
H351   H     0.01228   0.23472   0.77210   0.00000  Uiso   1.00
H352   H     0.50886   0.40287   0.67310   0.00000  Uiso   1.00
H353   H     0.27120   0.05011   0.65353   0.00000  Uiso   1.00
H354   H     0.20837   0.03117   0.59403   0.00000  Uiso   1.00
H355   H     0.18838   0.00831   0.70647   0.00000  Uiso   1.00
H356   H     0.42388   0.08805   0.65952   0.00000  Uiso   1.00
H357   H     0.12757   0.04607   0.52899   0.00000  Uiso   1.00
H358   H     0.08547   0.99788   0.76608   0.00000  Uiso   1.00
H359   H     0.58205   0.16602   0.66707   0.00000  Uiso   1.00
O360   O     0.04808   0.15702   0.49300   0.00000  Uiso   1.00
O361   O     0.99285   0.09380   0.80405   0.00000  Uiso   1.00
O362   O     0.64435   0.31440   0.67416   0.00000  Uiso   1.00
N363   N     0.08025   0.22978   0.54176   0.00000  Uiso   1.00
N364   N     0.04087   0.18472   0.76342   0.00000  Uiso   1.00
N365   N     0.50513   0.34192   0.67087   0.00000  Uiso   1.00
N366   N     0.11963   0.10233   0.53852   0.00000  Uiso   1.00
N367   N     0.08026   0.05727   0.76018   0.00000  Uiso   1.00
N368   N     0.54452   0.21447   0.66763   0.00000  Uiso   1.00
C369   C     0.76336   0.29470   0.84105   0.00000  Uiso   1.00
C370   C     0.72297   0.31953   0.87414   0.00000  Uiso   1.00
C371   C     0.75999   0.36235   0.90016   0.00000  Uiso   1.00
C372   C     0.71267   0.37915   0.92835   0.00000  Uiso   1.00
C373   C     0.66231   0.42157   0.97941   0.00000  Uiso   1.00
C374   C     0.71054   0.33039   0.81305   0.00000  Uiso   1.00
C375   C     0.73712   0.38234   0.78771   0.00000  Uiso   1.00
C376   C     0.67934   0.40828   0.76447   0.00000  Uiso   1.00
C377   C     0.60971   0.46752   0.72068   0.00000  Uiso   1.00
C378   C     0.75387   0.20244   0.83857   0.00000  Uiso   1.00
C379   C     0.81688   0.14681   0.83466   0.00000  Uiso   1.00
C380   C     0.79557   0.06502   0.83290   0.00000  Uiso   1.00
C381   C     0.79322   0.92560   0.82872   0.00000  Uiso   1.00
C382   C     0.61349   0.24838   0.84486   0.00000  Uiso   1.00
C383   C     0.64156   0.29437   0.87621   0.00000  Uiso   1.00
C384   C     0.59417   0.31111   0.90438   0.00000  Uiso   1.00
C385   C     0.63112   0.35395   0.93043   0.00000  Uiso   1.00
C386   C     0.62914   0.30524   0.81512   0.00000  Uiso   1.00
C387   C     0.57130   0.33110   0.79192   0.00000  Uiso   1.00
C388   C     0.59779   0.38308   0.76655   0.00000  Uiso   1.00
C389   C     0.67246   0.17729   0.84064   0.00000  Uiso   1.00
C390   C     0.65106   0.09557   0.83888   0.00000  Uiso   1.00
C391   C     0.71402   0.03982   0.83497   0.00000  Uiso   1.00
H392   H     0.82674   0.31429   0.83944   0.00000  Uiso   1.00
H393   H     0.82299   0.38182   0.89855   0.00000  Uiso   1.00
H394   H     0.80013   0.40179   0.78611   0.00000  Uiso   1.00
H395   H     0.87987   0.16630   0.83306   0.00000  Uiso   1.00
H396   H     0.78292   0.44562   0.96499   0.00000  Uiso   1.00
H397   H     0.73472   0.48772   0.72790   0.00000  Uiso   1.00
H398   H     0.90287   0.99114   0.82690   0.00000  Uiso   1.00
H399   H     0.55011   0.22880   0.84647   0.00000  Uiso   1.00
H400   H     0.53117   0.29163   0.90597   0.00000  Uiso   1.00
H401   H     0.50831   0.31162   0.79353   0.00000  Uiso   1.00
H402   H     0.58805   0.07612   0.84048   0.00000  Uiso   1.00
H403   H     0.54607   0.37243   0.97101   0.00000  Uiso   1.00
H404   H     0.49788   0.41453   0.73392   0.00000  Uiso   1.00
H405   H     0.66602   0.91795   0.83293   0.00000  Uiso   1.00
O406   O     0.65702   0.45192   0.00700   0.00000  Uiso   1.00
O407   O     0.59380   0.50715   0.69595   0.00000  Uiso   1.00
O408   O     0.81440   0.85565   0.82584   0.00000  Uiso   1.00
N409   N     0.72978   0.41975   0.95824   0.00000  Uiso   1.00
N410   N     0.68472   0.45913   0.73658   0.00000  Uiso   1.00
N411   N     0.84192   0.99487   0.82913   0.00000  Uiso   1.00
N412   N     0.60233   0.38037   0.96148   0.00000  Uiso   1.00
N413   N     0.55727   0.41974   0.73982   0.00000  Uiso   1.00
N414   N     0.71447   0.95548   0.83237   0.00000  Uiso   1.00
C415   C     0.26336   0.79470   0.34105   0.00000  Uiso   1.00
C416   C     0.22297   0.81953   0.37414   0.00000  Uiso   1.00
C417   C     0.25999   0.86235   0.40016   0.00000  Uiso   1.00
C418   C     0.21267   0.87915   0.42835   0.00000  Uiso   1.00
C419   C     0.16231   0.92157   0.47941   0.00000  Uiso   1.00
C420   C     0.21054   0.83039   0.31305   0.00000  Uiso   1.00
C421   C     0.23712   0.88234   0.28771   0.00000  Uiso   1.00
C422   C     0.17934   0.90828   0.26447   0.00000  Uiso   1.00
C423   C     0.10971   0.96752   0.22068   0.00000  Uiso   1.00
C424   C     0.25387   0.70244   0.33857   0.00000  Uiso   1.00
C425   C     0.31688   0.64681   0.33466   0.00000  Uiso   1.00
C426   C     0.29557   0.56502   0.33290   0.00000  Uiso   1.00
C427   C     0.29322   0.42560   0.32872   0.00000  Uiso   1.00
C428   C     0.11349   0.74838   0.34486   0.00000  Uiso   1.00
C429   C     0.14156   0.79437   0.37621   0.00000  Uiso   1.00
C430   C     0.09417   0.81111   0.40438   0.00000  Uiso   1.00
C431   C     0.13112   0.85395   0.43043   0.00000  Uiso   1.00
C432   C     0.12914   0.80524   0.31512   0.00000  Uiso   1.00
C433   C     0.07130   0.83110   0.29192   0.00000  Uiso   1.00
C434   C     0.09779   0.88308   0.26655   0.00000  Uiso   1.00
C435   C     0.17246   0.67729   0.34064   0.00000  Uiso   1.00
C436   C     0.15106   0.59557   0.33888   0.00000  Uiso   1.00
C437   C     0.21402   0.53982   0.33497   0.00000  Uiso   1.00
H438   H     0.32674   0.81429   0.33944   0.00000  Uiso   1.00
H439   H     0.32299   0.88182   0.39855   0.00000  Uiso   1.00
H440   H     0.30013   0.90179   0.28611   0.00000  Uiso   1.00
H441   H     0.37987   0.66630   0.33306   0.00000  Uiso   1.00
H442   H     0.28292   0.94562   0.46499   0.00000  Uiso   1.00
H443   H     0.23472   0.98772   0.22790   0.00000  Uiso   1.00
H444   H     0.40287   0.49114   0.32690   0.00000  Uiso   1.00
H445   H     0.05011   0.72880   0.34647   0.00000  Uiso   1.00
H446   H     0.03117   0.79163   0.40597   0.00000  Uiso   1.00
H447   H     0.00831   0.81162   0.29353   0.00000  Uiso   1.00
H448   H     0.08805   0.57612   0.34048   0.00000  Uiso   1.00
H449   H     0.04607   0.87243   0.47101   0.00000  Uiso   1.00
H450   H     0.99788   0.91453   0.23392   0.00000  Uiso   1.00
H451   H     0.16602   0.41795   0.33293   0.00000  Uiso   1.00
O452   O     0.15702   0.95192   0.50700   0.00000  Uiso   1.00
O453   O     0.09380   0.00715   0.19595   0.00000  Uiso   1.00
O454   O     0.31440   0.35565   0.32584   0.00000  Uiso   1.00
N455   N     0.22978   0.91975   0.45824   0.00000  Uiso   1.00
N456   N     0.18472   0.95913   0.23658   0.00000  Uiso   1.00
N457   N     0.34192   0.49487   0.32913   0.00000  Uiso   1.00
N458   N     0.10233   0.88037   0.46148   0.00000  Uiso   1.00
N459   N     0.05727   0.91974   0.23982   0.00000  Uiso   1.00
N460   N     0.21447   0.45548   0.33237   0.00000  Uiso   1.00
C461   C     0.73664   0.20530   0.34105   0.00000  Uiso   1.00
C462   C     0.77703   0.18047   0.37414   0.00000  Uiso   1.00
C463   C     0.74001   0.13765   0.40016   0.00000  Uiso   1.00
C464   C     0.78733   0.12085   0.42835   0.00000  Uiso   1.00
C465   C     0.83769   0.07843   0.47941   0.00000  Uiso   1.00
C466   C     0.78946   0.16961   0.31305   0.00000  Uiso   1.00
C467   C     0.76288   0.11766   0.28771   0.00000  Uiso   1.00
C468   C     0.82066   0.09172   0.26447   0.00000  Uiso   1.00
C469   C     0.89029   0.03248   0.22068   0.00000  Uiso   1.00
C470   C     0.74613   0.29756   0.33857   0.00000  Uiso   1.00
C471   C     0.68312   0.35319   0.33466   0.00000  Uiso   1.00
C472   C     0.70443   0.43498   0.33290   0.00000  Uiso   1.00
C473   C     0.70678   0.57440   0.32872   0.00000  Uiso   1.00
C474   C     0.88651   0.25162   0.34486   0.00000  Uiso   1.00
C475   C     0.85844   0.20563   0.37621   0.00000  Uiso   1.00
C476   C     0.90583   0.18889   0.40438   0.00000  Uiso   1.00
C477   C     0.86888   0.14605   0.43043   0.00000  Uiso   1.00
C478   C     0.87086   0.19476   0.31512   0.00000  Uiso   1.00
C479   C     0.92870   0.16890   0.29192   0.00000  Uiso   1.00
C480   C     0.90221   0.11692   0.26655   0.00000  Uiso   1.00
C481   C     0.82754   0.32271   0.34064   0.00000  Uiso   1.00
C482   C     0.84894   0.40443   0.33888   0.00000  Uiso   1.00
C483   C     0.78598   0.46018   0.33497   0.00000  Uiso   1.00
H484   H     0.67326   0.18571   0.33944   0.00000  Uiso   1.00
H485   H     0.67701   0.11818   0.39855   0.00000  Uiso   1.00
H486   H     0.69987   0.09821   0.28611   0.00000  Uiso   1.00
H487   H     0.62013   0.33370   0.33306   0.00000  Uiso   1.00
H488   H     0.71708   0.05438   0.46499   0.00000  Uiso   1.00
H489   H     0.76528   0.01228   0.22790   0.00000  Uiso   1.00
H490   H     0.59713   0.50886   0.32690   0.00000  Uiso   1.00
H491   H     0.94989   0.27120   0.34647   0.00000  Uiso   1.00
H492   H     0.96883   0.20837   0.40597   0.00000  Uiso   1.00
H493   H     0.99169   0.18838   0.29353   0.00000  Uiso   1.00
H494   H     0.91195   0.42388   0.34048   0.00000  Uiso   1.00
H495   H     0.95393   0.12757   0.47101   0.00000  Uiso   1.00
H496   H     0.00212   0.08547   0.23392   0.00000  Uiso   1.00
H497   H     0.83398   0.58205   0.33293   0.00000  Uiso   1.00
O498   O     0.84298   0.04808   0.50700   0.00000  Uiso   1.00
O499   O     0.90620   0.99285   0.19595   0.00000  Uiso   1.00
O500   O     0.68560   0.64435   0.32584   0.00000  Uiso   1.00
N501   N     0.77022   0.08025   0.45824   0.00000  Uiso   1.00
N502   N     0.81528   0.04087   0.23658   0.00000  Uiso   1.00
N503   N     0.65808   0.50513   0.32913   0.00000  Uiso   1.00
N504   N     0.89767   0.11963   0.46148   0.00000  Uiso   1.00
N505   N     0.94273   0.08026   0.23982   0.00000  Uiso   1.00
N506   N     0.78553   0.54452   0.33237   0.00000  Uiso   1.00
C507   C     0.23664   0.70530   0.84105   0.00000  Uiso   1.00
C508   C     0.27703   0.68047   0.87414   0.00000  Uiso   1.00
C509   C     0.24001   0.63765   0.90016   0.00000  Uiso   1.00
C510   C     0.28733   0.62085   0.92835   0.00000  Uiso   1.00
C511   C     0.33769   0.57843   0.97941   0.00000  Uiso   1.00
C512   C     0.28946   0.66961   0.81305   0.00000  Uiso   1.00
C513   C     0.26288   0.61766   0.78771   0.00000  Uiso   1.00
C514   C     0.32066   0.59172   0.76447   0.00000  Uiso   1.00
C515   C     0.39029   0.53248   0.72068   0.00000  Uiso   1.00
C516   C     0.24613   0.79756   0.83857   0.00000  Uiso   1.00
C517   C     0.18312   0.85319   0.83466   0.00000  Uiso   1.00
C518   C     0.20443   0.93498   0.83290   0.00000  Uiso   1.00
C519   C     0.20678   0.07440   0.82872   0.00000  Uiso   1.00
C520   C     0.38651   0.75162   0.84486   0.00000  Uiso   1.00
C521   C     0.35844   0.70563   0.87621   0.00000  Uiso   1.00
C522   C     0.40583   0.68889   0.90438   0.00000  Uiso   1.00
C523   C     0.36888   0.64605   0.93043   0.00000  Uiso   1.00
C524   C     0.37086   0.69476   0.81512   0.00000  Uiso   1.00
C525   C     0.42870   0.66890   0.79192   0.00000  Uiso   1.00
C526   C     0.40221   0.61692   0.76655   0.00000  Uiso   1.00
C527   C     0.32754   0.82271   0.84064   0.00000  Uiso   1.00
C528   C     0.34894   0.90443   0.83888   0.00000  Uiso   1.00
C529   C     0.28598   0.96018   0.83497   0.00000  Uiso   1.00
H530   H     0.17326   0.68571   0.83944   0.00000  Uiso   1.00
H531   H     0.17701   0.61818   0.89855   0.00000  Uiso   1.00
H532   H     0.19987   0.59821   0.78611   0.00000  Uiso   1.00
H533   H     0.12013   0.83370   0.83306   0.00000  Uiso   1.00
H534   H     0.21708   0.55438   0.96499   0.00000  Uiso   1.00
H535   H     0.26528   0.51228   0.72790   0.00000  Uiso   1.00
H536   H     0.09713   0.00886   0.82690   0.00000  Uiso   1.00
H537   H     0.44989   0.77120   0.84647   0.00000  Uiso   1.00
H538   H     0.46883   0.70837   0.90597   0.00000  Uiso   1.00
H539   H     0.49169   0.68838   0.79353   0.00000  Uiso   1.00
H540   H     0.41195   0.92388   0.84048   0.00000  Uiso   1.00
H541   H     0.45393   0.62757   0.97101   0.00000  Uiso   1.00
H542   H     0.50212   0.58547   0.73392   0.00000  Uiso   1.00
H543   H     0.33398   0.08205   0.83293   0.00000  Uiso   1.00
O544   O     0.34298   0.54808   0.00700   0.00000  Uiso   1.00
O545   O     0.40620   0.49285   0.69595   0.00000  Uiso   1.00
O546   O     0.18560   0.14435   0.82584   0.00000  Uiso   1.00
N547   N     0.27022   0.58025   0.95824   0.00000  Uiso   1.00
N548   N     0.31528   0.54087   0.73658   0.00000  Uiso   1.00
N549   N     0.15808   0.00513   0.82913   0.00000  Uiso   1.00
N550   N     0.39767   0.61963   0.96148   0.00000  Uiso   1.00
N551   N     0.44273   0.58026   0.73982   0.00000  Uiso   1.00
N552   N     0.28553   0.04452   0.83237   0.00000  Uiso   1.00
C553   C     0.20530   0.76336   0.59105   0.00000  Uiso   1.00
C554   C     0.18047   0.72297   0.62414   0.00000  Uiso   1.00
C555   C     0.13765   0.75999   0.65016   0.00000  Uiso   1.00
C556   C     0.12085   0.71267   0.67835   0.00000  Uiso   1.00
C557   C     0.07843   0.66231   0.72941   0.00000  Uiso   1.00
C558   C     0.16961   0.71054   0.56305   0.00000  Uiso   1.00
C559   C     0.11766   0.73712   0.53771   0.00000  Uiso   1.00
C560   C     0.09172   0.67934   0.51447   0.00000  Uiso   1.00
C561   C     0.03248   0.60971   0.47068   0.00000  Uiso   1.00
C562   C     0.29756   0.75387   0.58857   0.00000  Uiso   1.00
C563   C     0.35319   0.81688   0.58466   0.00000  Uiso   1.00
C564   C     0.43498   0.79557   0.58290   0.00000  Uiso   1.00
C565   C     0.57440   0.79322   0.57872   0.00000  Uiso   1.00
C566   C     0.25162   0.61349   0.59486   0.00000  Uiso   1.00
C567   C     0.20563   0.64156   0.62621   0.00000  Uiso   1.00
C568   C     0.18889   0.59417   0.65438   0.00000  Uiso   1.00
C569   C     0.14605   0.63112   0.68043   0.00000  Uiso   1.00
C570   C     0.19476   0.62914   0.56512   0.00000  Uiso   1.00
C571   C     0.16890   0.57130   0.54192   0.00000  Uiso   1.00
C572   C     0.11692   0.59779   0.51655   0.00000  Uiso   1.00
C573   C     0.32271   0.67246   0.59064   0.00000  Uiso   1.00
C574   C     0.40443   0.65106   0.58888   0.00000  Uiso   1.00
C575   C     0.46018   0.71402   0.58497   0.00000  Uiso   1.00
H576   H     0.18571   0.82674   0.58944   0.00000  Uiso   1.00
H577   H     0.11818   0.82299   0.64855   0.00000  Uiso   1.00
H578   H     0.09821   0.80013   0.53611   0.00000  Uiso   1.00
H579   H     0.33370   0.87987   0.58306   0.00000  Uiso   1.00
H580   H     0.05438   0.78292   0.71499   0.00000  Uiso   1.00
H581   H     0.01228   0.73472   0.47790   0.00000  Uiso   1.00
H582   H     0.50886   0.90287   0.57690   0.00000  Uiso   1.00
H583   H     0.27120   0.55011   0.59647   0.00000  Uiso   1.00
H584   H     0.20837   0.53117   0.65597   0.00000  Uiso   1.00
H585   H     0.18838   0.50831   0.54353   0.00000  Uiso   1.00
H586   H     0.42388   0.58805   0.59048   0.00000  Uiso   1.00
H587   H     0.12757   0.54607   0.72101   0.00000  Uiso   1.00
H588   H     0.08547   0.49788   0.48392   0.00000  Uiso   1.00
H589   H     0.58205   0.66602   0.58293   0.00000  Uiso   1.00
O590   O     0.04808   0.65702   0.75700   0.00000  Uiso   1.00
O591   O     0.99285   0.59380   0.44595   0.00000  Uiso   1.00
O592   O     0.64435   0.81440   0.57584   0.00000  Uiso   1.00
N593   N     0.08025   0.72978   0.70824   0.00000  Uiso   1.00
N594   N     0.04087   0.68472   0.48658   0.00000  Uiso   1.00
N595   N     0.50513   0.84192   0.57913   0.00000  Uiso   1.00
N596   N     0.11963   0.60233   0.71148   0.00000  Uiso   1.00
N597   N     0.08026   0.55727   0.48982   0.00000  Uiso   1.00
N598   N     0.54452   0.71447   0.58237   0.00000  Uiso   1.00
C599   C     0.70530   0.26336   0.09105   0.00000  Uiso   1.00
C600   C     0.68047   0.22297   0.12414   0.00000  Uiso   1.00
C601   C     0.63765   0.25999   0.15016   0.00000  Uiso   1.00
C602   C     0.62085   0.21267   0.17835   0.00000  Uiso   1.00
C603   C     0.57843   0.16231   0.22941   0.00000  Uiso   1.00
C604   C     0.66961   0.21054   0.06305   0.00000  Uiso   1.00
C605   C     0.61766   0.23712   0.03771   0.00000  Uiso   1.00
C606   C     0.59172   0.17934   0.01447   0.00000  Uiso   1.00
C607   C     0.53248   0.10971   0.97068   0.00000  Uiso   1.00
C608   C     0.79756   0.25387   0.08857   0.00000  Uiso   1.00
C609   C     0.85319   0.31688   0.08466   0.00000  Uiso   1.00
C610   C     0.93498   0.29557   0.08290   0.00000  Uiso   1.00
C611   C     0.07440   0.29322   0.07872   0.00000  Uiso   1.00
C612   C     0.75162   0.11349   0.09486   0.00000  Uiso   1.00
C613   C     0.70563   0.14156   0.12621   0.00000  Uiso   1.00
C614   C     0.68889   0.09417   0.15438   0.00000  Uiso   1.00
C615   C     0.64605   0.13112   0.18043   0.00000  Uiso   1.00
C616   C     0.69476   0.12914   0.06512   0.00000  Uiso   1.00
C617   C     0.66890   0.07130   0.04192   0.00000  Uiso   1.00
C618   C     0.61692   0.09779   0.01655   0.00000  Uiso   1.00
C619   C     0.82271   0.17246   0.09064   0.00000  Uiso   1.00
C620   C     0.90443   0.15106   0.08888   0.00000  Uiso   1.00
C621   C     0.96018   0.21402   0.08497   0.00000  Uiso   1.00
H622   H     0.68571   0.32674   0.08944   0.00000  Uiso   1.00
H623   H     0.61818   0.32299   0.14855   0.00000  Uiso   1.00
H624   H     0.59821   0.30013   0.03611   0.00000  Uiso   1.00
H625   H     0.83370   0.37987   0.08306   0.00000  Uiso   1.00
H626   H     0.55438   0.28292   0.21499   0.00000  Uiso   1.00
H627   H     0.51228   0.23472   0.97790   0.00000  Uiso   1.00
H628   H     0.00886   0.40287   0.07690   0.00000  Uiso   1.00
H629   H     0.77120   0.05011   0.09647   0.00000  Uiso   1.00
H630   H     0.70837   0.03117   0.15597   0.00000  Uiso   1.00
H631   H     0.68838   0.00831   0.04353   0.00000  Uiso   1.00
H632   H     0.92388   0.08805   0.09048   0.00000  Uiso   1.00
H633   H     0.62757   0.04607   0.22101   0.00000  Uiso   1.00
H634   H     0.58547   0.99788   0.98392   0.00000  Uiso   1.00
H635   H     0.08205   0.16602   0.08293   0.00000  Uiso   1.00
O636   O     0.54808   0.15702   0.25700   0.00000  Uiso   1.00
O637   O     0.49285   0.09380   0.94595   0.00000  Uiso   1.00
O638   O     0.14435   0.31440   0.07584   0.00000  Uiso   1.00
N639   N     0.58025   0.22978   0.20824   0.00000  Uiso   1.00
N640   N     0.54087   0.18472   0.98658   0.00000  Uiso   1.00
N641   N     0.00513   0.34192   0.07913   0.00000  Uiso   1.00
N642   N     0.61963   0.10233   0.21148   0.00000  Uiso   1.00
N643   N     0.58026   0.05727   0.98982   0.00000  Uiso   1.00
N644   N     0.04452   0.21447   0.08237   0.00000  Uiso   1.00
C645   C     0.29470   0.73664   0.09105   0.00000  Uiso   1.00
C646   C     0.31953   0.77703   0.12414   0.00000  Uiso   1.00
C647   C     0.36235   0.74001   0.15016   0.00000  Uiso   1.00
C648   C     0.37915   0.78733   0.17835   0.00000  Uiso   1.00
C649   C     0.42157   0.83769   0.22941   0.00000  Uiso   1.00
C650   C     0.33039   0.78946   0.06305   0.00000  Uiso   1.00
C651   C     0.38234   0.76288   0.03771   0.00000  Uiso   1.00
C652   C     0.40828   0.82066   0.01447   0.00000  Uiso   1.00
C653   C     0.46752   0.89029   0.97068   0.00000  Uiso   1.00
C654   C     0.20244   0.74613   0.08857   0.00000  Uiso   1.00
C655   C     0.14681   0.68312   0.08466   0.00000  Uiso   1.00
C656   C     0.06502   0.70443   0.08290   0.00000  Uiso   1.00
C657   C     0.92560   0.70678   0.07872   0.00000  Uiso   1.00
C658   C     0.24838   0.88651   0.09486   0.00000  Uiso   1.00
C659   C     0.29437   0.85844   0.12621   0.00000  Uiso   1.00
C660   C     0.31111   0.90583   0.15438   0.00000  Uiso   1.00
C661   C     0.35395   0.86888   0.18043   0.00000  Uiso   1.00
C662   C     0.30524   0.87086   0.06512   0.00000  Uiso   1.00
C663   C     0.33110   0.92870   0.04192   0.00000  Uiso   1.00
C664   C     0.38308   0.90221   0.01655   0.00000  Uiso   1.00
C665   C     0.17729   0.82754   0.09064   0.00000  Uiso   1.00
C666   C     0.09557   0.84894   0.08888   0.00000  Uiso   1.00
C667   C     0.03982   0.78598   0.08497   0.00000  Uiso   1.00
H668   H     0.31429   0.67326   0.08944   0.00000  Uiso   1.00
H669   H     0.38182   0.67701   0.14855   0.00000  Uiso   1.00
H670   H     0.40179   0.69987   0.03611   0.00000  Uiso   1.00
H671   H     0.16630   0.62013   0.08306   0.00000  Uiso   1.00
H672   H     0.44562   0.71708   0.21499   0.00000  Uiso   1.00
H673   H     0.48772   0.76528   0.97790   0.00000  Uiso   1.00
H674   H     0.99114   0.59713   0.07690   0.00000  Uiso   1.00
H675   H     0.22880   0.94989   0.09647   0.00000  Uiso   1.00
H676   H     0.29163   0.96883   0.15597   0.00000  Uiso   1.00
H677   H     0.31162   0.99169   0.04353   0.00000  Uiso   1.00
H678   H     0.07612   0.91195   0.09048   0.00000  Uiso   1.00
H679   H     0.37243   0.95393   0.22101   0.00000  Uiso   1.00
H680   H     0.41453   0.00212   0.98392   0.00000  Uiso   1.00
H681   H     0.91795   0.83398   0.08293   0.00000  Uiso   1.00
O682   O     0.45192   0.84298   0.25700   0.00000  Uiso   1.00
O683   O     0.50715   0.90620   0.94595   0.00000  Uiso   1.00
O684   O     0.85565   0.68560   0.07584   0.00000  Uiso   1.00
N685   N     0.41975   0.77022   0.20824   0.00000  Uiso   1.00
N686   N     0.45913   0.81528   0.98658   0.00000  Uiso   1.00
N687   N     0.99487   0.65808   0.07913   0.00000  Uiso   1.00
N688   N     0.38037   0.89767   0.21148   0.00000  Uiso   1.00
N689   N     0.41974   0.94273   0.98982   0.00000  Uiso   1.00
N690   N     0.95548   0.78553   0.08237   0.00000  Uiso   1.00
C691   C     0.79470   0.23664   0.59105   0.00000  Uiso   1.00
C692   C     0.81953   0.27703   0.62414   0.00000  Uiso   1.00
C693   C     0.86235   0.24001   0.65016   0.00000  Uiso   1.00
C694   C     0.87915   0.28733   0.67835   0.00000  Uiso   1.00
C695   C     0.92157   0.33769   0.72941   0.00000  Uiso   1.00
C696   C     0.83039   0.28946   0.56305   0.00000  Uiso   1.00
C697   C     0.88234   0.26288   0.53771   0.00000  Uiso   1.00
C698   C     0.90828   0.32066   0.51447   0.00000  Uiso   1.00
C699   C     0.96752   0.39029   0.47068   0.00000  Uiso   1.00
C700   C     0.70244   0.24613   0.58857   0.00000  Uiso   1.00
C701   C     0.64681   0.18312   0.58466   0.00000  Uiso   1.00
C702   C     0.56502   0.20443   0.58290   0.00000  Uiso   1.00
C703   C     0.42560   0.20678   0.57872   0.00000  Uiso   1.00
C704   C     0.74838   0.38651   0.59486   0.00000  Uiso   1.00
C705   C     0.79437   0.35844   0.62621   0.00000  Uiso   1.00
C706   C     0.81111   0.40583   0.65438   0.00000  Uiso   1.00
C707   C     0.85395   0.36888   0.68043   0.00000  Uiso   1.00
C708   C     0.80524   0.37086   0.56512   0.00000  Uiso   1.00
C709   C     0.83110   0.42870   0.54192   0.00000  Uiso   1.00
C710   C     0.88308   0.40221   0.51655   0.00000  Uiso   1.00
C711   C     0.67729   0.32754   0.59064   0.00000  Uiso   1.00
C712   C     0.59557   0.34894   0.58888   0.00000  Uiso   1.00
C713   C     0.53982   0.28598   0.58497   0.00000  Uiso   1.00
H714   H     0.81429   0.17326   0.58944   0.00000  Uiso   1.00
H715   H     0.88182   0.17701   0.64855   0.00000  Uiso   1.00
H716   H     0.90179   0.19987   0.53611   0.00000  Uiso   1.00
H717   H     0.66630   0.12013   0.58306   0.00000  Uiso   1.00
H718   H     0.94562   0.21708   0.71499   0.00000  Uiso   1.00
H719   H     0.98772   0.26528   0.47790   0.00000  Uiso   1.00
H720   H     0.49114   0.09713   0.57690   0.00000  Uiso   1.00
H721   H     0.72880   0.44989   0.59647   0.00000  Uiso   1.00
H722   H     0.79163   0.46883   0.65597   0.00000  Uiso   1.00
H723   H     0.81162   0.49169   0.54353   0.00000  Uiso   1.00
H724   H     0.57612   0.41195   0.59048   0.00000  Uiso   1.00
H725   H     0.87243   0.45393   0.72101   0.00000  Uiso   1.00
H726   H     0.91453   0.50212   0.48392   0.00000  Uiso   1.00
H727   H     0.41795   0.33398   0.58293   0.00000  Uiso   1.00
O728   O     0.95192   0.34298   0.75700   0.00000  Uiso   1.00
O729   O     0.00715   0.40620   0.44595   0.00000  Uiso   1.00
O730   O     0.35565   0.18560   0.57584   0.00000  Uiso   1.00
N731   N     0.91975   0.27022   0.70824   0.00000  Uiso   1.00
N732   N     0.95913   0.31528   0.48658   0.00000  Uiso   1.00
N733   N     0.49487   0.15808   0.57913   0.00000  Uiso   1.00
N734   N     0.88037   0.39767   0.71148   0.00000  Uiso   1.00
N735   N     0.91974   0.44273   0.48982   0.00000  Uiso   1.00
N736   N     0.45548   0.28553   0.58237   0.00000  Uiso   1.00
