data_job_01204
_audit_creation_date              2018-12-19
_audit_creation_method            'Materials Studio'
_symmetry_space_group_name_H-M    'P1'
_symmetry_Int_Tables_number       1
_symmetry_cell_setting            triclinic
loop_
_symmetry_equiv_pos_as_xyz
  x,y,z
_cell_length_a                    45.0077
_cell_length_b                    45.0077
_cell_length_c                    7.1547
_cell_angle_alpha                 90.0000
_cell_angle_beta                  90.0000
_cell_angle_gamma                 90.0000
loop_
_atom_site_label
_atom_site_type_symbol
_atom_site_fract_x
_atom_site_fract_y
_atom_site_fract_z
_atom_site_U_iso_or_equiv
_atom_site_adp_type
_atom_site_occupancy
C1     C     0.59960   0.37983   0.27528   0.00000  Uiso   1.00
C2     C     0.58379   0.35692   0.15378   0.00000  Uiso   1.00
C3     C     0.56949   0.33157   0.21785   0.00000  Uiso   1.00
C4     C     0.55638   0.31341   0.08440   0.00000  Uiso   1.00
C5     C     0.53168   0.27676   0.92473   0.00000  Uiso   1.00
C6     C     0.63131   0.38174   0.20115   0.00000  Uiso   1.00
C7     C     0.65696   0.37726   0.30507   0.00000  Uiso   1.00
C8     C     0.68384   0.37999   0.21149   0.00000  Uiso   1.00
C9     C     0.73290   0.38189   0.12540   0.00000  Uiso   1.00
C10    C     0.58516   0.40964   0.23041   0.00000  Uiso   1.00
C11    C     0.57202   0.42864   0.35893   0.00000  Uiso   1.00
C12    C     0.56006   0.45488   0.28999   0.00000  Uiso   1.00
C13    C     0.53747   0.50011   0.24933   0.00000  Uiso   1.00
C14    C     0.60174   0.39267   0.92434   0.00000  Uiso   1.00
C15    C     0.58496   0.36389   0.96316   0.00000  Uiso   1.00
C16    C     0.57186   0.34577   0.82957   0.00000  Uiso   1.00
C17    C     0.55755   0.32040   0.89344   0.00000  Uiso   1.00
C18    C     0.63247   0.38871   0.01054   0.00000  Uiso   1.00
C19    C     0.65932   0.39145   0.91679   0.00000  Uiso   1.00
C20    C     0.68501   0.38698   0.02053   0.00000  Uiso   1.00
C21    C     0.58632   0.41662   0.03979   0.00000  Uiso   1.00
C22    C     0.57438   0.44283   0.97065   0.00000  Uiso   1.00
C23    C     0.56122   0.46186   0.09903   0.00000  Uiso   1.00
H24    H     0.59869   0.37441   0.42369   0.00000  Uiso   1.00
H25    H     0.56860   0.32618   0.36538   0.00000  Uiso   1.00
H26    H     0.65605   0.37186   0.45258   0.00000  Uiso   1.00
H27    H     0.57112   0.42323   0.50643   0.00000  Uiso   1.00
H28    H     0.53576   0.27578   0.21667   0.00000  Uiso   1.00
H29    H     0.72015   0.37211   0.40055   0.00000  Uiso   1.00
H30    H     0.54107   0.48044   0.51411   0.00000  Uiso   1.00
H31    H     0.60264   0.39810   0.77593   0.00000  Uiso   1.00
H32    H     0.57277   0.35117   0.68207   0.00000  Uiso   1.00
H33    H     0.66021   0.39685   0.76928   0.00000  Uiso   1.00
H34    H     0.57529   0.44822   0.82313   0.00000  Uiso   1.00
H35    H     0.53914   0.29606   0.66207   0.00000  Uiso   1.00
H36    H     0.72353   0.39240   0.84596   0.00000  Uiso   1.00
H37    H     0.54445   0.50072   0.95951   0.00000  Uiso   1.00
O38    O     0.51774   0.25462   0.88931   0.00000  Uiso   1.00
O39    O     0.75964   0.38101   0.13057   0.00000  Uiso   1.00
O40    O     0.52469   0.52313   0.27955   0.00000  Uiso   1.00
N41    N     0.54065   0.28700   0.09903   0.00000  Uiso   1.00
N42    N     0.71304   0.37706   0.27094   0.00000  Uiso   1.00
N43    N     0.54562   0.47834   0.37712   0.00000  Uiso   1.00
N44    N     0.54247   0.29791   0.80060   0.00000  Uiso   1.00
N45    N     0.71486   0.38797   0.97252   0.00000  Uiso   1.00
N46    N     0.54744   0.48925   0.07869   0.00000  Uiso   1.00
C47    C     0.09960   0.87983   0.77528   0.00000  Uiso   1.00
C48    C     0.08379   0.85692   0.65378   0.00000  Uiso   1.00
C49    C     0.06949   0.83157   0.71785   0.00000  Uiso   1.00
C50    C     0.05638   0.81341   0.58440   0.00000  Uiso   1.00
C51    C     0.03168   0.77676   0.42473   0.00000  Uiso   1.00
C52    C     0.13131   0.88174   0.70115   0.00000  Uiso   1.00
C53    C     0.15696   0.87726   0.80507   0.00000  Uiso   1.00
C54    C     0.18384   0.87999   0.71149   0.00000  Uiso   1.00
C55    C     0.23290   0.88189   0.62540   0.00000  Uiso   1.00
C56    C     0.08516   0.90964   0.73041   0.00000  Uiso   1.00
C57    C     0.07202   0.92864   0.85893   0.00000  Uiso   1.00
C58    C     0.06006   0.95488   0.78999   0.00000  Uiso   1.00
C59    C     0.03747   0.00011   0.74933   0.00000  Uiso   1.00
C60    C     0.10174   0.89267   0.42434   0.00000  Uiso   1.00
C61    C     0.08496   0.86389   0.46316   0.00000  Uiso   1.00
C62    C     0.07186   0.84577   0.32957   0.00000  Uiso   1.00
C63    C     0.05755   0.82040   0.39344   0.00000  Uiso   1.00
C64    C     0.13247   0.88871   0.51054   0.00000  Uiso   1.00
C65    C     0.15932   0.89145   0.41679   0.00000  Uiso   1.00
C66    C     0.18501   0.88698   0.52053   0.00000  Uiso   1.00
C67    C     0.08632   0.91662   0.53979   0.00000  Uiso   1.00
C68    C     0.07438   0.94283   0.47065   0.00000  Uiso   1.00
C69    C     0.06122   0.96186   0.59903   0.00000  Uiso   1.00
H70    H     0.09869   0.87441   0.92369   0.00000  Uiso   1.00
H71    H     0.06860   0.82618   0.86538   0.00000  Uiso   1.00
H72    H     0.15605   0.87186   0.95258   0.00000  Uiso   1.00
H73    H     0.07112   0.92323   0.00643   0.00000  Uiso   1.00
H74    H     0.03576   0.77578   0.71667   0.00000  Uiso   1.00
H75    H     0.22015   0.87211   0.90055   0.00000  Uiso   1.00
H76    H     0.04107   0.98044   0.01411   0.00000  Uiso   1.00
H77    H     0.10264   0.89810   0.27593   0.00000  Uiso   1.00
H78    H     0.07277   0.85117   0.18207   0.00000  Uiso   1.00
H79    H     0.16021   0.89685   0.26928   0.00000  Uiso   1.00
H80    H     0.07529   0.94822   0.32313   0.00000  Uiso   1.00
H81    H     0.03914   0.79606   0.16207   0.00000  Uiso   1.00
H82    H     0.22353   0.89240   0.34596   0.00000  Uiso   1.00
H83    H     0.04445   0.00072   0.45951   0.00000  Uiso   1.00
O84    O     0.01774   0.75462   0.38931   0.00000  Uiso   1.00
O85    O     0.25964   0.88101   0.63057   0.00000  Uiso   1.00
O86    O     0.02469   0.02313   0.77955   0.00000  Uiso   1.00
N87    N     0.04065   0.78700   0.59903   0.00000  Uiso   1.00
N88    N     0.21304   0.87706   0.77094   0.00000  Uiso   1.00
N89    N     0.04562   0.97834   0.87712   0.00000  Uiso   1.00
N90    N     0.04247   0.79791   0.30060   0.00000  Uiso   1.00
N91    N     0.21486   0.88797   0.47252   0.00000  Uiso   1.00
N92    N     0.04744   0.98925   0.57869   0.00000  Uiso   1.00
C93    C     0.40040   0.62017   0.27528   0.00000  Uiso   1.00
C94    C     0.41621   0.64308   0.15378   0.00000  Uiso   1.00
C95    C     0.43051   0.66843   0.21785   0.00000  Uiso   1.00
C96    C     0.44362   0.68659   0.08440   0.00000  Uiso   1.00
C97    C     0.46832   0.72324   0.92473   0.00000  Uiso   1.00
C98    C     0.36869   0.61826   0.20115   0.00000  Uiso   1.00
C99    C     0.34304   0.62274   0.30507   0.00000  Uiso   1.00
C100   C     0.31616   0.62001   0.21149   0.00000  Uiso   1.00
C101   C     0.26710   0.61811   0.12540   0.00000  Uiso   1.00
C102   C     0.41484   0.59036   0.23041   0.00000  Uiso   1.00
C103   C     0.42798   0.57136   0.35893   0.00000  Uiso   1.00
C104   C     0.43994   0.54512   0.28999   0.00000  Uiso   1.00
C105   C     0.46253   0.49989   0.24933   0.00000  Uiso   1.00
C106   C     0.39826   0.60733   0.92434   0.00000  Uiso   1.00
C107   C     0.41504   0.63611   0.96316   0.00000  Uiso   1.00
C108   C     0.42814   0.65423   0.82957   0.00000  Uiso   1.00
C109   C     0.44245   0.67960   0.89344   0.00000  Uiso   1.00
C110   C     0.36753   0.61129   0.01054   0.00000  Uiso   1.00
C111   C     0.34068   0.60855   0.91679   0.00000  Uiso   1.00
C112   C     0.31499   0.61302   0.02053   0.00000  Uiso   1.00
C113   C     0.41368   0.58338   0.03979   0.00000  Uiso   1.00
C114   C     0.42562   0.55717   0.97065   0.00000  Uiso   1.00
C115   C     0.43878   0.53814   0.09903   0.00000  Uiso   1.00
H116   H     0.40131   0.62559   0.42369   0.00000  Uiso   1.00
H117   H     0.43140   0.67382   0.36538   0.00000  Uiso   1.00
H118   H     0.34395   0.62814   0.45258   0.00000  Uiso   1.00
H119   H     0.42888   0.57677   0.50643   0.00000  Uiso   1.00
H120   H     0.46424   0.72422   0.21667   0.00000  Uiso   1.00
H121   H     0.27985   0.62789   0.40055   0.00000  Uiso   1.00
H122   H     0.45893   0.51956   0.51411   0.00000  Uiso   1.00
H123   H     0.39736   0.60190   0.77593   0.00000  Uiso   1.00
H124   H     0.42723   0.64883   0.68207   0.00000  Uiso   1.00
H125   H     0.33979   0.60315   0.76928   0.00000  Uiso   1.00
H126   H     0.42471   0.55178   0.82313   0.00000  Uiso   1.00
H127   H     0.46086   0.70394   0.66207   0.00000  Uiso   1.00
H128   H     0.27647   0.60760   0.84596   0.00000  Uiso   1.00
H129   H     0.45555   0.49928   0.95951   0.00000  Uiso   1.00
O130   O     0.48226   0.74538   0.88931   0.00000  Uiso   1.00
O131   O     0.24036   0.61899   0.13057   0.00000  Uiso   1.00
O132   O     0.47531   0.47687   0.27955   0.00000  Uiso   1.00
N133   N     0.45935   0.71300   0.09903   0.00000  Uiso   1.00
N134   N     0.28696   0.62294   0.27094   0.00000  Uiso   1.00
N135   N     0.45438   0.52166   0.37712   0.00000  Uiso   1.00
N136   N     0.45753   0.70209   0.80060   0.00000  Uiso   1.00
N137   N     0.28514   0.61203   0.97252   0.00000  Uiso   1.00
N138   N     0.45256   0.51075   0.07869   0.00000  Uiso   1.00
C139   C     0.90040   0.12017   0.77528   0.00000  Uiso   1.00
C140   C     0.91621   0.14308   0.65378   0.00000  Uiso   1.00
C141   C     0.93051   0.16843   0.71785   0.00000  Uiso   1.00
C142   C     0.94362   0.18659   0.58440   0.00000  Uiso   1.00
C143   C     0.96832   0.22324   0.42473   0.00000  Uiso   1.00
C144   C     0.86869   0.11826   0.70115   0.00000  Uiso   1.00
C145   C     0.84304   0.12274   0.80507   0.00000  Uiso   1.00
C146   C     0.81616   0.12001   0.71149   0.00000  Uiso   1.00
C147   C     0.76710   0.11811   0.62540   0.00000  Uiso   1.00
C148   C     0.91484   0.09036   0.73041   0.00000  Uiso   1.00
C149   C     0.92798   0.07136   0.85893   0.00000  Uiso   1.00
C150   C     0.93994   0.04512   0.78999   0.00000  Uiso   1.00
C151   C     0.96253   0.99989   0.74933   0.00000  Uiso   1.00
C152   C     0.89826   0.10733   0.42434   0.00000  Uiso   1.00
C153   C     0.91504   0.13611   0.46316   0.00000  Uiso   1.00
C154   C     0.92814   0.15423   0.32957   0.00000  Uiso   1.00
C155   C     0.94245   0.17960   0.39344   0.00000  Uiso   1.00
C156   C     0.86753   0.11129   0.51054   0.00000  Uiso   1.00
C157   C     0.84068   0.10855   0.41679   0.00000  Uiso   1.00
C158   C     0.81499   0.11302   0.52053   0.00000  Uiso   1.00
C159   C     0.91368   0.08338   0.53979   0.00000  Uiso   1.00
C160   C     0.92562   0.05717   0.47065   0.00000  Uiso   1.00
C161   C     0.93878   0.03814   0.59903   0.00000  Uiso   1.00
H162   H     0.90131   0.12559   0.92369   0.00000  Uiso   1.00
H163   H     0.93140   0.17382   0.86538   0.00000  Uiso   1.00
H164   H     0.84395   0.12814   0.95258   0.00000  Uiso   1.00
H165   H     0.92888   0.07677   0.00643   0.00000  Uiso   1.00
H166   H     0.96424   0.22422   0.71667   0.00000  Uiso   1.00
H167   H     0.77985   0.12789   0.90055   0.00000  Uiso   1.00
H168   H     0.95893   0.01956   0.01411   0.00000  Uiso   1.00
H169   H     0.89736   0.10190   0.27593   0.00000  Uiso   1.00
H170   H     0.92723   0.14883   0.18207   0.00000  Uiso   1.00
H171   H     0.83979   0.10315   0.26928   0.00000  Uiso   1.00
H172   H     0.92471   0.05178   0.32313   0.00000  Uiso   1.00
H173   H     0.96086   0.20394   0.16207   0.00000  Uiso   1.00
H174   H     0.77647   0.10760   0.34596   0.00000  Uiso   1.00
H175   H     0.95555   0.99928   0.45951   0.00000  Uiso   1.00
O176   O     0.98226   0.24538   0.38931   0.00000  Uiso   1.00
O177   O     0.74036   0.11899   0.63057   0.00000  Uiso   1.00
O178   O     0.97531   0.97687   0.77955   0.00000  Uiso   1.00
N179   N     0.95935   0.21300   0.59903   0.00000  Uiso   1.00
N180   N     0.78696   0.12294   0.77094   0.00000  Uiso   1.00
N181   N     0.95438   0.02166   0.87712   0.00000  Uiso   1.00
N182   N     0.95753   0.20209   0.30060   0.00000  Uiso   1.00
N183   N     0.78514   0.11203   0.47252   0.00000  Uiso   1.00
N184   N     0.95256   0.01075   0.57869   0.00000  Uiso   1.00
C185   C     0.37983   0.40040   0.72472   0.00000  Uiso   1.00
C186   C     0.35692   0.41621   0.84622   0.00000  Uiso   1.00
C187   C     0.33157   0.43051   0.78215   0.00000  Uiso   1.00
C188   C     0.31341   0.44362   0.91560   0.00000  Uiso   1.00
C189   C     0.27676   0.46832   0.07527   0.00000  Uiso   1.00
C190   C     0.38174   0.36869   0.79885   0.00000  Uiso   1.00
C191   C     0.37726   0.34304   0.69493   0.00000  Uiso   1.00
C192   C     0.37999   0.31616   0.78851   0.00000  Uiso   1.00
C193   C     0.38189   0.26710   0.87460   0.00000  Uiso   1.00
C194   C     0.40964   0.41484   0.76959   0.00000  Uiso   1.00
C195   C     0.42864   0.42798   0.64107   0.00000  Uiso   1.00
C196   C     0.45488   0.43994   0.71001   0.00000  Uiso   1.00
C197   C     0.50011   0.46253   0.75067   0.00000  Uiso   1.00
C198   C     0.39267   0.39826   0.07566   0.00000  Uiso   1.00
C199   C     0.36389   0.41504   0.03684   0.00000  Uiso   1.00
C200   C     0.34577   0.42814   0.17043   0.00000  Uiso   1.00
C201   C     0.32040   0.44245   0.10656   0.00000  Uiso   1.00
C202   C     0.38871   0.36753   0.98946   0.00000  Uiso   1.00
C203   C     0.39145   0.34068   0.08321   0.00000  Uiso   1.00
C204   C     0.38698   0.31499   0.97947   0.00000  Uiso   1.00
C205   C     0.41662   0.41368   0.96021   0.00000  Uiso   1.00
C206   C     0.44283   0.42562   0.02935   0.00000  Uiso   1.00
C207   C     0.46186   0.43878   0.90097   0.00000  Uiso   1.00
H208   H     0.37441   0.40131   0.57631   0.00000  Uiso   1.00
H209   H     0.32618   0.43140   0.63462   0.00000  Uiso   1.00
H210   H     0.37186   0.34395   0.54742   0.00000  Uiso   1.00
H211   H     0.42323   0.42888   0.49357   0.00000  Uiso   1.00
H212   H     0.27578   0.46424   0.78333   0.00000  Uiso   1.00
H213   H     0.37211   0.27985   0.59945   0.00000  Uiso   1.00
H214   H     0.48044   0.45893   0.48589   0.00000  Uiso   1.00
H215   H     0.39810   0.39736   0.22407   0.00000  Uiso   1.00
H216   H     0.35117   0.42723   0.31793   0.00000  Uiso   1.00
H217   H     0.39685   0.33979   0.23072   0.00000  Uiso   1.00
H218   H     0.44822   0.42471   0.17687   0.00000  Uiso   1.00
H219   H     0.29606   0.46086   0.33793   0.00000  Uiso   1.00
H220   H     0.39240   0.27647   0.15404   0.00000  Uiso   1.00
H221   H     0.50072   0.45555   0.04049   0.00000  Uiso   1.00
O222   O     0.25462   0.48226   0.11069   0.00000  Uiso   1.00
O223   O     0.38101   0.24036   0.86943   0.00000  Uiso   1.00
O224   O     0.52313   0.47531   0.72045   0.00000  Uiso   1.00
N225   N     0.28700   0.45935   0.90097   0.00000  Uiso   1.00
N226   N     0.37706   0.28696   0.72906   0.00000  Uiso   1.00
N227   N     0.47834   0.45438   0.62288   0.00000  Uiso   1.00
N228   N     0.29791   0.45753   0.19940   0.00000  Uiso   1.00
N229   N     0.38797   0.28514   0.02748   0.00000  Uiso   1.00
N230   N     0.48925   0.45256   0.92131   0.00000  Uiso   1.00
C231   C     0.87983   0.90040   0.22472   0.00000  Uiso   1.00
C232   C     0.85692   0.91621   0.34622   0.00000  Uiso   1.00
C233   C     0.83157   0.93051   0.28215   0.00000  Uiso   1.00
C234   C     0.81341   0.94362   0.41560   0.00000  Uiso   1.00
C235   C     0.77676   0.96832   0.57527   0.00000  Uiso   1.00
C236   C     0.88174   0.86869   0.29885   0.00000  Uiso   1.00
C237   C     0.87726   0.84304   0.19493   0.00000  Uiso   1.00
C238   C     0.87999   0.81616   0.28851   0.00000  Uiso   1.00
C239   C     0.88189   0.76710   0.37460   0.00000  Uiso   1.00
C240   C     0.90964   0.91484   0.26959   0.00000  Uiso   1.00
C241   C     0.92864   0.92798   0.14107   0.00000  Uiso   1.00
C242   C     0.95488   0.93994   0.21001   0.00000  Uiso   1.00
C243   C     0.00011   0.96253   0.25067   0.00000  Uiso   1.00
C244   C     0.89267   0.89826   0.57566   0.00000  Uiso   1.00
C245   C     0.86389   0.91504   0.53684   0.00000  Uiso   1.00
C246   C     0.84577   0.92814   0.67043   0.00000  Uiso   1.00
C247   C     0.82040   0.94245   0.60656   0.00000  Uiso   1.00
C248   C     0.88871   0.86753   0.48946   0.00000  Uiso   1.00
C249   C     0.89145   0.84068   0.58321   0.00000  Uiso   1.00
C250   C     0.88698   0.81499   0.47947   0.00000  Uiso   1.00
C251   C     0.91662   0.91368   0.46021   0.00000  Uiso   1.00
C252   C     0.94283   0.92562   0.52935   0.00000  Uiso   1.00
C253   C     0.96186   0.93878   0.40097   0.00000  Uiso   1.00
H254   H     0.87441   0.90131   0.07631   0.00000  Uiso   1.00
H255   H     0.82618   0.93140   0.13462   0.00000  Uiso   1.00
H256   H     0.87186   0.84395   0.04742   0.00000  Uiso   1.00
H257   H     0.92323   0.92888   0.99357   0.00000  Uiso   1.00
H258   H     0.77578   0.96424   0.28333   0.00000  Uiso   1.00
H259   H     0.87211   0.77985   0.09945   0.00000  Uiso   1.00
H260   H     0.98044   0.95893   0.98589   0.00000  Uiso   1.00
H261   H     0.89810   0.89736   0.72407   0.00000  Uiso   1.00
H262   H     0.85117   0.92723   0.81793   0.00000  Uiso   1.00
H263   H     0.89685   0.83979   0.73072   0.00000  Uiso   1.00
H264   H     0.94822   0.92471   0.67687   0.00000  Uiso   1.00
H265   H     0.79606   0.96086   0.83793   0.00000  Uiso   1.00
H266   H     0.89240   0.77647   0.65404   0.00000  Uiso   1.00
H267   H     0.00072   0.95555   0.54049   0.00000  Uiso   1.00
O268   O     0.75462   0.98226   0.61069   0.00000  Uiso   1.00
O269   O     0.88101   0.74036   0.36943   0.00000  Uiso   1.00
O270   O     0.02313   0.97531   0.22045   0.00000  Uiso   1.00
N271   N     0.78700   0.95935   0.40097   0.00000  Uiso   1.00
N272   N     0.87706   0.78696   0.22906   0.00000  Uiso   1.00
N273   N     0.97834   0.95438   0.12288   0.00000  Uiso   1.00
N274   N     0.79791   0.95753   0.69940   0.00000  Uiso   1.00
N275   N     0.88797   0.78514   0.52748   0.00000  Uiso   1.00
N276   N     0.98925   0.95256   0.42131   0.00000  Uiso   1.00
C277   C     0.62017   0.59960   0.72472   0.00000  Uiso   1.00
C278   C     0.64308   0.58379   0.84622   0.00000  Uiso   1.00
C279   C     0.66843   0.56949   0.78215   0.00000  Uiso   1.00
C280   C     0.68659   0.55638   0.91560   0.00000  Uiso   1.00
C281   C     0.72324   0.53168   0.07527   0.00000  Uiso   1.00
C282   C     0.61826   0.63131   0.79885   0.00000  Uiso   1.00
C283   C     0.62274   0.65696   0.69493   0.00000  Uiso   1.00
C284   C     0.62001   0.68384   0.78851   0.00000  Uiso   1.00
C285   C     0.61811   0.73290   0.87460   0.00000  Uiso   1.00
C286   C     0.59036   0.58516   0.76959   0.00000  Uiso   1.00
C287   C     0.57136   0.57202   0.64107   0.00000  Uiso   1.00
C288   C     0.54512   0.56006   0.71001   0.00000  Uiso   1.00
C289   C     0.49989   0.53747   0.75067   0.00000  Uiso   1.00
C290   C     0.60733   0.60174   0.07566   0.00000  Uiso   1.00
C291   C     0.63611   0.58496   0.03684   0.00000  Uiso   1.00
C292   C     0.65423   0.57186   0.17043   0.00000  Uiso   1.00
C293   C     0.67960   0.55755   0.10656   0.00000  Uiso   1.00
C294   C     0.61129   0.63247   0.98946   0.00000  Uiso   1.00
C295   C     0.60855   0.65932   0.08321   0.00000  Uiso   1.00
C296   C     0.61302   0.68501   0.97947   0.00000  Uiso   1.00
C297   C     0.58338   0.58632   0.96021   0.00000  Uiso   1.00
C298   C     0.55717   0.57438   0.02935   0.00000  Uiso   1.00
C299   C     0.53814   0.56122   0.90097   0.00000  Uiso   1.00
H300   H     0.62559   0.59869   0.57631   0.00000  Uiso   1.00
H301   H     0.67382   0.56860   0.63462   0.00000  Uiso   1.00
H302   H     0.62814   0.65605   0.54742   0.00000  Uiso   1.00
H303   H     0.57677   0.57112   0.49357   0.00000  Uiso   1.00
H304   H     0.72422   0.53576   0.78333   0.00000  Uiso   1.00
H305   H     0.62789   0.72015   0.59945   0.00000  Uiso   1.00
H306   H     0.51956   0.54107   0.48589   0.00000  Uiso   1.00
H307   H     0.60190   0.60264   0.22407   0.00000  Uiso   1.00
H308   H     0.64883   0.57277   0.31793   0.00000  Uiso   1.00
H309   H     0.60315   0.66021   0.23072   0.00000  Uiso   1.00
H310   H     0.55178   0.57529   0.17687   0.00000  Uiso   1.00
H311   H     0.70394   0.53914   0.33793   0.00000  Uiso   1.00
H312   H     0.60760   0.72353   0.15404   0.00000  Uiso   1.00
H313   H     0.49928   0.54445   0.04049   0.00000  Uiso   1.00
O314   O     0.74538   0.51774   0.11069   0.00000  Uiso   1.00
O315   O     0.61899   0.75964   0.86943   0.00000  Uiso   1.00
O316   O     0.47687   0.52469   0.72045   0.00000  Uiso   1.00
N317   N     0.71300   0.54065   0.90097   0.00000  Uiso   1.00
N318   N     0.62294   0.71304   0.72906   0.00000  Uiso   1.00
N319   N     0.52166   0.54562   0.62288   0.00000  Uiso   1.00
N320   N     0.70209   0.54247   0.19940   0.00000  Uiso   1.00
N321   N     0.61203   0.71486   0.02748   0.00000  Uiso   1.00
N322   N     0.51075   0.54744   0.92131   0.00000  Uiso   1.00
C323   C     0.12017   0.09960   0.22472   0.00000  Uiso   1.00
C324   C     0.14308   0.08379   0.34622   0.00000  Uiso   1.00
C325   C     0.16843   0.06949   0.28215   0.00000  Uiso   1.00
C326   C     0.18659   0.05638   0.41560   0.00000  Uiso   1.00
C327   C     0.22324   0.03168   0.57527   0.00000  Uiso   1.00
C328   C     0.11826   0.13131   0.29885   0.00000  Uiso   1.00
C329   C     0.12274   0.15696   0.19493   0.00000  Uiso   1.00
C330   C     0.12001   0.18384   0.28851   0.00000  Uiso   1.00
C331   C     0.11811   0.23290   0.37460   0.00000  Uiso   1.00
C332   C     0.09036   0.08516   0.26959   0.00000  Uiso   1.00
C333   C     0.07136   0.07202   0.14107   0.00000  Uiso   1.00
C334   C     0.04512   0.06006   0.21001   0.00000  Uiso   1.00
C335   C     0.99989   0.03747   0.25067   0.00000  Uiso   1.00
C336   C     0.10733   0.10174   0.57566   0.00000  Uiso   1.00
C337   C     0.13611   0.08496   0.53684   0.00000  Uiso   1.00
C338   C     0.15423   0.07186   0.67043   0.00000  Uiso   1.00
C339   C     0.17960   0.05755   0.60656   0.00000  Uiso   1.00
C340   C     0.11129   0.13247   0.48946   0.00000  Uiso   1.00
C341   C     0.10855   0.15932   0.58321   0.00000  Uiso   1.00
C342   C     0.11302   0.18501   0.47947   0.00000  Uiso   1.00
C343   C     0.08338   0.08632   0.46021   0.00000  Uiso   1.00
C344   C     0.05717   0.07438   0.52935   0.00000  Uiso   1.00
C345   C     0.03814   0.06122   0.40097   0.00000  Uiso   1.00
H346   H     0.12559   0.09869   0.07631   0.00000  Uiso   1.00
H347   H     0.17382   0.06860   0.13462   0.00000  Uiso   1.00
H348   H     0.12814   0.15605   0.04742   0.00000  Uiso   1.00
H349   H     0.07677   0.07112   0.99357   0.00000  Uiso   1.00
H350   H     0.22422   0.03576   0.28333   0.00000  Uiso   1.00
H351   H     0.12789   0.22015   0.09945   0.00000  Uiso   1.00
H352   H     0.01956   0.04107   0.98589   0.00000  Uiso   1.00
H353   H     0.10190   0.10264   0.72407   0.00000  Uiso   1.00
H354   H     0.14883   0.07277   0.81793   0.00000  Uiso   1.00
H355   H     0.10315   0.16021   0.73072   0.00000  Uiso   1.00
H356   H     0.05178   0.07529   0.67687   0.00000  Uiso   1.00
H357   H     0.20394   0.03914   0.83793   0.00000  Uiso   1.00
H358   H     0.10760   0.22353   0.65404   0.00000  Uiso   1.00
H359   H     0.99928   0.04445   0.54049   0.00000  Uiso   1.00
O360   O     0.24538   0.01774   0.61069   0.00000  Uiso   1.00
O361   O     0.11899   0.25964   0.36943   0.00000  Uiso   1.00
O362   O     0.97687   0.02469   0.22045   0.00000  Uiso   1.00
N363   N     0.21300   0.04065   0.40097   0.00000  Uiso   1.00
N364   N     0.12294   0.21304   0.22906   0.00000  Uiso   1.00
N365   N     0.02166   0.04562   0.12288   0.00000  Uiso   1.00
N366   N     0.20209   0.04247   0.69940   0.00000  Uiso   1.00
N367   N     0.11203   0.21486   0.52748   0.00000  Uiso   1.00
N368   N     0.01075   0.04744   0.42131   0.00000  Uiso   1.00
C369   C     0.90040   0.37983   0.47472   0.00000  Uiso   1.00
C370   C     0.91621   0.35692   0.59622   0.00000  Uiso   1.00
C371   C     0.93051   0.33157   0.53215   0.00000  Uiso   1.00
C372   C     0.94362   0.31341   0.66560   0.00000  Uiso   1.00
C373   C     0.96832   0.27676   0.82527   0.00000  Uiso   1.00
C374   C     0.86869   0.38174   0.54885   0.00000  Uiso   1.00
C375   C     0.84304   0.37726   0.44493   0.00000  Uiso   1.00
C376   C     0.81616   0.37999   0.53851   0.00000  Uiso   1.00
C377   C     0.76710   0.38189   0.62460   0.00000  Uiso   1.00
C378   C     0.91484   0.40964   0.51959   0.00000  Uiso   1.00
C379   C     0.92798   0.42864   0.39107   0.00000  Uiso   1.00
C380   C     0.93994   0.45488   0.46001   0.00000  Uiso   1.00
C381   C     0.96253   0.50011   0.50067   0.00000  Uiso   1.00
C382   C     0.89826   0.39267   0.82566   0.00000  Uiso   1.00
C383   C     0.91504   0.36389   0.78684   0.00000  Uiso   1.00
C384   C     0.92814   0.34577   0.92043   0.00000  Uiso   1.00
C385   C     0.94245   0.32040   0.85656   0.00000  Uiso   1.00
C386   C     0.86753   0.38871   0.73946   0.00000  Uiso   1.00
C387   C     0.84068   0.39145   0.83321   0.00000  Uiso   1.00
C388   C     0.81499   0.38698   0.72947   0.00000  Uiso   1.00
C389   C     0.91368   0.41662   0.71021   0.00000  Uiso   1.00
C390   C     0.92562   0.44283   0.77935   0.00000  Uiso   1.00
C391   C     0.93878   0.46186   0.65097   0.00000  Uiso   1.00
H392   H     0.90131   0.37441   0.32631   0.00000  Uiso   1.00
H393   H     0.93140   0.32618   0.38462   0.00000  Uiso   1.00
H394   H     0.84395   0.37186   0.29742   0.00000  Uiso   1.00
H395   H     0.92888   0.42323   0.24357   0.00000  Uiso   1.00
H396   H     0.96424   0.27578   0.53333   0.00000  Uiso   1.00
H397   H     0.77985   0.37211   0.34945   0.00000  Uiso   1.00
H398   H     0.95893   0.48044   0.23589   0.00000  Uiso   1.00
H399   H     0.89736   0.39810   0.97407   0.00000  Uiso   1.00
H400   H     0.92723   0.35117   0.06793   0.00000  Uiso   1.00
H401   H     0.83979   0.39685   0.98072   0.00000  Uiso   1.00
H402   H     0.92471   0.44822   0.92687   0.00000  Uiso   1.00
H403   H     0.96086   0.29606   0.08793   0.00000  Uiso   1.00
H404   H     0.77647   0.39240   0.90404   0.00000  Uiso   1.00
H405   H     0.95555   0.50072   0.79049   0.00000  Uiso   1.00
O406   O     0.98226   0.25462   0.86069   0.00000  Uiso   1.00
O407   O     0.74036   0.38101   0.61943   0.00000  Uiso   1.00
O408   O     0.97531   0.52313   0.47045   0.00000  Uiso   1.00
N409   N     0.95935   0.28700   0.65097   0.00000  Uiso   1.00
N410   N     0.78696   0.37706   0.47906   0.00000  Uiso   1.00
N411   N     0.95438   0.47834   0.37288   0.00000  Uiso   1.00
N412   N     0.95753   0.29791   0.94940   0.00000  Uiso   1.00
N413   N     0.78514   0.38797   0.77748   0.00000  Uiso   1.00
N414   N     0.95256   0.48925   0.67131   0.00000  Uiso   1.00
C415   C     0.40040   0.87983   0.97472   0.00000  Uiso   1.00
C416   C     0.41621   0.85692   0.09622   0.00000  Uiso   1.00
C417   C     0.43051   0.83157   0.03215   0.00000  Uiso   1.00
C418   C     0.44362   0.81341   0.16560   0.00000  Uiso   1.00
C419   C     0.46832   0.77676   0.32527   0.00000  Uiso   1.00
C420   C     0.36869   0.88174   0.04885   0.00000  Uiso   1.00
C421   C     0.34304   0.87726   0.94493   0.00000  Uiso   1.00
C422   C     0.31616   0.87999   0.03851   0.00000  Uiso   1.00
C423   C     0.26710   0.88189   0.12460   0.00000  Uiso   1.00
C424   C     0.41484   0.90964   0.01959   0.00000  Uiso   1.00
C425   C     0.42798   0.92864   0.89107   0.00000  Uiso   1.00
C426   C     0.43994   0.95488   0.96001   0.00000  Uiso   1.00
C427   C     0.46253   0.00011   0.00067   0.00000  Uiso   1.00
C428   C     0.39826   0.89267   0.32566   0.00000  Uiso   1.00
C429   C     0.41504   0.86389   0.28684   0.00000  Uiso   1.00
C430   C     0.42814   0.84577   0.42043   0.00000  Uiso   1.00
C431   C     0.44245   0.82040   0.35656   0.00000  Uiso   1.00
C432   C     0.36753   0.88871   0.23946   0.00000  Uiso   1.00
C433   C     0.34068   0.89145   0.33321   0.00000  Uiso   1.00
C434   C     0.31499   0.88698   0.22947   0.00000  Uiso   1.00
C435   C     0.41368   0.91662   0.21021   0.00000  Uiso   1.00
C436   C     0.42562   0.94283   0.27935   0.00000  Uiso   1.00
C437   C     0.43878   0.96186   0.15097   0.00000  Uiso   1.00
H438   H     0.40131   0.87441   0.82631   0.00000  Uiso   1.00
H439   H     0.43140   0.82618   0.88462   0.00000  Uiso   1.00
H440   H     0.34395   0.87186   0.79742   0.00000  Uiso   1.00
H441   H     0.42888   0.92323   0.74357   0.00000  Uiso   1.00
H442   H     0.46424   0.77578   0.03333   0.00000  Uiso   1.00
H443   H     0.27985   0.87211   0.84945   0.00000  Uiso   1.00
H444   H     0.45893   0.98044   0.73589   0.00000  Uiso   1.00
H445   H     0.39736   0.89810   0.47407   0.00000  Uiso   1.00
H446   H     0.42723   0.85117   0.56793   0.00000  Uiso   1.00
H447   H     0.33979   0.89685   0.48072   0.00000  Uiso   1.00
H448   H     0.42471   0.94822   0.42687   0.00000  Uiso   1.00
H449   H     0.46086   0.79606   0.58793   0.00000  Uiso   1.00
H450   H     0.27647   0.89240   0.40404   0.00000  Uiso   1.00
H451   H     0.45555   0.00072   0.29049   0.00000  Uiso   1.00
O452   O     0.48226   0.75462   0.36069   0.00000  Uiso   1.00
O453   O     0.24036   0.88101   0.11943   0.00000  Uiso   1.00
O454   O     0.47531   0.02313   0.97045   0.00000  Uiso   1.00
N455   N     0.45935   0.78700   0.15097   0.00000  Uiso   1.00
N456   N     0.28696   0.87706   0.97906   0.00000  Uiso   1.00
N457   N     0.45438   0.97834   0.87288   0.00000  Uiso   1.00
N458   N     0.45753   0.79791   0.44940   0.00000  Uiso   1.00
N459   N     0.28514   0.88797   0.27748   0.00000  Uiso   1.00
N460   N     0.45256   0.98925   0.17131   0.00000  Uiso   1.00
C461   C     0.09960   0.62017   0.47472   0.00000  Uiso   1.00
C462   C     0.08379   0.64308   0.59622   0.00000  Uiso   1.00
C463   C     0.06949   0.66843   0.53215   0.00000  Uiso   1.00
C464   C     0.05638   0.68659   0.66560   0.00000  Uiso   1.00
C465   C     0.03168   0.72324   0.82527   0.00000  Uiso   1.00
C466   C     0.13131   0.61826   0.54885   0.00000  Uiso   1.00
C467   C     0.15696   0.62274   0.44493   0.00000  Uiso   1.00
C468   C     0.18384   0.62001   0.53851   0.00000  Uiso   1.00
C469   C     0.23290   0.61811   0.62460   0.00000  Uiso   1.00
C470   C     0.08516   0.59036   0.51959   0.00000  Uiso   1.00
C471   C     0.07202   0.57136   0.39107   0.00000  Uiso   1.00
C472   C     0.06006   0.54512   0.46001   0.00000  Uiso   1.00
C473   C     0.03747   0.49989   0.50067   0.00000  Uiso   1.00
C474   C     0.10174   0.60733   0.82566   0.00000  Uiso   1.00
C475   C     0.08496   0.63611   0.78684   0.00000  Uiso   1.00
C476   C     0.07186   0.65423   0.92043   0.00000  Uiso   1.00
C477   C     0.05755   0.67960   0.85656   0.00000  Uiso   1.00
C478   C     0.13247   0.61129   0.73946   0.00000  Uiso   1.00
C479   C     0.15932   0.60855   0.83321   0.00000  Uiso   1.00
C480   C     0.18501   0.61302   0.72947   0.00000  Uiso   1.00
C481   C     0.08632   0.58338   0.71021   0.00000  Uiso   1.00
C482   C     0.07438   0.55717   0.77935   0.00000  Uiso   1.00
C483   C     0.06122   0.53814   0.65097   0.00000  Uiso   1.00
H484   H     0.09869   0.62559   0.32631   0.00000  Uiso   1.00
H485   H     0.06860   0.67382   0.38462   0.00000  Uiso   1.00
H486   H     0.15605   0.62814   0.29742   0.00000  Uiso   1.00
H487   H     0.07112   0.57677   0.24357   0.00000  Uiso   1.00
H488   H     0.03576   0.72422   0.53333   0.00000  Uiso   1.00
H489   H     0.22015   0.62789   0.34945   0.00000  Uiso   1.00
H490   H     0.04107   0.51956   0.23589   0.00000  Uiso   1.00
H491   H     0.10264   0.60190   0.97407   0.00000  Uiso   1.00
H492   H     0.07277   0.64883   0.06793   0.00000  Uiso   1.00
H493   H     0.16021   0.60315   0.98072   0.00000  Uiso   1.00
H494   H     0.07529   0.55178   0.92687   0.00000  Uiso   1.00
H495   H     0.03914   0.70394   0.08793   0.00000  Uiso   1.00
H496   H     0.22353   0.60760   0.90404   0.00000  Uiso   1.00
H497   H     0.04445   0.49928   0.79049   0.00000  Uiso   1.00
O498   O     0.01774   0.74538   0.86069   0.00000  Uiso   1.00
O499   O     0.25964   0.61899   0.61943   0.00000  Uiso   1.00
O500   O     0.02469   0.47687   0.47045   0.00000  Uiso   1.00
N501   N     0.04065   0.71300   0.65097   0.00000  Uiso   1.00
N502   N     0.21304   0.62294   0.47906   0.00000  Uiso   1.00
N503   N     0.04562   0.52166   0.37288   0.00000  Uiso   1.00
N504   N     0.04247   0.70209   0.94940   0.00000  Uiso   1.00
N505   N     0.21486   0.61203   0.77748   0.00000  Uiso   1.00
N506   N     0.04744   0.51075   0.67131   0.00000  Uiso   1.00
C507   C     0.59960   0.12017   0.97472   0.00000  Uiso   1.00
C508   C     0.58379   0.14308   0.09622   0.00000  Uiso   1.00
C509   C     0.56949   0.16843   0.03215   0.00000  Uiso   1.00
C510   C     0.55638   0.18659   0.16560   0.00000  Uiso   1.00
C511   C     0.53168   0.22324   0.32527   0.00000  Uiso   1.00
C512   C     0.63131   0.11826   0.04885   0.00000  Uiso   1.00
C513   C     0.65696   0.12274   0.94493   0.00000  Uiso   1.00
C514   C     0.68384   0.12001   0.03851   0.00000  Uiso   1.00
C515   C     0.73290   0.11811   0.12460   0.00000  Uiso   1.00
C516   C     0.58516   0.09036   0.01959   0.00000  Uiso   1.00
C517   C     0.57202   0.07136   0.89107   0.00000  Uiso   1.00
C518   C     0.56006   0.04512   0.96001   0.00000  Uiso   1.00
C519   C     0.53747   0.99989   0.00067   0.00000  Uiso   1.00
C520   C     0.60174   0.10733   0.32566   0.00000  Uiso   1.00
C521   C     0.58496   0.13611   0.28684   0.00000  Uiso   1.00
C522   C     0.57186   0.15423   0.42043   0.00000  Uiso   1.00
C523   C     0.55755   0.17960   0.35656   0.00000  Uiso   1.00
C524   C     0.63247   0.11129   0.23946   0.00000  Uiso   1.00
C525   C     0.65932   0.10855   0.33321   0.00000  Uiso   1.00
C526   C     0.68501   0.11302   0.22947   0.00000  Uiso   1.00
C527   C     0.58632   0.08338   0.21021   0.00000  Uiso   1.00
C528   C     0.57438   0.05717   0.27935   0.00000  Uiso   1.00
C529   C     0.56122   0.03814   0.15097   0.00000  Uiso   1.00
H530   H     0.59869   0.12559   0.82631   0.00000  Uiso   1.00
H531   H     0.56860   0.17382   0.88462   0.00000  Uiso   1.00
H532   H     0.65605   0.12814   0.79742   0.00000  Uiso   1.00
H533   H     0.57112   0.07677   0.74357   0.00000  Uiso   1.00
H534   H     0.53576   0.22422   0.03333   0.00000  Uiso   1.00
H535   H     0.72015   0.12789   0.84945   0.00000  Uiso   1.00
H536   H     0.54107   0.01956   0.73589   0.00000  Uiso   1.00
H537   H     0.60264   0.10190   0.47407   0.00000  Uiso   1.00
H538   H     0.57277   0.14883   0.56793   0.00000  Uiso   1.00
H539   H     0.66021   0.10315   0.48072   0.00000  Uiso   1.00
H540   H     0.57529   0.05178   0.42687   0.00000  Uiso   1.00
H541   H     0.53914   0.20394   0.58793   0.00000  Uiso   1.00
H542   H     0.72353   0.10760   0.40404   0.00000  Uiso   1.00
H543   H     0.54445   0.99928   0.29049   0.00000  Uiso   1.00
O544   O     0.51774   0.24538   0.36069   0.00000  Uiso   1.00
O545   O     0.75964   0.11899   0.11943   0.00000  Uiso   1.00
O546   O     0.52469   0.97687   0.97045   0.00000  Uiso   1.00
N547   N     0.54065   0.21300   0.15097   0.00000  Uiso   1.00
N548   N     0.71304   0.12294   0.97906   0.00000  Uiso   1.00
N549   N     0.54562   0.02166   0.87288   0.00000  Uiso   1.00
N550   N     0.54247   0.20209   0.44940   0.00000  Uiso   1.00
N551   N     0.71486   0.11203   0.27748   0.00000  Uiso   1.00
N552   N     0.54744   0.01075   0.17131   0.00000  Uiso   1.00
C553   C     0.12017   0.40040   0.02528   0.00000  Uiso   1.00
C554   C     0.14308   0.41621   0.90378   0.00000  Uiso   1.00
C555   C     0.16843   0.43051   0.96785   0.00000  Uiso   1.00
C556   C     0.18659   0.44362   0.83440   0.00000  Uiso   1.00
C557   C     0.22324   0.46832   0.67473   0.00000  Uiso   1.00
C558   C     0.11826   0.36869   0.95115   0.00000  Uiso   1.00
C559   C     0.12274   0.34304   0.05507   0.00000  Uiso   1.00
C560   C     0.12001   0.31616   0.96149   0.00000  Uiso   1.00
C561   C     0.11811   0.26710   0.87540   0.00000  Uiso   1.00
C562   C     0.09036   0.41484   0.98041   0.00000  Uiso   1.00
C563   C     0.07136   0.42798   0.10893   0.00000  Uiso   1.00
C564   C     0.04512   0.43994   0.03999   0.00000  Uiso   1.00
C565   C     0.99989   0.46253   0.99933   0.00000  Uiso   1.00
C566   C     0.10733   0.39826   0.67434   0.00000  Uiso   1.00
C567   C     0.13611   0.41504   0.71316   0.00000  Uiso   1.00
C568   C     0.15423   0.42814   0.57957   0.00000  Uiso   1.00
C569   C     0.17960   0.44245   0.64344   0.00000  Uiso   1.00
C570   C     0.11129   0.36753   0.76054   0.00000  Uiso   1.00
C571   C     0.10855   0.34068   0.66679   0.00000  Uiso   1.00
C572   C     0.11302   0.31499   0.77053   0.00000  Uiso   1.00
C573   C     0.08338   0.41368   0.78979   0.00000  Uiso   1.00
C574   C     0.05717   0.42562   0.72065   0.00000  Uiso   1.00
C575   C     0.03814   0.43878   0.84903   0.00000  Uiso   1.00
H576   H     0.12559   0.40131   0.17369   0.00000  Uiso   1.00
H577   H     0.17382   0.43140   0.11538   0.00000  Uiso   1.00
H578   H     0.12814   0.34395   0.20258   0.00000  Uiso   1.00
H579   H     0.07677   0.42888   0.25643   0.00000  Uiso   1.00
H580   H     0.22422   0.46424   0.96667   0.00000  Uiso   1.00
H581   H     0.12789   0.27985   0.15055   0.00000  Uiso   1.00
H582   H     0.01956   0.45893   0.26411   0.00000  Uiso   1.00
H583   H     0.10190   0.39736   0.52593   0.00000  Uiso   1.00
H584   H     0.14883   0.42723   0.43207   0.00000  Uiso   1.00
H585   H     0.10315   0.33979   0.51928   0.00000  Uiso   1.00
H586   H     0.05178   0.42471   0.57313   0.00000  Uiso   1.00
H587   H     0.20394   0.46086   0.41207   0.00000  Uiso   1.00
H588   H     0.10760   0.27647   0.59596   0.00000  Uiso   1.00
H589   H     0.99928   0.45555   0.70951   0.00000  Uiso   1.00
O590   O     0.24538   0.48226   0.63931   0.00000  Uiso   1.00
O591   O     0.11899   0.24036   0.88057   0.00000  Uiso   1.00
O592   O     0.97687   0.47531   0.02955   0.00000  Uiso   1.00
N593   N     0.21300   0.45935   0.84903   0.00000  Uiso   1.00
N594   N     0.12294   0.28696   0.02094   0.00000  Uiso   1.00
N595   N     0.02166   0.45438   0.12712   0.00000  Uiso   1.00
N596   N     0.20209   0.45753   0.55060   0.00000  Uiso   1.00
N597   N     0.11203   0.28514   0.72252   0.00000  Uiso   1.00
N598   N     0.01075   0.45256   0.82869   0.00000  Uiso   1.00
C599   C     0.62017   0.90040   0.52528   0.00000  Uiso   1.00
C600   C     0.64308   0.91621   0.40378   0.00000  Uiso   1.00
C601   C     0.66843   0.93051   0.46785   0.00000  Uiso   1.00
C602   C     0.68659   0.94362   0.33440   0.00000  Uiso   1.00
C603   C     0.72324   0.96832   0.17473   0.00000  Uiso   1.00
C604   C     0.61826   0.86869   0.45115   0.00000  Uiso   1.00
C605   C     0.62274   0.84304   0.55507   0.00000  Uiso   1.00
C606   C     0.62001   0.81616   0.46149   0.00000  Uiso   1.00
C607   C     0.61811   0.76710   0.37540   0.00000  Uiso   1.00
C608   C     0.59036   0.91484   0.48041   0.00000  Uiso   1.00
C609   C     0.57136   0.92798   0.60893   0.00000  Uiso   1.00
C610   C     0.54512   0.93994   0.53999   0.00000  Uiso   1.00
C611   C     0.49989   0.96253   0.49933   0.00000  Uiso   1.00
C612   C     0.60733   0.89826   0.17434   0.00000  Uiso   1.00
C613   C     0.63611   0.91504   0.21316   0.00000  Uiso   1.00
C614   C     0.65423   0.92814   0.07957   0.00000  Uiso   1.00
C615   C     0.67960   0.94245   0.14344   0.00000  Uiso   1.00
C616   C     0.61129   0.86753   0.26054   0.00000  Uiso   1.00
C617   C     0.60855   0.84068   0.16679   0.00000  Uiso   1.00
C618   C     0.61302   0.81499   0.27053   0.00000  Uiso   1.00
C619   C     0.58338   0.91368   0.28979   0.00000  Uiso   1.00
C620   C     0.55717   0.92562   0.22065   0.00000  Uiso   1.00
C621   C     0.53814   0.93878   0.34903   0.00000  Uiso   1.00
H622   H     0.62559   0.90131   0.67369   0.00000  Uiso   1.00
H623   H     0.67382   0.93140   0.61538   0.00000  Uiso   1.00
H624   H     0.62814   0.84395   0.70258   0.00000  Uiso   1.00
H625   H     0.57677   0.92888   0.75643   0.00000  Uiso   1.00
H626   H     0.72422   0.96424   0.46667   0.00000  Uiso   1.00
H627   H     0.62789   0.77985   0.65055   0.00000  Uiso   1.00
H628   H     0.51956   0.95893   0.76411   0.00000  Uiso   1.00
H629   H     0.60190   0.89736   0.02593   0.00000  Uiso   1.00
H630   H     0.64883   0.92723   0.93207   0.00000  Uiso   1.00
H631   H     0.60315   0.83979   0.01928   0.00000  Uiso   1.00
H632   H     0.55178   0.92471   0.07313   0.00000  Uiso   1.00
H633   H     0.70394   0.96086   0.91207   0.00000  Uiso   1.00
H634   H     0.60760   0.77647   0.09596   0.00000  Uiso   1.00
H635   H     0.49928   0.95555   0.20951   0.00000  Uiso   1.00
O636   O     0.74538   0.98226   0.13931   0.00000  Uiso   1.00
O637   O     0.61899   0.74036   0.38057   0.00000  Uiso   1.00
O638   O     0.47687   0.97531   0.52955   0.00000  Uiso   1.00
N639   N     0.71300   0.95935   0.34903   0.00000  Uiso   1.00
N640   N     0.62294   0.78696   0.52094   0.00000  Uiso   1.00
N641   N     0.52166   0.95438   0.62712   0.00000  Uiso   1.00
N642   N     0.70209   0.95753   0.05060   0.00000  Uiso   1.00
N643   N     0.61203   0.78514   0.22252   0.00000  Uiso   1.00
N644   N     0.51075   0.95256   0.32869   0.00000  Uiso   1.00
C645   C     0.87983   0.59960   0.02528   0.00000  Uiso   1.00
C646   C     0.85692   0.58379   0.90378   0.00000  Uiso   1.00
C647   C     0.83157   0.56949   0.96785   0.00000  Uiso   1.00
C648   C     0.81341   0.55638   0.83440   0.00000  Uiso   1.00
C649   C     0.77676   0.53168   0.67473   0.00000  Uiso   1.00
C650   C     0.88174   0.63131   0.95115   0.00000  Uiso   1.00
C651   C     0.87726   0.65696   0.05507   0.00000  Uiso   1.00
C652   C     0.87999   0.68384   0.96149   0.00000  Uiso   1.00
C653   C     0.88189   0.73290   0.87540   0.00000  Uiso   1.00
C654   C     0.90964   0.58516   0.98041   0.00000  Uiso   1.00
C655   C     0.92864   0.57202   0.10893   0.00000  Uiso   1.00
C656   C     0.95488   0.56006   0.03999   0.00000  Uiso   1.00
C657   C     0.00011   0.53747   0.99933   0.00000  Uiso   1.00
C658   C     0.89267   0.60174   0.67434   0.00000  Uiso   1.00
C659   C     0.86389   0.58496   0.71316   0.00000  Uiso   1.00
C660   C     0.84577   0.57186   0.57957   0.00000  Uiso   1.00
C661   C     0.82040   0.55755   0.64344   0.00000  Uiso   1.00
C662   C     0.88871   0.63247   0.76054   0.00000  Uiso   1.00
C663   C     0.89145   0.65932   0.66679   0.00000  Uiso   1.00
C664   C     0.88698   0.68501   0.77053   0.00000  Uiso   1.00
C665   C     0.91662   0.58632   0.78979   0.00000  Uiso   1.00
C666   C     0.94283   0.57438   0.72065   0.00000  Uiso   1.00
C667   C     0.96186   0.56122   0.84903   0.00000  Uiso   1.00
H668   H     0.87441   0.59869   0.17369   0.00000  Uiso   1.00
H669   H     0.82618   0.56860   0.11538   0.00000  Uiso   1.00
H670   H     0.87186   0.65605   0.20258   0.00000  Uiso   1.00
H671   H     0.92323   0.57112   0.25643   0.00000  Uiso   1.00
H672   H     0.77578   0.53576   0.96667   0.00000  Uiso   1.00
H673   H     0.87211   0.72015   0.15055   0.00000  Uiso   1.00
H674   H     0.98044   0.54107   0.26411   0.00000  Uiso   1.00
H675   H     0.89810   0.60264   0.52593   0.00000  Uiso   1.00
H676   H     0.85117   0.57277   0.43207   0.00000  Uiso   1.00
H677   H     0.89685   0.66021   0.51928   0.00000  Uiso   1.00
H678   H     0.94822   0.57529   0.57313   0.00000  Uiso   1.00
H679   H     0.79606   0.53914   0.41207   0.00000  Uiso   1.00
H680   H     0.89240   0.72353   0.59596   0.00000  Uiso   1.00
H681   H     0.00072   0.54445   0.70951   0.00000  Uiso   1.00
O682   O     0.75462   0.51774   0.63931   0.00000  Uiso   1.00
O683   O     0.88101   0.75964   0.88057   0.00000  Uiso   1.00
O684   O     0.02313   0.52469   0.02955   0.00000  Uiso   1.00
N685   N     0.78700   0.54065   0.84903   0.00000  Uiso   1.00
N686   N     0.87706   0.71304   0.02094   0.00000  Uiso   1.00
N687   N     0.97834   0.54562   0.12712   0.00000  Uiso   1.00
N688   N     0.79791   0.54247   0.55060   0.00000  Uiso   1.00
N689   N     0.88797   0.71486   0.72252   0.00000  Uiso   1.00
N690   N     0.98925   0.54744   0.82869   0.00000  Uiso   1.00
C691   C     0.37983   0.09960   0.52528   0.00000  Uiso   1.00
C692   C     0.35692   0.08379   0.40378   0.00000  Uiso   1.00
C693   C     0.33157   0.06949   0.46785   0.00000  Uiso   1.00
C694   C     0.31341   0.05638   0.33440   0.00000  Uiso   1.00
C695   C     0.27676   0.03168   0.17473   0.00000  Uiso   1.00
C696   C     0.38174   0.13131   0.45115   0.00000  Uiso   1.00
C697   C     0.37726   0.15696   0.55507   0.00000  Uiso   1.00
C698   C     0.37999   0.18384   0.46149   0.00000  Uiso   1.00
C699   C     0.38189   0.23290   0.37540   0.00000  Uiso   1.00
C700   C     0.40964   0.08516   0.48041   0.00000  Uiso   1.00
C701   C     0.42864   0.07202   0.60893   0.00000  Uiso   1.00
C702   C     0.45488   0.06006   0.53999   0.00000  Uiso   1.00
C703   C     0.50011   0.03747   0.49933   0.00000  Uiso   1.00
C704   C     0.39267   0.10174   0.17434   0.00000  Uiso   1.00
C705   C     0.36389   0.08496   0.21316   0.00000  Uiso   1.00
C706   C     0.34577   0.07186   0.07957   0.00000  Uiso   1.00
C707   C     0.32040   0.05755   0.14344   0.00000  Uiso   1.00
C708   C     0.38871   0.13247   0.26054   0.00000  Uiso   1.00
C709   C     0.39145   0.15932   0.16679   0.00000  Uiso   1.00
C710   C     0.38698   0.18501   0.27053   0.00000  Uiso   1.00
C711   C     0.41662   0.08632   0.28979   0.00000  Uiso   1.00
C712   C     0.44283   0.07438   0.22065   0.00000  Uiso   1.00
C713   C     0.46186   0.06122   0.34903   0.00000  Uiso   1.00
H714   H     0.37441   0.09869   0.67369   0.00000  Uiso   1.00
H715   H     0.32618   0.06860   0.61538   0.00000  Uiso   1.00
H716   H     0.37186   0.15605   0.70258   0.00000  Uiso   1.00
H717   H     0.42323   0.07112   0.75643   0.00000  Uiso   1.00
H718   H     0.27578   0.03576   0.46667   0.00000  Uiso   1.00
H719   H     0.37211   0.22015   0.65055   0.00000  Uiso   1.00
H720   H     0.48044   0.04107   0.76411   0.00000  Uiso   1.00
H721   H     0.39810   0.10264   0.02593   0.00000  Uiso   1.00
H722   H     0.35117   0.07277   0.93207   0.00000  Uiso   1.00
H723   H     0.39685   0.16021   0.01928   0.00000  Uiso   1.00
H724   H     0.44822   0.07529   0.07313   0.00000  Uiso   1.00
H725   H     0.29606   0.03914   0.91207   0.00000  Uiso   1.00
H726   H     0.39240   0.22353   0.09596   0.00000  Uiso   1.00
H727   H     0.50072   0.04445   0.20951   0.00000  Uiso   1.00
O728   O     0.25462   0.01774   0.13931   0.00000  Uiso   1.00
O729   O     0.38101   0.25964   0.38057   0.00000  Uiso   1.00
O730   O     0.52313   0.02469   0.52955   0.00000  Uiso   1.00
N731   N     0.28700   0.04065   0.34903   0.00000  Uiso   1.00
N732   N     0.37706   0.21304   0.52094   0.00000  Uiso   1.00
N733   N     0.47834   0.04562   0.62712   0.00000  Uiso   1.00
N734   N     0.29791   0.04247   0.05060   0.00000  Uiso   1.00
N735   N     0.38797   0.21486   0.22252   0.00000  Uiso   1.00
N736   N     0.48925   0.04744   0.32869   0.00000  Uiso   1.00
