data_job_02149
_audit_creation_date              2018-12-19
_audit_creation_method            'Materials Studio'
_symmetry_space_group_name_H-M    'P1'
_symmetry_Int_Tables_number       1
_symmetry_cell_setting            triclinic
loop_
_symmetry_equiv_pos_as_xyz
  x,y,z
_cell_length_a                    30.1468
_cell_length_b                    30.1468
_cell_length_c                    12.1311
_cell_angle_alpha                 90.0000
_cell_angle_beta                  90.0000
_cell_angle_gamma                 90.0000
loop_
_atom_site_label
_atom_site_type_symbol
_atom_site_fract_x
_atom_site_fract_y
_atom_site_fract_z
_atom_site_U_iso_or_equiv
_atom_site_adp_type
_atom_site_occupancy
C1     C     0.26268   0.46986   0.35814   0.00000  Uiso   1.00
C2     C     0.26270   0.43313   0.27171   0.00000  Uiso   1.00
C3     C     0.24274   0.43531   0.16877   0.00000  Uiso   1.00
C4     C     0.24650   0.39819   0.10169   0.00000  Uiso   1.00
C5     C     0.24304   0.34691   0.96223   0.00000  Uiso   1.00
C6     C     0.24296   0.44944   0.46219   0.00000  Uiso   1.00
C7     C     0.20641   0.46534   0.51941   0.00000  Uiso   1.00
C8     C     0.19356   0.44195   0.61269   0.00000  Uiso   1.00
C9     C     0.15947   0.41602   0.76899   0.00000  Uiso   1.00
C10    C     0.31127   0.47916   0.38433   0.00000  Uiso   1.00
C11    C     0.33214   0.52006   0.37611   0.00000  Uiso   1.00
C12    C     0.37679   0.52170   0.40385   0.00000  Uiso   1.00
C13    C     0.44875   0.54192   0.43926   0.00000  Uiso   1.00
C14    C     0.30486   0.40004   0.42206   0.00000  Uiso   1.00
C15    C     0.28561   0.39521   0.30643   0.00000  Uiso   1.00
C16    C     0.28941   0.35807   0.23949   0.00000  Uiso   1.00
C17    C     0.26946   0.36020   0.13647   0.00000  Uiso   1.00
C18    C     0.26587   0.41152   0.49691   0.00000  Uiso   1.00
C19    C     0.25308   0.38810   0.59013   0.00000  Uiso   1.00
C20    C     0.21651   0.40396   0.64747   0.00000  Uiso   1.00
C21    C     0.33418   0.44124   0.41904   0.00000  Uiso   1.00
C22    C     0.37881   0.44282   0.44682   0.00000  Uiso   1.00
C23    C     0.39974   0.48371   0.43864   0.00000  Uiso   1.00
H24    H     0.24484   0.49938   0.33112   0.00000  Uiso   1.00
H25    H     0.22501   0.46466   0.14194   0.00000  Uiso   1.00
H26    H     0.18869   0.49469   0.49253   0.00000  Uiso   1.00
H27    H     0.31440   0.54940   0.34924   0.00000  Uiso   1.00
H28    H     0.21312   0.40944   0.94753   0.00000  Uiso   1.00
H29    H     0.13654   0.47276   0.68679   0.00000  Uiso   1.00
H30    H     0.40162   0.58813   0.38464   0.00000  Uiso   1.00
H31    H     0.32270   0.37052   0.44909   0.00000  Uiso   1.00
H32    H     0.30714   0.32873   0.26638   0.00000  Uiso   1.00
H33    H     0.27082   0.35876   0.61697   0.00000  Uiso   1.00
H34    H     0.39653   0.41347   0.47368   0.00000  Uiso   1.00
H35    H     0.27977   0.29911   0.04853   0.00000  Uiso   1.00
H36    H     0.20320   0.36244   0.78779   0.00000  Uiso   1.00
H37    H     0.46828   0.47781   0.48564   0.00000  Uiso   1.00
O38    O     0.23479   0.32911   0.87572   0.00000  Uiso   1.00
O39    O     0.13433   0.41219   0.84561   0.00000  Uiso   1.00
O40    O     0.48211   0.56355   0.44919   0.00000  Uiso   1.00
N41    N     0.23095   0.38921   0.99636   0.00000  Uiso   1.00
N42    N     0.15935   0.44841   0.68752   0.00000  Uiso   1.00
N43    N     0.40717   0.55628   0.40506   0.00000  Uiso   1.00
N44    N     0.26682   0.32985   0.05071   0.00000  Uiso   1.00
N45    N     0.19521   0.38905   0.74187   0.00000  Uiso   1.00
N46    N     0.44304   0.49691   0.45941   0.00000  Uiso   1.00
C47    C     0.76268   0.96986   0.85814   0.00000  Uiso   1.00
C48    C     0.76270   0.93313   0.77171   0.00000  Uiso   1.00
C49    C     0.74274   0.93531   0.66877   0.00000  Uiso   1.00
C50    C     0.74650   0.89819   0.60169   0.00000  Uiso   1.00
C51    C     0.74304   0.84691   0.46223   0.00000  Uiso   1.00
C52    C     0.74296   0.94944   0.96219   0.00000  Uiso   1.00
C53    C     0.70641   0.96534   0.01941   0.00000  Uiso   1.00
C54    C     0.69356   0.94195   0.11269   0.00000  Uiso   1.00
C55    C     0.65947   0.91602   0.26899   0.00000  Uiso   1.00
C56    C     0.81127   0.97916   0.88433   0.00000  Uiso   1.00
C57    C     0.83214   0.02006   0.87611   0.00000  Uiso   1.00
C58    C     0.87679   0.02170   0.90385   0.00000  Uiso   1.00
C59    C     0.94875   0.04192   0.93926   0.00000  Uiso   1.00
C60    C     0.80486   0.90004   0.92206   0.00000  Uiso   1.00
C61    C     0.78561   0.89521   0.80643   0.00000  Uiso   1.00
C62    C     0.78941   0.85807   0.73949   0.00000  Uiso   1.00
C63    C     0.76946   0.86020   0.63647   0.00000  Uiso   1.00
C64    C     0.76587   0.91152   0.99691   0.00000  Uiso   1.00
C65    C     0.75308   0.88810   0.09013   0.00000  Uiso   1.00
C66    C     0.71651   0.90396   0.14747   0.00000  Uiso   1.00
C67    C     0.83418   0.94124   0.91904   0.00000  Uiso   1.00
C68    C     0.87881   0.94282   0.94682   0.00000  Uiso   1.00
C69    C     0.89974   0.98371   0.93864   0.00000  Uiso   1.00
H70    H     0.74484   0.99938   0.83112   0.00000  Uiso   1.00
H71    H     0.72501   0.96466   0.64194   0.00000  Uiso   1.00
H72    H     0.68869   0.99469   0.99253   0.00000  Uiso   1.00
H73    H     0.81440   0.04940   0.84924   0.00000  Uiso   1.00
H74    H     0.71312   0.90944   0.44753   0.00000  Uiso   1.00
H75    H     0.63654   0.97276   0.18679   0.00000  Uiso   1.00
H76    H     0.90162   0.08813   0.88464   0.00000  Uiso   1.00
H77    H     0.82270   0.87052   0.94909   0.00000  Uiso   1.00
H78    H     0.80714   0.82873   0.76638   0.00000  Uiso   1.00
H79    H     0.77082   0.85876   0.11697   0.00000  Uiso   1.00
H80    H     0.89653   0.91347   0.97368   0.00000  Uiso   1.00
H81    H     0.77977   0.79911   0.54853   0.00000  Uiso   1.00
H82    H     0.70320   0.86244   0.28779   0.00000  Uiso   1.00
H83    H     0.96828   0.97781   0.98564   0.00000  Uiso   1.00
O84    O     0.73479   0.82911   0.37572   0.00000  Uiso   1.00
O85    O     0.63433   0.91219   0.34561   0.00000  Uiso   1.00
O86    O     0.98211   0.06355   0.94919   0.00000  Uiso   1.00
N87    N     0.73095   0.88921   0.49636   0.00000  Uiso   1.00
N88    N     0.65935   0.94841   0.18752   0.00000  Uiso   1.00
N89    N     0.90717   0.05628   0.90506   0.00000  Uiso   1.00
N90    N     0.76682   0.82985   0.55071   0.00000  Uiso   1.00
N91    N     0.69521   0.88905   0.24187   0.00000  Uiso   1.00
N92    N     0.94304   0.99691   0.95941   0.00000  Uiso   1.00
C93    C     0.23732   0.03014   0.85814   0.00000  Uiso   1.00
C94    C     0.23730   0.06687   0.77171   0.00000  Uiso   1.00
C95    C     0.25726   0.06469   0.66877   0.00000  Uiso   1.00
C96    C     0.25350   0.10181   0.60169   0.00000  Uiso   1.00
C97    C     0.25696   0.15309   0.46223   0.00000  Uiso   1.00
C98    C     0.25704   0.05056   0.96219   0.00000  Uiso   1.00
C99    C     0.29359   0.03466   0.01941   0.00000  Uiso   1.00
C100   C     0.30644   0.05805   0.11269   0.00000  Uiso   1.00
C101   C     0.34053   0.08398   0.26899   0.00000  Uiso   1.00
C102   C     0.18873   0.02084   0.88433   0.00000  Uiso   1.00
C103   C     0.16786   0.97994   0.87611   0.00000  Uiso   1.00
C104   C     0.12321   0.97830   0.90385   0.00000  Uiso   1.00
C105   C     0.05125   0.95808   0.93926   0.00000  Uiso   1.00
C106   C     0.19514   0.09996   0.92206   0.00000  Uiso   1.00
C107   C     0.21439   0.10479   0.80643   0.00000  Uiso   1.00
C108   C     0.21059   0.14193   0.73949   0.00000  Uiso   1.00
C109   C     0.23054   0.13980   0.63647   0.00000  Uiso   1.00
C110   C     0.23413   0.08848   0.99691   0.00000  Uiso   1.00
C111   C     0.24692   0.11190   0.09013   0.00000  Uiso   1.00
C112   C     0.28349   0.09604   0.14747   0.00000  Uiso   1.00
C113   C     0.16582   0.05876   0.91904   0.00000  Uiso   1.00
C114   C     0.12119   0.05718   0.94682   0.00000  Uiso   1.00
C115   C     0.10026   0.01629   0.93864   0.00000  Uiso   1.00
H116   H     0.25516   0.00062   0.83112   0.00000  Uiso   1.00
H117   H     0.27499   0.03534   0.64194   0.00000  Uiso   1.00
H118   H     0.31131   0.00531   0.99253   0.00000  Uiso   1.00
H119   H     0.18560   0.95060   0.84924   0.00000  Uiso   1.00
H120   H     0.28688   0.09056   0.44753   0.00000  Uiso   1.00
H121   H     0.36346   0.02724   0.18679   0.00000  Uiso   1.00
H122   H     0.09838   0.91187   0.88464   0.00000  Uiso   1.00
H123   H     0.17730   0.12948   0.94909   0.00000  Uiso   1.00
H124   H     0.19286   0.17127   0.76638   0.00000  Uiso   1.00
H125   H     0.22918   0.14124   0.11697   0.00000  Uiso   1.00
H126   H     0.10347   0.08653   0.97368   0.00000  Uiso   1.00
H127   H     0.22023   0.20089   0.54853   0.00000  Uiso   1.00
H128   H     0.29680   0.13756   0.28779   0.00000  Uiso   1.00
H129   H     0.03172   0.02219   0.98564   0.00000  Uiso   1.00
O130   O     0.26521   0.17089   0.37572   0.00000  Uiso   1.00
O131   O     0.36567   0.08781   0.34561   0.00000  Uiso   1.00
O132   O     0.01789   0.93645   0.94919   0.00000  Uiso   1.00
N133   N     0.26905   0.11079   0.49636   0.00000  Uiso   1.00
N134   N     0.34065   0.05159   0.18752   0.00000  Uiso   1.00
N135   N     0.09283   0.94372   0.90506   0.00000  Uiso   1.00
N136   N     0.23318   0.17015   0.55071   0.00000  Uiso   1.00
N137   N     0.30479   0.11095   0.24187   0.00000  Uiso   1.00
N138   N     0.05696   0.00309   0.95941   0.00000  Uiso   1.00
C139   C     0.73732   0.53014   0.35814   0.00000  Uiso   1.00
C140   C     0.73730   0.56687   0.27171   0.00000  Uiso   1.00
C141   C     0.75726   0.56469   0.16877   0.00000  Uiso   1.00
C142   C     0.75350   0.60181   0.10169   0.00000  Uiso   1.00
C143   C     0.75696   0.65309   0.96223   0.00000  Uiso   1.00
C144   C     0.75704   0.55056   0.46219   0.00000  Uiso   1.00
C145   C     0.79359   0.53466   0.51941   0.00000  Uiso   1.00
C146   C     0.80644   0.55805   0.61269   0.00000  Uiso   1.00
C147   C     0.84053   0.58398   0.76899   0.00000  Uiso   1.00
C148   C     0.68873   0.52084   0.38433   0.00000  Uiso   1.00
C149   C     0.66786   0.47994   0.37611   0.00000  Uiso   1.00
C150   C     0.62321   0.47830   0.40385   0.00000  Uiso   1.00
C151   C     0.55125   0.45808   0.43926   0.00000  Uiso   1.00
C152   C     0.69514   0.59996   0.42206   0.00000  Uiso   1.00
C153   C     0.71439   0.60479   0.30643   0.00000  Uiso   1.00
C154   C     0.71059   0.64193   0.23949   0.00000  Uiso   1.00
C155   C     0.73054   0.63980   0.13647   0.00000  Uiso   1.00
C156   C     0.73413   0.58848   0.49691   0.00000  Uiso   1.00
C157   C     0.74692   0.61190   0.59013   0.00000  Uiso   1.00
C158   C     0.78349   0.59604   0.64747   0.00000  Uiso   1.00
C159   C     0.66582   0.55876   0.41904   0.00000  Uiso   1.00
C160   C     0.62119   0.55718   0.44682   0.00000  Uiso   1.00
C161   C     0.60026   0.51629   0.43864   0.00000  Uiso   1.00
H162   H     0.75516   0.50062   0.33112   0.00000  Uiso   1.00
H163   H     0.77499   0.53534   0.14194   0.00000  Uiso   1.00
H164   H     0.81131   0.50531   0.49253   0.00000  Uiso   1.00
H165   H     0.68560   0.45060   0.34924   0.00000  Uiso   1.00
H166   H     0.78688   0.59056   0.94753   0.00000  Uiso   1.00
H167   H     0.86346   0.52724   0.68679   0.00000  Uiso   1.00
H168   H     0.59838   0.41187   0.38464   0.00000  Uiso   1.00
H169   H     0.67730   0.62948   0.44909   0.00000  Uiso   1.00
H170   H     0.69286   0.67127   0.26638   0.00000  Uiso   1.00
H171   H     0.72918   0.64124   0.61697   0.00000  Uiso   1.00
H172   H     0.60347   0.58653   0.47368   0.00000  Uiso   1.00
H173   H     0.72023   0.70089   0.04853   0.00000  Uiso   1.00
H174   H     0.79680   0.63756   0.78779   0.00000  Uiso   1.00
H175   H     0.53172   0.52219   0.48564   0.00000  Uiso   1.00
O176   O     0.76521   0.67089   0.87572   0.00000  Uiso   1.00
O177   O     0.86567   0.58781   0.84561   0.00000  Uiso   1.00
O178   O     0.51789   0.43645   0.44919   0.00000  Uiso   1.00
N179   N     0.76905   0.61079   0.99636   0.00000  Uiso   1.00
N180   N     0.84065   0.55159   0.68752   0.00000  Uiso   1.00
N181   N     0.59283   0.44372   0.40506   0.00000  Uiso   1.00
N182   N     0.73318   0.67015   0.05071   0.00000  Uiso   1.00
N183   N     0.80479   0.61095   0.74187   0.00000  Uiso   1.00
N184   N     0.55696   0.50309   0.45941   0.00000  Uiso   1.00
C185   C     0.53014   0.76268   0.60814   0.00000  Uiso   1.00
C186   C     0.56687   0.76270   0.52171   0.00000  Uiso   1.00
C187   C     0.56469   0.74274   0.41877   0.00000  Uiso   1.00
C188   C     0.60181   0.74650   0.35169   0.00000  Uiso   1.00
C189   C     0.65309   0.74304   0.21223   0.00000  Uiso   1.00
C190   C     0.55056   0.74296   0.71219   0.00000  Uiso   1.00
C191   C     0.53466   0.70641   0.76941   0.00000  Uiso   1.00
C192   C     0.55805   0.69356   0.86269   0.00000  Uiso   1.00
C193   C     0.58398   0.65947   0.01899   0.00000  Uiso   1.00
C194   C     0.52084   0.81127   0.63433   0.00000  Uiso   1.00
C195   C     0.47994   0.83214   0.62611   0.00000  Uiso   1.00
C196   C     0.47830   0.87679   0.65385   0.00000  Uiso   1.00
C197   C     0.45808   0.94875   0.68926   0.00000  Uiso   1.00
C198   C     0.59996   0.80486   0.67206   0.00000  Uiso   1.00
C199   C     0.60479   0.78561   0.55643   0.00000  Uiso   1.00
C200   C     0.64193   0.78941   0.48949   0.00000  Uiso   1.00
C201   C     0.63980   0.76946   0.38647   0.00000  Uiso   1.00
C202   C     0.58848   0.76587   0.74691   0.00000  Uiso   1.00
C203   C     0.61190   0.75308   0.84013   0.00000  Uiso   1.00
C204   C     0.59604   0.71651   0.89747   0.00000  Uiso   1.00
C205   C     0.55876   0.83418   0.66904   0.00000  Uiso   1.00
C206   C     0.55718   0.87881   0.69682   0.00000  Uiso   1.00
C207   C     0.51629   0.89974   0.68864   0.00000  Uiso   1.00
H208   H     0.50062   0.74484   0.58112   0.00000  Uiso   1.00
H209   H     0.53534   0.72501   0.39194   0.00000  Uiso   1.00
H210   H     0.50531   0.68869   0.74253   0.00000  Uiso   1.00
H211   H     0.45060   0.81440   0.59924   0.00000  Uiso   1.00
H212   H     0.59056   0.71312   0.19753   0.00000  Uiso   1.00
H213   H     0.52724   0.63654   0.93679   0.00000  Uiso   1.00
H214   H     0.41187   0.90162   0.63464   0.00000  Uiso   1.00
H215   H     0.62948   0.82270   0.69909   0.00000  Uiso   1.00
H216   H     0.67127   0.80714   0.51638   0.00000  Uiso   1.00
H217   H     0.64124   0.77082   0.86697   0.00000  Uiso   1.00
H218   H     0.58653   0.89653   0.72368   0.00000  Uiso   1.00
H219   H     0.70089   0.77977   0.29853   0.00000  Uiso   1.00
H220   H     0.63756   0.70320   0.03779   0.00000  Uiso   1.00
H221   H     0.52219   0.96828   0.73564   0.00000  Uiso   1.00
O222   O     0.67089   0.73479   0.12572   0.00000  Uiso   1.00
O223   O     0.58781   0.63433   0.09561   0.00000  Uiso   1.00
O224   O     0.43645   0.98211   0.69919   0.00000  Uiso   1.00
N225   N     0.61079   0.73095   0.24636   0.00000  Uiso   1.00
N226   N     0.55159   0.65935   0.93752   0.00000  Uiso   1.00
N227   N     0.44372   0.90717   0.65506   0.00000  Uiso   1.00
N228   N     0.67015   0.76682   0.30071   0.00000  Uiso   1.00
N229   N     0.61095   0.69521   0.99187   0.00000  Uiso   1.00
N230   N     0.50309   0.94304   0.70941   0.00000  Uiso   1.00
C231   C     0.03014   0.26268   0.10814   0.00000  Uiso   1.00
C232   C     0.06687   0.26270   0.02171   0.00000  Uiso   1.00
C233   C     0.06469   0.24274   0.91877   0.00000  Uiso   1.00
C234   C     0.10181   0.24650   0.85169   0.00000  Uiso   1.00
C235   C     0.15309   0.24304   0.71223   0.00000  Uiso   1.00
C236   C     0.05056   0.24296   0.21219   0.00000  Uiso   1.00
C237   C     0.03466   0.20641   0.26941   0.00000  Uiso   1.00
C238   C     0.05805   0.19356   0.36269   0.00000  Uiso   1.00
C239   C     0.08398   0.15947   0.51899   0.00000  Uiso   1.00
C240   C     0.02084   0.31127   0.13433   0.00000  Uiso   1.00
C241   C     0.97994   0.33214   0.12611   0.00000  Uiso   1.00
C242   C     0.97830   0.37679   0.15385   0.00000  Uiso   1.00
C243   C     0.95808   0.44875   0.18926   0.00000  Uiso   1.00
C244   C     0.09996   0.30486   0.17206   0.00000  Uiso   1.00
C245   C     0.10479   0.28561   0.05643   0.00000  Uiso   1.00
C246   C     0.14193   0.28941   0.98949   0.00000  Uiso   1.00
C247   C     0.13980   0.26946   0.88647   0.00000  Uiso   1.00
C248   C     0.08848   0.26587   0.24691   0.00000  Uiso   1.00
C249   C     0.11190   0.25308   0.34013   0.00000  Uiso   1.00
C250   C     0.09604   0.21651   0.39747   0.00000  Uiso   1.00
C251   C     0.05876   0.33418   0.16904   0.00000  Uiso   1.00
C252   C     0.05718   0.37881   0.19682   0.00000  Uiso   1.00
C253   C     0.01629   0.39974   0.18864   0.00000  Uiso   1.00
H254   H     0.00062   0.24484   0.08112   0.00000  Uiso   1.00
H255   H     0.03534   0.22501   0.89194   0.00000  Uiso   1.00
H256   H     0.00531   0.18869   0.24253   0.00000  Uiso   1.00
H257   H     0.95060   0.31440   0.09924   0.00000  Uiso   1.00
H258   H     0.09056   0.21312   0.69753   0.00000  Uiso   1.00
H259   H     0.02724   0.13654   0.43679   0.00000  Uiso   1.00
H260   H     0.91187   0.40162   0.13464   0.00000  Uiso   1.00
H261   H     0.12948   0.32270   0.19909   0.00000  Uiso   1.00
H262   H     0.17127   0.30714   0.01638   0.00000  Uiso   1.00
H263   H     0.14124   0.27082   0.36697   0.00000  Uiso   1.00
H264   H     0.08653   0.39653   0.22368   0.00000  Uiso   1.00
H265   H     0.20089   0.27977   0.79853   0.00000  Uiso   1.00
H266   H     0.13756   0.20320   0.53779   0.00000  Uiso   1.00
H267   H     0.02219   0.46828   0.23564   0.00000  Uiso   1.00
O268   O     0.17089   0.23479   0.62572   0.00000  Uiso   1.00
O269   O     0.08781   0.13433   0.59561   0.00000  Uiso   1.00
O270   O     0.93645   0.48211   0.19919   0.00000  Uiso   1.00
N271   N     0.11079   0.23095   0.74636   0.00000  Uiso   1.00
N272   N     0.05159   0.15935   0.43752   0.00000  Uiso   1.00
N273   N     0.94372   0.40717   0.15506   0.00000  Uiso   1.00
N274   N     0.17015   0.26682   0.80071   0.00000  Uiso   1.00
N275   N     0.11095   0.19521   0.49187   0.00000  Uiso   1.00
N276   N     0.00309   0.44304   0.20941   0.00000  Uiso   1.00
C277   C     0.96986   0.73732   0.10814   0.00000  Uiso   1.00
C278   C     0.93313   0.73730   0.02171   0.00000  Uiso   1.00
C279   C     0.93531   0.75726   0.91877   0.00000  Uiso   1.00
C280   C     0.89819   0.75350   0.85169   0.00000  Uiso   1.00
C281   C     0.84691   0.75696   0.71223   0.00000  Uiso   1.00
C282   C     0.94944   0.75704   0.21219   0.00000  Uiso   1.00
C283   C     0.96534   0.79359   0.26941   0.00000  Uiso   1.00
C284   C     0.94195   0.80644   0.36269   0.00000  Uiso   1.00
C285   C     0.91602   0.84053   0.51899   0.00000  Uiso   1.00
C286   C     0.97916   0.68873   0.13433   0.00000  Uiso   1.00
C287   C     0.02006   0.66786   0.12611   0.00000  Uiso   1.00
C288   C     0.02170   0.62321   0.15385   0.00000  Uiso   1.00
C289   C     0.04192   0.55125   0.18926   0.00000  Uiso   1.00
C290   C     0.90004   0.69514   0.17206   0.00000  Uiso   1.00
C291   C     0.89521   0.71439   0.05643   0.00000  Uiso   1.00
C292   C     0.85807   0.71059   0.98949   0.00000  Uiso   1.00
C293   C     0.86020   0.73054   0.88647   0.00000  Uiso   1.00
C294   C     0.91152   0.73413   0.24691   0.00000  Uiso   1.00
C295   C     0.88810   0.74692   0.34013   0.00000  Uiso   1.00
C296   C     0.90396   0.78349   0.39747   0.00000  Uiso   1.00
C297   C     0.94124   0.66582   0.16904   0.00000  Uiso   1.00
C298   C     0.94282   0.62119   0.19682   0.00000  Uiso   1.00
C299   C     0.98371   0.60026   0.18864   0.00000  Uiso   1.00
H300   H     0.99938   0.75516   0.08112   0.00000  Uiso   1.00
H301   H     0.96466   0.77499   0.89194   0.00000  Uiso   1.00
H302   H     0.99469   0.81131   0.24253   0.00000  Uiso   1.00
H303   H     0.04940   0.68560   0.09924   0.00000  Uiso   1.00
H304   H     0.90944   0.78688   0.69753   0.00000  Uiso   1.00
H305   H     0.97276   0.86346   0.43679   0.00000  Uiso   1.00
H306   H     0.08813   0.59838   0.13464   0.00000  Uiso   1.00
H307   H     0.87052   0.67730   0.19909   0.00000  Uiso   1.00
H308   H     0.82873   0.69286   0.01638   0.00000  Uiso   1.00
H309   H     0.85876   0.72918   0.36697   0.00000  Uiso   1.00
H310   H     0.91347   0.60347   0.22368   0.00000  Uiso   1.00
H311   H     0.79911   0.72023   0.79853   0.00000  Uiso   1.00
H312   H     0.86244   0.79680   0.53779   0.00000  Uiso   1.00
H313   H     0.97781   0.53172   0.23564   0.00000  Uiso   1.00
O314   O     0.82911   0.76521   0.62572   0.00000  Uiso   1.00
O315   O     0.91219   0.86567   0.59561   0.00000  Uiso   1.00
O316   O     0.06355   0.51789   0.19919   0.00000  Uiso   1.00
N317   N     0.88921   0.76905   0.74636   0.00000  Uiso   1.00
N318   N     0.94841   0.84065   0.43752   0.00000  Uiso   1.00
N319   N     0.05628   0.59283   0.15506   0.00000  Uiso   1.00
N320   N     0.82985   0.73318   0.80071   0.00000  Uiso   1.00
N321   N     0.88905   0.80479   0.49187   0.00000  Uiso   1.00
N322   N     0.99691   0.55696   0.20941   0.00000  Uiso   1.00
C323   C     0.46986   0.23732   0.60814   0.00000  Uiso   1.00
C324   C     0.43313   0.23730   0.52171   0.00000  Uiso   1.00
C325   C     0.43531   0.25726   0.41877   0.00000  Uiso   1.00
C326   C     0.39819   0.25350   0.35169   0.00000  Uiso   1.00
C327   C     0.34691   0.25696   0.21223   0.00000  Uiso   1.00
C328   C     0.44944   0.25704   0.71219   0.00000  Uiso   1.00
C329   C     0.46534   0.29359   0.76941   0.00000  Uiso   1.00
C330   C     0.44195   0.30644   0.86269   0.00000  Uiso   1.00
C331   C     0.41602   0.34053   0.01899   0.00000  Uiso   1.00
C332   C     0.47916   0.18873   0.63433   0.00000  Uiso   1.00
C333   C     0.52006   0.16786   0.62611   0.00000  Uiso   1.00
C334   C     0.52170   0.12321   0.65385   0.00000  Uiso   1.00
C335   C     0.54192   0.05125   0.68926   0.00000  Uiso   1.00
C336   C     0.40004   0.19514   0.67206   0.00000  Uiso   1.00
C337   C     0.39521   0.21439   0.55643   0.00000  Uiso   1.00
C338   C     0.35807   0.21059   0.48949   0.00000  Uiso   1.00
C339   C     0.36020   0.23054   0.38647   0.00000  Uiso   1.00
C340   C     0.41152   0.23413   0.74691   0.00000  Uiso   1.00
C341   C     0.38810   0.24692   0.84013   0.00000  Uiso   1.00
C342   C     0.40396   0.28349   0.89747   0.00000  Uiso   1.00
C343   C     0.44124   0.16582   0.66904   0.00000  Uiso   1.00
C344   C     0.44282   0.12119   0.69682   0.00000  Uiso   1.00
C345   C     0.48371   0.10026   0.68864   0.00000  Uiso   1.00
H346   H     0.49938   0.25516   0.58112   0.00000  Uiso   1.00
H347   H     0.46466   0.27499   0.39194   0.00000  Uiso   1.00
H348   H     0.49469   0.31131   0.74253   0.00000  Uiso   1.00
H349   H     0.54940   0.18560   0.59924   0.00000  Uiso   1.00
H350   H     0.40944   0.28688   0.19753   0.00000  Uiso   1.00
H351   H     0.47276   0.36346   0.93679   0.00000  Uiso   1.00
H352   H     0.58813   0.09838   0.63464   0.00000  Uiso   1.00
H353   H     0.37052   0.17730   0.69909   0.00000  Uiso   1.00
H354   H     0.32873   0.19286   0.51638   0.00000  Uiso   1.00
H355   H     0.35876   0.22918   0.86697   0.00000  Uiso   1.00
H356   H     0.41347   0.10347   0.72368   0.00000  Uiso   1.00
H357   H     0.29911   0.22023   0.29853   0.00000  Uiso   1.00
H358   H     0.36244   0.29680   0.03779   0.00000  Uiso   1.00
H359   H     0.47781   0.03172   0.73564   0.00000  Uiso   1.00
O360   O     0.32911   0.26521   0.12572   0.00000  Uiso   1.00
O361   O     0.41219   0.36567   0.09561   0.00000  Uiso   1.00
O362   O     0.56355   0.01789   0.69919   0.00000  Uiso   1.00
N363   N     0.38921   0.26905   0.24636   0.00000  Uiso   1.00
N364   N     0.44841   0.34065   0.93752   0.00000  Uiso   1.00
N365   N     0.55628   0.09283   0.65506   0.00000  Uiso   1.00
N366   N     0.32985   0.23318   0.30071   0.00000  Uiso   1.00
N367   N     0.38905   0.30479   0.99187   0.00000  Uiso   1.00
N368   N     0.49691   0.05696   0.70941   0.00000  Uiso   1.00
C369   C     0.26268   0.53014   0.85814   0.00000  Uiso   1.00
C370   C     0.26270   0.56687   0.77171   0.00000  Uiso   1.00
C371   C     0.24274   0.56469   0.66877   0.00000  Uiso   1.00
C372   C     0.24650   0.60181   0.60169   0.00000  Uiso   1.00
C373   C     0.24304   0.65309   0.46223   0.00000  Uiso   1.00
C374   C     0.24296   0.55056   0.96219   0.00000  Uiso   1.00
C375   C     0.20641   0.53466   0.01941   0.00000  Uiso   1.00
C376   C     0.19356   0.55805   0.11269   0.00000  Uiso   1.00
C377   C     0.15947   0.58398   0.26899   0.00000  Uiso   1.00
C378   C     0.31127   0.52084   0.88433   0.00000  Uiso   1.00
C379   C     0.33214   0.47994   0.87611   0.00000  Uiso   1.00
C380   C     0.37679   0.47830   0.90385   0.00000  Uiso   1.00
C381   C     0.44875   0.45808   0.93926   0.00000  Uiso   1.00
C382   C     0.30486   0.59996   0.92206   0.00000  Uiso   1.00
C383   C     0.28561   0.60479   0.80643   0.00000  Uiso   1.00
C384   C     0.28941   0.64193   0.73949   0.00000  Uiso   1.00
C385   C     0.26946   0.63980   0.63647   0.00000  Uiso   1.00
C386   C     0.26587   0.58848   0.99691   0.00000  Uiso   1.00
C387   C     0.25308   0.61190   0.09013   0.00000  Uiso   1.00
C388   C     0.21651   0.59604   0.14747   0.00000  Uiso   1.00
C389   C     0.33418   0.55876   0.91904   0.00000  Uiso   1.00
C390   C     0.37881   0.55718   0.94682   0.00000  Uiso   1.00
C391   C     0.39974   0.51629   0.93864   0.00000  Uiso   1.00
H392   H     0.24484   0.50062   0.83112   0.00000  Uiso   1.00
H393   H     0.22501   0.53534   0.64194   0.00000  Uiso   1.00
H394   H     0.18869   0.50531   0.99253   0.00000  Uiso   1.00
H395   H     0.31440   0.45060   0.84924   0.00000  Uiso   1.00
H396   H     0.21312   0.59056   0.44753   0.00000  Uiso   1.00
H397   H     0.13654   0.52724   0.18679   0.00000  Uiso   1.00
H398   H     0.40162   0.41187   0.88464   0.00000  Uiso   1.00
H399   H     0.32270   0.62948   0.94909   0.00000  Uiso   1.00
H400   H     0.30714   0.67127   0.76638   0.00000  Uiso   1.00
H401   H     0.27082   0.64124   0.11697   0.00000  Uiso   1.00
H402   H     0.39653   0.58653   0.97368   0.00000  Uiso   1.00
H403   H     0.27977   0.70089   0.54853   0.00000  Uiso   1.00
H404   H     0.20320   0.63756   0.28779   0.00000  Uiso   1.00
H405   H     0.46828   0.52219   0.98564   0.00000  Uiso   1.00
O406   O     0.23479   0.67089   0.37572   0.00000  Uiso   1.00
O407   O     0.13433   0.58781   0.34561   0.00000  Uiso   1.00
O408   O     0.48211   0.43645   0.94919   0.00000  Uiso   1.00
N409   N     0.23095   0.61079   0.49636   0.00000  Uiso   1.00
N410   N     0.15935   0.55159   0.18752   0.00000  Uiso   1.00
N411   N     0.40717   0.44372   0.90506   0.00000  Uiso   1.00
N412   N     0.26682   0.67015   0.55071   0.00000  Uiso   1.00
N413   N     0.19521   0.61095   0.24187   0.00000  Uiso   1.00
N414   N     0.44304   0.50309   0.95941   0.00000  Uiso   1.00
C415   C     0.76268   0.03014   0.35814   0.00000  Uiso   1.00
C416   C     0.76270   0.06687   0.27171   0.00000  Uiso   1.00
C417   C     0.74274   0.06469   0.16877   0.00000  Uiso   1.00
C418   C     0.74650   0.10181   0.10169   0.00000  Uiso   1.00
C419   C     0.74304   0.15309   0.96223   0.00000  Uiso   1.00
C420   C     0.74296   0.05056   0.46219   0.00000  Uiso   1.00
C421   C     0.70641   0.03466   0.51941   0.00000  Uiso   1.00
C422   C     0.69356   0.05805   0.61269   0.00000  Uiso   1.00
C423   C     0.65947   0.08398   0.76899   0.00000  Uiso   1.00
C424   C     0.81127   0.02084   0.38433   0.00000  Uiso   1.00
C425   C     0.83214   0.97994   0.37611   0.00000  Uiso   1.00
C426   C     0.87679   0.97830   0.40385   0.00000  Uiso   1.00
C427   C     0.94875   0.95808   0.43926   0.00000  Uiso   1.00
C428   C     0.80486   0.09996   0.42206   0.00000  Uiso   1.00
C429   C     0.78561   0.10479   0.30643   0.00000  Uiso   1.00
C430   C     0.78941   0.14193   0.23949   0.00000  Uiso   1.00
C431   C     0.76946   0.13980   0.13647   0.00000  Uiso   1.00
C432   C     0.76587   0.08848   0.49691   0.00000  Uiso   1.00
C433   C     0.75308   0.11190   0.59013   0.00000  Uiso   1.00
C434   C     0.71651   0.09604   0.64747   0.00000  Uiso   1.00
C435   C     0.83418   0.05876   0.41904   0.00000  Uiso   1.00
C436   C     0.87881   0.05718   0.44682   0.00000  Uiso   1.00
C437   C     0.89974   0.01629   0.43864   0.00000  Uiso   1.00
H438   H     0.74484   0.00062   0.33112   0.00000  Uiso   1.00
H439   H     0.72501   0.03534   0.14194   0.00000  Uiso   1.00
H440   H     0.68869   0.00531   0.49253   0.00000  Uiso   1.00
H441   H     0.81440   0.95060   0.34924   0.00000  Uiso   1.00
H442   H     0.71312   0.09056   0.94753   0.00000  Uiso   1.00
H443   H     0.63654   0.02724   0.68679   0.00000  Uiso   1.00
H444   H     0.90162   0.91187   0.38464   0.00000  Uiso   1.00
H445   H     0.82270   0.12948   0.44909   0.00000  Uiso   1.00
H446   H     0.80714   0.17127   0.26638   0.00000  Uiso   1.00
H447   H     0.77082   0.14124   0.61697   0.00000  Uiso   1.00
H448   H     0.89653   0.08653   0.47368   0.00000  Uiso   1.00
H449   H     0.77977   0.20089   0.04853   0.00000  Uiso   1.00
H450   H     0.70320   0.13756   0.78779   0.00000  Uiso   1.00
H451   H     0.96828   0.02219   0.48564   0.00000  Uiso   1.00
O452   O     0.73479   0.17089   0.87572   0.00000  Uiso   1.00
O453   O     0.63433   0.08781   0.84561   0.00000  Uiso   1.00
O454   O     0.98211   0.93645   0.44919   0.00000  Uiso   1.00
N455   N     0.73095   0.11079   0.99636   0.00000  Uiso   1.00
N456   N     0.65935   0.05159   0.68752   0.00000  Uiso   1.00
N457   N     0.90717   0.94372   0.40506   0.00000  Uiso   1.00
N458   N     0.76682   0.17015   0.05071   0.00000  Uiso   1.00
N459   N     0.69521   0.11095   0.74187   0.00000  Uiso   1.00
N460   N     0.94304   0.00309   0.45941   0.00000  Uiso   1.00
C461   C     0.23732   0.96986   0.35814   0.00000  Uiso   1.00
C462   C     0.23730   0.93313   0.27171   0.00000  Uiso   1.00
C463   C     0.25726   0.93531   0.16877   0.00000  Uiso   1.00
C464   C     0.25350   0.89819   0.10169   0.00000  Uiso   1.00
C465   C     0.25696   0.84691   0.96223   0.00000  Uiso   1.00
C466   C     0.25704   0.94944   0.46219   0.00000  Uiso   1.00
C467   C     0.29359   0.96534   0.51941   0.00000  Uiso   1.00
C468   C     0.30644   0.94195   0.61269   0.00000  Uiso   1.00
C469   C     0.34053   0.91602   0.76899   0.00000  Uiso   1.00
C470   C     0.18873   0.97916   0.38433   0.00000  Uiso   1.00
C471   C     0.16786   0.02006   0.37611   0.00000  Uiso   1.00
C472   C     0.12321   0.02170   0.40385   0.00000  Uiso   1.00
C473   C     0.05125   0.04192   0.43926   0.00000  Uiso   1.00
C474   C     0.19514   0.90004   0.42206   0.00000  Uiso   1.00
C475   C     0.21439   0.89521   0.30643   0.00000  Uiso   1.00
C476   C     0.21059   0.85807   0.23949   0.00000  Uiso   1.00
C477   C     0.23054   0.86020   0.13647   0.00000  Uiso   1.00
C478   C     0.23413   0.91152   0.49691   0.00000  Uiso   1.00
C479   C     0.24692   0.88810   0.59013   0.00000  Uiso   1.00
C480   C     0.28349   0.90396   0.64747   0.00000  Uiso   1.00
C481   C     0.16582   0.94124   0.41904   0.00000  Uiso   1.00
C482   C     0.12119   0.94282   0.44682   0.00000  Uiso   1.00
C483   C     0.10026   0.98371   0.43864   0.00000  Uiso   1.00
H484   H     0.25516   0.99938   0.33112   0.00000  Uiso   1.00
H485   H     0.27499   0.96466   0.14194   0.00000  Uiso   1.00
H486   H     0.31131   0.99469   0.49253   0.00000  Uiso   1.00
H487   H     0.18560   0.04940   0.34924   0.00000  Uiso   1.00
H488   H     0.28688   0.90944   0.94753   0.00000  Uiso   1.00
H489   H     0.36346   0.97276   0.68679   0.00000  Uiso   1.00
H490   H     0.09838   0.08813   0.38464   0.00000  Uiso   1.00
H491   H     0.17730   0.87052   0.44909   0.00000  Uiso   1.00
H492   H     0.19286   0.82873   0.26638   0.00000  Uiso   1.00
H493   H     0.22918   0.85876   0.61697   0.00000  Uiso   1.00
H494   H     0.10347   0.91347   0.47368   0.00000  Uiso   1.00
H495   H     0.22023   0.79911   0.04853   0.00000  Uiso   1.00
H496   H     0.29680   0.86244   0.78779   0.00000  Uiso   1.00
H497   H     0.03172   0.97781   0.48564   0.00000  Uiso   1.00
O498   O     0.26521   0.82911   0.87572   0.00000  Uiso   1.00
O499   O     0.36567   0.91219   0.84561   0.00000  Uiso   1.00
O500   O     0.01789   0.06355   0.44919   0.00000  Uiso   1.00
N501   N     0.26905   0.88921   0.99636   0.00000  Uiso   1.00
N502   N     0.34065   0.94841   0.68752   0.00000  Uiso   1.00
N503   N     0.09283   0.05628   0.40506   0.00000  Uiso   1.00
N504   N     0.23318   0.82985   0.05071   0.00000  Uiso   1.00
N505   N     0.30479   0.88905   0.74187   0.00000  Uiso   1.00
N506   N     0.05696   0.99691   0.45941   0.00000  Uiso   1.00
C507   C     0.73732   0.46986   0.85814   0.00000  Uiso   1.00
C508   C     0.73730   0.43313   0.77171   0.00000  Uiso   1.00
C509   C     0.75726   0.43531   0.66877   0.00000  Uiso   1.00
C510   C     0.75350   0.39819   0.60169   0.00000  Uiso   1.00
C511   C     0.75696   0.34691   0.46223   0.00000  Uiso   1.00
C512   C     0.75704   0.44944   0.96219   0.00000  Uiso   1.00
C513   C     0.79359   0.46534   0.01941   0.00000  Uiso   1.00
C514   C     0.80644   0.44195   0.11269   0.00000  Uiso   1.00
C515   C     0.84053   0.41602   0.26899   0.00000  Uiso   1.00
C516   C     0.68873   0.47916   0.88433   0.00000  Uiso   1.00
C517   C     0.66786   0.52006   0.87611   0.00000  Uiso   1.00
C518   C     0.62321   0.52170   0.90385   0.00000  Uiso   1.00
C519   C     0.55125   0.54192   0.93926   0.00000  Uiso   1.00
C520   C     0.69514   0.40004   0.92206   0.00000  Uiso   1.00
C521   C     0.71439   0.39521   0.80643   0.00000  Uiso   1.00
C522   C     0.71059   0.35807   0.73949   0.00000  Uiso   1.00
C523   C     0.73054   0.36020   0.63647   0.00000  Uiso   1.00
C524   C     0.73413   0.41152   0.99691   0.00000  Uiso   1.00
C525   C     0.74692   0.38810   0.09013   0.00000  Uiso   1.00
C526   C     0.78349   0.40396   0.14747   0.00000  Uiso   1.00
C527   C     0.66582   0.44124   0.91904   0.00000  Uiso   1.00
C528   C     0.62119   0.44282   0.94682   0.00000  Uiso   1.00
C529   C     0.60026   0.48371   0.93864   0.00000  Uiso   1.00
H530   H     0.75516   0.49938   0.83112   0.00000  Uiso   1.00
H531   H     0.77499   0.46466   0.64194   0.00000  Uiso   1.00
H532   H     0.81131   0.49469   0.99253   0.00000  Uiso   1.00
H533   H     0.68560   0.54940   0.84924   0.00000  Uiso   1.00
H534   H     0.78688   0.40944   0.44753   0.00000  Uiso   1.00
H535   H     0.86346   0.47276   0.18679   0.00000  Uiso   1.00
H536   H     0.59838   0.58813   0.88464   0.00000  Uiso   1.00
H537   H     0.67730   0.37052   0.94909   0.00000  Uiso   1.00
H538   H     0.69286   0.32873   0.76638   0.00000  Uiso   1.00
H539   H     0.72918   0.35876   0.11697   0.00000  Uiso   1.00
H540   H     0.60347   0.41347   0.97368   0.00000  Uiso   1.00
H541   H     0.72023   0.29911   0.54853   0.00000  Uiso   1.00
H542   H     0.79680   0.36244   0.28779   0.00000  Uiso   1.00
H543   H     0.53172   0.47781   0.98564   0.00000  Uiso   1.00
O544   O     0.76521   0.32911   0.37572   0.00000  Uiso   1.00
O545   O     0.86567   0.41219   0.34561   0.00000  Uiso   1.00
O546   O     0.51789   0.56355   0.94919   0.00000  Uiso   1.00
N547   N     0.76905   0.38921   0.49636   0.00000  Uiso   1.00
N548   N     0.84065   0.44841   0.18752   0.00000  Uiso   1.00
N549   N     0.59283   0.55628   0.90506   0.00000  Uiso   1.00
N550   N     0.73318   0.32985   0.55071   0.00000  Uiso   1.00
N551   N     0.80479   0.38905   0.24187   0.00000  Uiso   1.00
N552   N     0.55696   0.49691   0.95941   0.00000  Uiso   1.00
C553   C     0.53014   0.23732   0.10814   0.00000  Uiso   1.00
C554   C     0.56687   0.23730   0.02171   0.00000  Uiso   1.00
C555   C     0.56469   0.25726   0.91877   0.00000  Uiso   1.00
C556   C     0.60181   0.25350   0.85169   0.00000  Uiso   1.00
C557   C     0.65309   0.25696   0.71223   0.00000  Uiso   1.00
C558   C     0.55056   0.25704   0.21219   0.00000  Uiso   1.00
C559   C     0.53466   0.29359   0.26941   0.00000  Uiso   1.00
C560   C     0.55805   0.30644   0.36269   0.00000  Uiso   1.00
C561   C     0.58398   0.34053   0.51899   0.00000  Uiso   1.00
C562   C     0.52084   0.18873   0.13433   0.00000  Uiso   1.00
C563   C     0.47994   0.16786   0.12611   0.00000  Uiso   1.00
C564   C     0.47830   0.12321   0.15385   0.00000  Uiso   1.00
C565   C     0.45808   0.05125   0.18926   0.00000  Uiso   1.00
C566   C     0.59996   0.19514   0.17206   0.00000  Uiso   1.00
C567   C     0.60479   0.21439   0.05643   0.00000  Uiso   1.00
C568   C     0.64193   0.21059   0.98949   0.00000  Uiso   1.00
C569   C     0.63980   0.23054   0.88647   0.00000  Uiso   1.00
C570   C     0.58848   0.23413   0.24691   0.00000  Uiso   1.00
C571   C     0.61190   0.24692   0.34013   0.00000  Uiso   1.00
C572   C     0.59604   0.28349   0.39747   0.00000  Uiso   1.00
C573   C     0.55876   0.16582   0.16904   0.00000  Uiso   1.00
C574   C     0.55718   0.12119   0.19682   0.00000  Uiso   1.00
C575   C     0.51629   0.10026   0.18864   0.00000  Uiso   1.00
H576   H     0.50062   0.25516   0.08112   0.00000  Uiso   1.00
H577   H     0.53534   0.27499   0.89194   0.00000  Uiso   1.00
H578   H     0.50531   0.31131   0.24253   0.00000  Uiso   1.00
H579   H     0.45060   0.18560   0.09924   0.00000  Uiso   1.00
H580   H     0.59056   0.28688   0.69753   0.00000  Uiso   1.00
H581   H     0.52724   0.36346   0.43679   0.00000  Uiso   1.00
H582   H     0.41187   0.09838   0.13464   0.00000  Uiso   1.00
H583   H     0.62948   0.17730   0.19909   0.00000  Uiso   1.00
H584   H     0.67127   0.19286   0.01638   0.00000  Uiso   1.00
H585   H     0.64124   0.22918   0.36697   0.00000  Uiso   1.00
H586   H     0.58653   0.10347   0.22368   0.00000  Uiso   1.00
H587   H     0.70089   0.22023   0.79853   0.00000  Uiso   1.00
H588   H     0.63756   0.29680   0.53779   0.00000  Uiso   1.00
H589   H     0.52219   0.03172   0.23564   0.00000  Uiso   1.00
O590   O     0.67089   0.26521   0.62572   0.00000  Uiso   1.00
O591   O     0.58781   0.36567   0.59561   0.00000  Uiso   1.00
O592   O     0.43645   0.01789   0.19919   0.00000  Uiso   1.00
N593   N     0.61079   0.26905   0.74636   0.00000  Uiso   1.00
N594   N     0.55159   0.34065   0.43752   0.00000  Uiso   1.00
N595   N     0.44372   0.09283   0.15506   0.00000  Uiso   1.00
N596   N     0.67015   0.23318   0.80071   0.00000  Uiso   1.00
N597   N     0.61095   0.30479   0.49187   0.00000  Uiso   1.00
N598   N     0.50309   0.05696   0.20941   0.00000  Uiso   1.00
C599   C     0.03014   0.73732   0.60814   0.00000  Uiso   1.00
C600   C     0.06687   0.73730   0.52171   0.00000  Uiso   1.00
C601   C     0.06469   0.75726   0.41877   0.00000  Uiso   1.00
C602   C     0.10181   0.75350   0.35169   0.00000  Uiso   1.00
C603   C     0.15309   0.75696   0.21223   0.00000  Uiso   1.00
C604   C     0.05056   0.75704   0.71219   0.00000  Uiso   1.00
C605   C     0.03466   0.79359   0.76941   0.00000  Uiso   1.00
C606   C     0.05805   0.80644   0.86269   0.00000  Uiso   1.00
C607   C     0.08398   0.84053   0.01899   0.00000  Uiso   1.00
C608   C     0.02084   0.68873   0.63433   0.00000  Uiso   1.00
C609   C     0.97994   0.66786   0.62611   0.00000  Uiso   1.00
C610   C     0.97830   0.62321   0.65385   0.00000  Uiso   1.00
C611   C     0.95808   0.55125   0.68926   0.00000  Uiso   1.00
C612   C     0.09996   0.69514   0.67206   0.00000  Uiso   1.00
C613   C     0.10479   0.71439   0.55643   0.00000  Uiso   1.00
C614   C     0.14193   0.71059   0.48949   0.00000  Uiso   1.00
C615   C     0.13980   0.73054   0.38647   0.00000  Uiso   1.00
C616   C     0.08848   0.73413   0.74691   0.00000  Uiso   1.00
C617   C     0.11190   0.74692   0.84013   0.00000  Uiso   1.00
C618   C     0.09604   0.78349   0.89747   0.00000  Uiso   1.00
C619   C     0.05876   0.66582   0.66904   0.00000  Uiso   1.00
C620   C     0.05718   0.62119   0.69682   0.00000  Uiso   1.00
C621   C     0.01629   0.60026   0.68864   0.00000  Uiso   1.00
H622   H     0.00062   0.75516   0.58112   0.00000  Uiso   1.00
H623   H     0.03534   0.77499   0.39194   0.00000  Uiso   1.00
H624   H     0.00531   0.81131   0.74253   0.00000  Uiso   1.00
H625   H     0.95060   0.68560   0.59924   0.00000  Uiso   1.00
H626   H     0.09056   0.78688   0.19753   0.00000  Uiso   1.00
H627   H     0.02724   0.86346   0.93679   0.00000  Uiso   1.00
H628   H     0.91187   0.59838   0.63464   0.00000  Uiso   1.00
H629   H     0.12948   0.67730   0.69909   0.00000  Uiso   1.00
H630   H     0.17127   0.69286   0.51638   0.00000  Uiso   1.00
H631   H     0.14124   0.72918   0.86697   0.00000  Uiso   1.00
H632   H     0.08653   0.60347   0.72368   0.00000  Uiso   1.00
H633   H     0.20089   0.72023   0.29853   0.00000  Uiso   1.00
H634   H     0.13756   0.79680   0.03779   0.00000  Uiso   1.00
H635   H     0.02219   0.53172   0.73564   0.00000  Uiso   1.00
O636   O     0.17089   0.76521   0.12572   0.00000  Uiso   1.00
O637   O     0.08781   0.86567   0.09561   0.00000  Uiso   1.00
O638   O     0.93645   0.51789   0.69919   0.00000  Uiso   1.00
N639   N     0.11079   0.76905   0.24636   0.00000  Uiso   1.00
N640   N     0.05159   0.84065   0.93752   0.00000  Uiso   1.00
N641   N     0.94372   0.59283   0.65506   0.00000  Uiso   1.00
N642   N     0.17015   0.73318   0.30071   0.00000  Uiso   1.00
N643   N     0.11095   0.80479   0.99187   0.00000  Uiso   1.00
N644   N     0.00309   0.55696   0.70941   0.00000  Uiso   1.00
C645   C     0.96986   0.26268   0.60814   0.00000  Uiso   1.00
C646   C     0.93313   0.26270   0.52171   0.00000  Uiso   1.00
C647   C     0.93531   0.24274   0.41877   0.00000  Uiso   1.00
C648   C     0.89819   0.24650   0.35169   0.00000  Uiso   1.00
C649   C     0.84691   0.24304   0.21223   0.00000  Uiso   1.00
C650   C     0.94944   0.24296   0.71219   0.00000  Uiso   1.00
C651   C     0.96534   0.20641   0.76941   0.00000  Uiso   1.00
C652   C     0.94195   0.19356   0.86269   0.00000  Uiso   1.00
C653   C     0.91602   0.15947   0.01899   0.00000  Uiso   1.00
C654   C     0.97916   0.31127   0.63433   0.00000  Uiso   1.00
C655   C     0.02006   0.33214   0.62611   0.00000  Uiso   1.00
C656   C     0.02170   0.37679   0.65385   0.00000  Uiso   1.00
C657   C     0.04192   0.44875   0.68926   0.00000  Uiso   1.00
C658   C     0.90004   0.30486   0.67206   0.00000  Uiso   1.00
C659   C     0.89521   0.28561   0.55643   0.00000  Uiso   1.00
C660   C     0.85807   0.28941   0.48949   0.00000  Uiso   1.00
C661   C     0.86020   0.26946   0.38647   0.00000  Uiso   1.00
C662   C     0.91152   0.26587   0.74691   0.00000  Uiso   1.00
C663   C     0.88810   0.25308   0.84013   0.00000  Uiso   1.00
C664   C     0.90396   0.21651   0.89747   0.00000  Uiso   1.00
C665   C     0.94124   0.33418   0.66904   0.00000  Uiso   1.00
C666   C     0.94282   0.37881   0.69682   0.00000  Uiso   1.00
C667   C     0.98371   0.39974   0.68864   0.00000  Uiso   1.00
H668   H     0.99938   0.24484   0.58112   0.00000  Uiso   1.00
H669   H     0.96466   0.22501   0.39194   0.00000  Uiso   1.00
H670   H     0.99469   0.18869   0.74253   0.00000  Uiso   1.00
H671   H     0.04940   0.31440   0.59924   0.00000  Uiso   1.00
H672   H     0.90944   0.21312   0.19753   0.00000  Uiso   1.00
H673   H     0.97276   0.13654   0.93679   0.00000  Uiso   1.00
H674   H     0.08813   0.40162   0.63464   0.00000  Uiso   1.00
H675   H     0.87052   0.32270   0.69909   0.00000  Uiso   1.00
H676   H     0.82873   0.30714   0.51638   0.00000  Uiso   1.00
H677   H     0.85876   0.27082   0.86697   0.00000  Uiso   1.00
H678   H     0.91347   0.39653   0.72368   0.00000  Uiso   1.00
H679   H     0.79911   0.27977   0.29853   0.00000  Uiso   1.00
H680   H     0.86244   0.20320   0.03779   0.00000  Uiso   1.00
H681   H     0.97781   0.46828   0.73564   0.00000  Uiso   1.00
O682   O     0.82911   0.23479   0.12572   0.00000  Uiso   1.00
O683   O     0.91219   0.13433   0.09561   0.00000  Uiso   1.00
O684   O     0.06355   0.48211   0.69919   0.00000  Uiso   1.00
N685   N     0.88921   0.23095   0.24636   0.00000  Uiso   1.00
N686   N     0.94841   0.15935   0.93752   0.00000  Uiso   1.00
N687   N     0.05628   0.40717   0.65506   0.00000  Uiso   1.00
N688   N     0.82985   0.26682   0.30071   0.00000  Uiso   1.00
N689   N     0.88905   0.19521   0.99187   0.00000  Uiso   1.00
N690   N     0.99691   0.44304   0.70941   0.00000  Uiso   1.00
C691   C     0.46986   0.76268   0.10814   0.00000  Uiso   1.00
C692   C     0.43313   0.76270   0.02171   0.00000  Uiso   1.00
C693   C     0.43531   0.74274   0.91877   0.00000  Uiso   1.00
C694   C     0.39819   0.74650   0.85169   0.00000  Uiso   1.00
C695   C     0.34691   0.74304   0.71223   0.00000  Uiso   1.00
C696   C     0.44944   0.74296   0.21219   0.00000  Uiso   1.00
C697   C     0.46534   0.70641   0.26941   0.00000  Uiso   1.00
C698   C     0.44195   0.69356   0.36269   0.00000  Uiso   1.00
C699   C     0.41602   0.65947   0.51899   0.00000  Uiso   1.00
C700   C     0.47916   0.81127   0.13433   0.00000  Uiso   1.00
C701   C     0.52006   0.83214   0.12611   0.00000  Uiso   1.00
C702   C     0.52170   0.87679   0.15385   0.00000  Uiso   1.00
C703   C     0.54192   0.94875   0.18926   0.00000  Uiso   1.00
C704   C     0.40004   0.80486   0.17206   0.00000  Uiso   1.00
C705   C     0.39521   0.78561   0.05643   0.00000  Uiso   1.00
C706   C     0.35807   0.78941   0.98949   0.00000  Uiso   1.00
C707   C     0.36020   0.76946   0.88647   0.00000  Uiso   1.00
C708   C     0.41152   0.76587   0.24691   0.00000  Uiso   1.00
C709   C     0.38810   0.75308   0.34013   0.00000  Uiso   1.00
C710   C     0.40396   0.71651   0.39747   0.00000  Uiso   1.00
C711   C     0.44124   0.83418   0.16904   0.00000  Uiso   1.00
C712   C     0.44282   0.87881   0.19682   0.00000  Uiso   1.00
C713   C     0.48371   0.89974   0.18864   0.00000  Uiso   1.00
H714   H     0.49938   0.74484   0.08112   0.00000  Uiso   1.00
H715   H     0.46466   0.72501   0.89194   0.00000  Uiso   1.00
H716   H     0.49469   0.68869   0.24253   0.00000  Uiso   1.00
H717   H     0.54940   0.81440   0.09924   0.00000  Uiso   1.00
H718   H     0.40944   0.71312   0.69753   0.00000  Uiso   1.00
H719   H     0.47276   0.63654   0.43679   0.00000  Uiso   1.00
H720   H     0.58813   0.90162   0.13464   0.00000  Uiso   1.00
H721   H     0.37052   0.82270   0.19909   0.00000  Uiso   1.00
H722   H     0.32873   0.80714   0.01638   0.00000  Uiso   1.00
H723   H     0.35876   0.77082   0.36697   0.00000  Uiso   1.00
H724   H     0.41347   0.89653   0.22368   0.00000  Uiso   1.00
H725   H     0.29911   0.77977   0.79853   0.00000  Uiso   1.00
H726   H     0.36244   0.70320   0.53779   0.00000  Uiso   1.00
H727   H     0.47781   0.96828   0.23564   0.00000  Uiso   1.00
O728   O     0.32911   0.73479   0.62572   0.00000  Uiso   1.00
O729   O     0.41219   0.63433   0.59561   0.00000  Uiso   1.00
O730   O     0.56355   0.98211   0.19919   0.00000  Uiso   1.00
N731   N     0.38921   0.73095   0.74636   0.00000  Uiso   1.00
N732   N     0.44841   0.65935   0.43752   0.00000  Uiso   1.00
N733   N     0.55628   0.90717   0.15506   0.00000  Uiso   1.00
N734   N     0.32985   0.76682   0.80071   0.00000  Uiso   1.00
N735   N     0.38905   0.69521   0.49187   0.00000  Uiso   1.00
N736   N     0.49691   0.94304   0.20941   0.00000  Uiso   1.00
