data_job_03013
_audit_creation_date              2018-12-19
_audit_creation_method            'Materials Studio'
_symmetry_space_group_name_H-M    'P1'
_symmetry_Int_Tables_number       1
_symmetry_cell_setting            triclinic
loop_
_symmetry_equiv_pos_as_xyz
  x,y,z
_cell_length_a                    21.0073
_cell_length_b                    20.4577
_cell_length_c                    25.3648
_cell_angle_alpha                 90.0000
_cell_angle_beta                  90.0000
_cell_angle_gamma                 90.0000
loop_
_atom_site_label
_atom_site_type_symbol
_atom_site_fract_x
_atom_site_fract_y
_atom_site_fract_z
_atom_site_U_iso_or_equiv
_atom_site_adp_type
_atom_site_occupancy
C1     C     0.40603   0.02138   0.32683   0.00000  Uiso   1.00
C2     C     0.40046   0.95486   0.35357   0.00000  Uiso   1.00
C3     C     0.42060   0.89572   0.33260   0.00000  Uiso   1.00
C4     C     0.41124   0.84033   0.36326   0.00000  Uiso   1.00
C5     C     0.40689   0.73648   0.39720   0.00000  Uiso   1.00
C6     C     0.33872   0.04916   0.32483   0.00000  Uiso   1.00
C7     C     0.30695   0.06931   0.27969   0.00000  Uiso   1.00
C8     C     0.24562   0.09331   0.28616   0.00000  Uiso   1.00
C9     C     0.14543   0.13592   0.27548   0.00000  Uiso   1.00
C10    C     0.44299   0.06476   0.36494   0.00000  Uiso   1.00
C11    C     0.49889   0.09804   0.35353   0.00000  Uiso   1.00
C12    C     0.52534   0.13518   0.39377   0.00000  Uiso   1.00
C13    C     0.58705   0.20200   0.44537   0.00000  Uiso   1.00
C14    C     0.35361   0.02818   0.41857   0.00000  Uiso   1.00
C15    C     0.37198   0.95856   0.40340   0.00000  Uiso   1.00
C16    C     0.36260   0.90324   0.43411   0.00000  Uiso   1.00
C17    C     0.38272   0.84403   0.41319   0.00000  Uiso   1.00
C18    C     0.31024   0.05286   0.37466   0.00000  Uiso   1.00
C19    C     0.24895   0.07684   0.38120   0.00000  Uiso   1.00
C20    C     0.21710   0.09701   0.33608   0.00000  Uiso   1.00
C21    C     0.41452   0.06845   0.41478   0.00000  Uiso   1.00
C22    C     0.44088   0.10556   0.45504   0.00000  Uiso   1.00
C23    C     0.49681   0.13888   0.44369   0.00000  Uiso   1.00
H24    H     0.42820   0.01850   0.28803   0.00000  Uiso   1.00
H25    H     0.44263   0.89288   0.29403   0.00000  Uiso   1.00
H26    H     0.32900   0.06646   0.24113   0.00000  Uiso   1.00
H27    H     0.52091   0.09517   0.31496   0.00000  Uiso   1.00
H28    H     0.44604   0.75523   0.32266   0.00000  Uiso   1.00
H29    H     0.20647   0.12124   0.21112   0.00000  Uiso   1.00
H30    H     0.61114   0.18179   0.36681   0.00000  Uiso   1.00
H31    H     0.33144   0.03105   0.45737   0.00000  Uiso   1.00
H32    H     0.34056   0.90612   0.47267   0.00000  Uiso   1.00
H33    H     0.22693   0.07969   0.41977   0.00000  Uiso   1.00
H34    H     0.41884   0.10840   0.49360   0.00000  Uiso   1.00
H35    H     0.36320   0.76597   0.46764   0.00000  Uiso   1.00
H36    H     0.12362   0.13199   0.35610   0.00000  Uiso   1.00
H37    H     0.52829   0.19253   0.51179   0.00000  Uiso   1.00
O38    O     0.41234   0.67819   0.40215   0.00000  Uiso   1.00
O39    O     0.09804   0.15839   0.25582   0.00000  Uiso   1.00
O40    O     0.62895   0.23783   0.46007   0.00000  Uiso   1.00
N41    N     0.42531   0.77491   0.35469   0.00000  Uiso   1.00
N42    N     0.20131   0.11710   0.25040   0.00000  Uiso   1.00
N43    N     0.57963   0.17372   0.39595   0.00000  Uiso   1.00
N44    N     0.38073   0.78069   0.43270   0.00000  Uiso   1.00
N45    N     0.15673   0.12288   0.32842   0.00000  Uiso   1.00
N46    N     0.53506   0.17950   0.47397   0.00000  Uiso   1.00
C47    C     0.90603   0.52138   0.82683   0.00000  Uiso   1.00
C48    C     0.90046   0.45486   0.85357   0.00000  Uiso   1.00
C49    C     0.92060   0.39572   0.83260   0.00000  Uiso   1.00
C50    C     0.91124   0.34033   0.86326   0.00000  Uiso   1.00
C51    C     0.90689   0.23648   0.89720   0.00000  Uiso   1.00
C52    C     0.83872   0.54916   0.82483   0.00000  Uiso   1.00
C53    C     0.80695   0.56931   0.77969   0.00000  Uiso   1.00
C54    C     0.74562   0.59331   0.78616   0.00000  Uiso   1.00
C55    C     0.64543   0.63592   0.77548   0.00000  Uiso   1.00
C56    C     0.94299   0.56476   0.86494   0.00000  Uiso   1.00
C57    C     0.99889   0.59804   0.85353   0.00000  Uiso   1.00
C58    C     0.02534   0.63518   0.89377   0.00000  Uiso   1.00
C59    C     0.08705   0.70200   0.94537   0.00000  Uiso   1.00
C60    C     0.85361   0.52818   0.91857   0.00000  Uiso   1.00
C61    C     0.87198   0.45856   0.90340   0.00000  Uiso   1.00
C62    C     0.86260   0.40324   0.93411   0.00000  Uiso   1.00
C63    C     0.88272   0.34403   0.91319   0.00000  Uiso   1.00
C64    C     0.81024   0.55286   0.87466   0.00000  Uiso   1.00
C65    C     0.74895   0.57684   0.88120   0.00000  Uiso   1.00
C66    C     0.71710   0.59701   0.83608   0.00000  Uiso   1.00
C67    C     0.91452   0.56845   0.91478   0.00000  Uiso   1.00
C68    C     0.94088   0.60556   0.95504   0.00000  Uiso   1.00
C69    C     0.99681   0.63888   0.94369   0.00000  Uiso   1.00
H70    H     0.92820   0.51850   0.78803   0.00000  Uiso   1.00
H71    H     0.94263   0.39288   0.79403   0.00000  Uiso   1.00
H72    H     0.82900   0.56646   0.74113   0.00000  Uiso   1.00
H73    H     0.02091   0.59517   0.81496   0.00000  Uiso   1.00
H74    H     0.94604   0.25523   0.82266   0.00000  Uiso   1.00
H75    H     0.70647   0.62124   0.71112   0.00000  Uiso   1.00
H76    H     0.11114   0.68179   0.86681   0.00000  Uiso   1.00
H77    H     0.83144   0.53105   0.95737   0.00000  Uiso   1.00
H78    H     0.84056   0.40612   0.97267   0.00000  Uiso   1.00
H79    H     0.72693   0.57969   0.91977   0.00000  Uiso   1.00
H80    H     0.91884   0.60840   0.99360   0.00000  Uiso   1.00
H81    H     0.86320   0.26597   0.96764   0.00000  Uiso   1.00
H82    H     0.62362   0.63199   0.85610   0.00000  Uiso   1.00
H83    H     0.02829   0.69253   0.01179   0.00000  Uiso   1.00
O84    O     0.91234   0.17819   0.90215   0.00000  Uiso   1.00
O85    O     0.59804   0.65839   0.75582   0.00000  Uiso   1.00
O86    O     0.12895   0.73783   0.96007   0.00000  Uiso   1.00
N87    N     0.92531   0.27491   0.85469   0.00000  Uiso   1.00
N88    N     0.70131   0.61710   0.75040   0.00000  Uiso   1.00
N89    N     0.07963   0.67372   0.89595   0.00000  Uiso   1.00
N90    N     0.88073   0.28069   0.93270   0.00000  Uiso   1.00
N91    N     0.65673   0.62288   0.82842   0.00000  Uiso   1.00
N92    N     0.03506   0.67950   0.97397   0.00000  Uiso   1.00
C93    C     0.09397   0.97862   0.82683   0.00000  Uiso   1.00
C94    C     0.09954   0.04514   0.85357   0.00000  Uiso   1.00
C95    C     0.07940   0.10428   0.83260   0.00000  Uiso   1.00
C96    C     0.08876   0.15967   0.86326   0.00000  Uiso   1.00
C97    C     0.09311   0.26352   0.89720   0.00000  Uiso   1.00
C98    C     0.16128   0.95084   0.82483   0.00000  Uiso   1.00
C99    C     0.19305   0.93069   0.77969   0.00000  Uiso   1.00
C100   C     0.25438   0.90669   0.78616   0.00000  Uiso   1.00
C101   C     0.35457   0.86408   0.77548   0.00000  Uiso   1.00
C102   C     0.05701   0.93524   0.86494   0.00000  Uiso   1.00
C103   C     0.00111   0.90196   0.85353   0.00000  Uiso   1.00
C104   C     0.97466   0.86482   0.89377   0.00000  Uiso   1.00
C105   C     0.91295   0.79800   0.94537   0.00000  Uiso   1.00
C106   C     0.14639   0.97182   0.91857   0.00000  Uiso   1.00
C107   C     0.12802   0.04144   0.90340   0.00000  Uiso   1.00
C108   C     0.13740   0.09676   0.93411   0.00000  Uiso   1.00
C109   C     0.11728   0.15597   0.91319   0.00000  Uiso   1.00
C110   C     0.18976   0.94714   0.87466   0.00000  Uiso   1.00
C111   C     0.25105   0.92316   0.88120   0.00000  Uiso   1.00
C112   C     0.28290   0.90299   0.83608   0.00000  Uiso   1.00
C113   C     0.08548   0.93155   0.91478   0.00000  Uiso   1.00
C114   C     0.05912   0.89444   0.95504   0.00000  Uiso   1.00
C115   C     0.00319   0.86112   0.94369   0.00000  Uiso   1.00
H116   H     0.07180   0.98150   0.78803   0.00000  Uiso   1.00
H117   H     0.05737   0.10712   0.79403   0.00000  Uiso   1.00
H118   H     0.17100   0.93354   0.74113   0.00000  Uiso   1.00
H119   H     0.97909   0.90483   0.81496   0.00000  Uiso   1.00
H120   H     0.05396   0.24477   0.82266   0.00000  Uiso   1.00
H121   H     0.29353   0.87876   0.71112   0.00000  Uiso   1.00
H122   H     0.88886   0.81821   0.86681   0.00000  Uiso   1.00
H123   H     0.16856   0.96895   0.95737   0.00000  Uiso   1.00
H124   H     0.15944   0.09388   0.97267   0.00000  Uiso   1.00
H125   H     0.27307   0.92031   0.91977   0.00000  Uiso   1.00
H126   H     0.08116   0.89160   0.99360   0.00000  Uiso   1.00
H127   H     0.13680   0.23403   0.96764   0.00000  Uiso   1.00
H128   H     0.37638   0.86801   0.85610   0.00000  Uiso   1.00
H129   H     0.97171   0.80747   0.01179   0.00000  Uiso   1.00
O130   O     0.08766   0.32181   0.90215   0.00000  Uiso   1.00
O131   O     0.40196   0.84161   0.75582   0.00000  Uiso   1.00
O132   O     0.87105   0.76217   0.96007   0.00000  Uiso   1.00
N133   N     0.07469   0.22509   0.85469   0.00000  Uiso   1.00
N134   N     0.29869   0.88290   0.75040   0.00000  Uiso   1.00
N135   N     0.92037   0.82628   0.89595   0.00000  Uiso   1.00
N136   N     0.11927   0.21931   0.93270   0.00000  Uiso   1.00
N137   N     0.34327   0.87712   0.82842   0.00000  Uiso   1.00
N138   N     0.96494   0.82050   0.97397   0.00000  Uiso   1.00
C139   C     0.59397   0.47862   0.32683   0.00000  Uiso   1.00
C140   C     0.59954   0.54514   0.35357   0.00000  Uiso   1.00
C141   C     0.57940   0.60428   0.33260   0.00000  Uiso   1.00
C142   C     0.58876   0.65967   0.36326   0.00000  Uiso   1.00
C143   C     0.59311   0.76352   0.39720   0.00000  Uiso   1.00
C144   C     0.66128   0.45084   0.32483   0.00000  Uiso   1.00
C145   C     0.69305   0.43069   0.27969   0.00000  Uiso   1.00
C146   C     0.75438   0.40669   0.28616   0.00000  Uiso   1.00
C147   C     0.85457   0.36408   0.27548   0.00000  Uiso   1.00
C148   C     0.55701   0.43524   0.36494   0.00000  Uiso   1.00
C149   C     0.50111   0.40196   0.35353   0.00000  Uiso   1.00
C150   C     0.47466   0.36482   0.39377   0.00000  Uiso   1.00
C151   C     0.41295   0.29800   0.44537   0.00000  Uiso   1.00
C152   C     0.64639   0.47182   0.41857   0.00000  Uiso   1.00
C153   C     0.62802   0.54144   0.40340   0.00000  Uiso   1.00
C154   C     0.63740   0.59676   0.43411   0.00000  Uiso   1.00
C155   C     0.61728   0.65597   0.41319   0.00000  Uiso   1.00
C156   C     0.68976   0.44714   0.37466   0.00000  Uiso   1.00
C157   C     0.75105   0.42316   0.38120   0.00000  Uiso   1.00
C158   C     0.78290   0.40299   0.33608   0.00000  Uiso   1.00
C159   C     0.58548   0.43155   0.41478   0.00000  Uiso   1.00
C160   C     0.55912   0.39444   0.45504   0.00000  Uiso   1.00
C161   C     0.50319   0.36112   0.44369   0.00000  Uiso   1.00
H162   H     0.57180   0.48150   0.28803   0.00000  Uiso   1.00
H163   H     0.55737   0.60712   0.29403   0.00000  Uiso   1.00
H164   H     0.67100   0.43354   0.24113   0.00000  Uiso   1.00
H165   H     0.47909   0.40483   0.31496   0.00000  Uiso   1.00
H166   H     0.55396   0.74477   0.32266   0.00000  Uiso   1.00
H167   H     0.79353   0.37876   0.21112   0.00000  Uiso   1.00
H168   H     0.38886   0.31821   0.36681   0.00000  Uiso   1.00
H169   H     0.66856   0.46895   0.45737   0.00000  Uiso   1.00
H170   H     0.65944   0.59388   0.47267   0.00000  Uiso   1.00
H171   H     0.77307   0.42031   0.41977   0.00000  Uiso   1.00
H172   H     0.58116   0.39160   0.49360   0.00000  Uiso   1.00
H173   H     0.63680   0.73403   0.46764   0.00000  Uiso   1.00
H174   H     0.87638   0.36801   0.35610   0.00000  Uiso   1.00
H175   H     0.47171   0.30747   0.51179   0.00000  Uiso   1.00
O176   O     0.58766   0.82181   0.40215   0.00000  Uiso   1.00
O177   O     0.90196   0.34161   0.25582   0.00000  Uiso   1.00
O178   O     0.37105   0.26217   0.46007   0.00000  Uiso   1.00
N179   N     0.57469   0.72509   0.35469   0.00000  Uiso   1.00
N180   N     0.79869   0.38290   0.25040   0.00000  Uiso   1.00
N181   N     0.42037   0.32628   0.39595   0.00000  Uiso   1.00
N182   N     0.61927   0.71931   0.43270   0.00000  Uiso   1.00
N183   N     0.84327   0.37712   0.32842   0.00000  Uiso   1.00
N184   N     0.46494   0.32050   0.47397   0.00000  Uiso   1.00
C185   C     0.59397   0.52138   0.17317   0.00000  Uiso   1.00
C186   C     0.59954   0.45486   0.14643   0.00000  Uiso   1.00
C187   C     0.57940   0.39572   0.16740   0.00000  Uiso   1.00
C188   C     0.58876   0.34033   0.13674   0.00000  Uiso   1.00
C189   C     0.59311   0.23648   0.10280   0.00000  Uiso   1.00
C190   C     0.66128   0.54916   0.17517   0.00000  Uiso   1.00
C191   C     0.69305   0.56931   0.22031   0.00000  Uiso   1.00
C192   C     0.75438   0.59331   0.21384   0.00000  Uiso   1.00
C193   C     0.85457   0.63592   0.22452   0.00000  Uiso   1.00
C194   C     0.55701   0.56476   0.13506   0.00000  Uiso   1.00
C195   C     0.50111   0.59804   0.14647   0.00000  Uiso   1.00
C196   C     0.47466   0.63518   0.10623   0.00000  Uiso   1.00
C197   C     0.41295   0.70200   0.05463   0.00000  Uiso   1.00
C198   C     0.64639   0.52818   0.08143   0.00000  Uiso   1.00
C199   C     0.62802   0.45856   0.09660   0.00000  Uiso   1.00
C200   C     0.63740   0.40324   0.06589   0.00000  Uiso   1.00
C201   C     0.61728   0.34403   0.08681   0.00000  Uiso   1.00
C202   C     0.68976   0.55286   0.12534   0.00000  Uiso   1.00
C203   C     0.75105   0.57684   0.11880   0.00000  Uiso   1.00
C204   C     0.78290   0.59701   0.16392   0.00000  Uiso   1.00
C205   C     0.58548   0.56845   0.08522   0.00000  Uiso   1.00
C206   C     0.55912   0.60556   0.04496   0.00000  Uiso   1.00
C207   C     0.50319   0.63888   0.05631   0.00000  Uiso   1.00
H208   H     0.57180   0.51850   0.21197   0.00000  Uiso   1.00
H209   H     0.55737   0.39288   0.20597   0.00000  Uiso   1.00
H210   H     0.67100   0.56646   0.25887   0.00000  Uiso   1.00
H211   H     0.47909   0.59517   0.18504   0.00000  Uiso   1.00
H212   H     0.55396   0.25523   0.17734   0.00000  Uiso   1.00
H213   H     0.79353   0.62124   0.28888   0.00000  Uiso   1.00
H214   H     0.38886   0.68179   0.13319   0.00000  Uiso   1.00
H215   H     0.66856   0.53105   0.04263   0.00000  Uiso   1.00
H216   H     0.65944   0.40612   0.02733   0.00000  Uiso   1.00
H217   H     0.77307   0.57969   0.08023   0.00000  Uiso   1.00
H218   H     0.58116   0.60840   0.00640   0.00000  Uiso   1.00
H219   H     0.63680   0.26597   0.03236   0.00000  Uiso   1.00
H220   H     0.87638   0.63199   0.14390   0.00000  Uiso   1.00
H221   H     0.47171   0.69253   0.98821   0.00000  Uiso   1.00
O222   O     0.58766   0.17819   0.09785   0.00000  Uiso   1.00
O223   O     0.90196   0.65839   0.24418   0.00000  Uiso   1.00
O224   O     0.37105   0.73783   0.03993   0.00000  Uiso   1.00
N225   N     0.57469   0.27491   0.14531   0.00000  Uiso   1.00
N226   N     0.79869   0.61710   0.24960   0.00000  Uiso   1.00
N227   N     0.42037   0.67372   0.10405   0.00000  Uiso   1.00
N228   N     0.61927   0.28069   0.06730   0.00000  Uiso   1.00
N229   N     0.84327   0.62288   0.17158   0.00000  Uiso   1.00
N230   N     0.46494   0.67950   0.02603   0.00000  Uiso   1.00
C231   C     0.09397   0.02138   0.67317   0.00000  Uiso   1.00
C232   C     0.09954   0.95486   0.64643   0.00000  Uiso   1.00
C233   C     0.07940   0.89572   0.66740   0.00000  Uiso   1.00
C234   C     0.08876   0.84033   0.63674   0.00000  Uiso   1.00
C235   C     0.09311   0.73648   0.60280   0.00000  Uiso   1.00
C236   C     0.16128   0.04916   0.67517   0.00000  Uiso   1.00
C237   C     0.19305   0.06931   0.72031   0.00000  Uiso   1.00
C238   C     0.25438   0.09331   0.71384   0.00000  Uiso   1.00
C239   C     0.35457   0.13592   0.72452   0.00000  Uiso   1.00
C240   C     0.05701   0.06476   0.63506   0.00000  Uiso   1.00
C241   C     0.00111   0.09804   0.64647   0.00000  Uiso   1.00
C242   C     0.97466   0.13518   0.60623   0.00000  Uiso   1.00
C243   C     0.91295   0.20200   0.55463   0.00000  Uiso   1.00
C244   C     0.14639   0.02818   0.58143   0.00000  Uiso   1.00
C245   C     0.12802   0.95856   0.59660   0.00000  Uiso   1.00
C246   C     0.13740   0.90324   0.56589   0.00000  Uiso   1.00
C247   C     0.11728   0.84403   0.58681   0.00000  Uiso   1.00
C248   C     0.18976   0.05286   0.62534   0.00000  Uiso   1.00
C249   C     0.25105   0.07684   0.61880   0.00000  Uiso   1.00
C250   C     0.28290   0.09701   0.66392   0.00000  Uiso   1.00
C251   C     0.08548   0.06845   0.58522   0.00000  Uiso   1.00
C252   C     0.05912   0.10556   0.54496   0.00000  Uiso   1.00
C253   C     0.00319   0.13888   0.55631   0.00000  Uiso   1.00
H254   H     0.07180   0.01850   0.71197   0.00000  Uiso   1.00
H255   H     0.05737   0.89288   0.70597   0.00000  Uiso   1.00
H256   H     0.17100   0.06646   0.75887   0.00000  Uiso   1.00
H257   H     0.97909   0.09517   0.68504   0.00000  Uiso   1.00
H258   H     0.05396   0.75523   0.67734   0.00000  Uiso   1.00
H259   H     0.29353   0.12124   0.78888   0.00000  Uiso   1.00
H260   H     0.88886   0.18179   0.63319   0.00000  Uiso   1.00
H261   H     0.16856   0.03105   0.54263   0.00000  Uiso   1.00
H262   H     0.15944   0.90612   0.52733   0.00000  Uiso   1.00
H263   H     0.27307   0.07969   0.58023   0.00000  Uiso   1.00
H264   H     0.08116   0.10840   0.50640   0.00000  Uiso   1.00
H265   H     0.13680   0.76597   0.53236   0.00000  Uiso   1.00
H266   H     0.37638   0.13199   0.64390   0.00000  Uiso   1.00
H267   H     0.97171   0.19253   0.48821   0.00000  Uiso   1.00
O268   O     0.08766   0.67819   0.59785   0.00000  Uiso   1.00
O269   O     0.40196   0.15839   0.74418   0.00000  Uiso   1.00
O270   O     0.87105   0.23783   0.53993   0.00000  Uiso   1.00
N271   N     0.07469   0.77491   0.64531   0.00000  Uiso   1.00
N272   N     0.29869   0.11710   0.74960   0.00000  Uiso   1.00
N273   N     0.92037   0.17372   0.60405   0.00000  Uiso   1.00
N274   N     0.11927   0.78069   0.56730   0.00000  Uiso   1.00
N275   N     0.34327   0.12288   0.67158   0.00000  Uiso   1.00
N276   N     0.96494   0.17950   0.52603   0.00000  Uiso   1.00
C277   C     0.90603   0.47862   0.67317   0.00000  Uiso   1.00
C278   C     0.90046   0.54514   0.64643   0.00000  Uiso   1.00
C279   C     0.92060   0.60428   0.66740   0.00000  Uiso   1.00
C280   C     0.91124   0.65967   0.63674   0.00000  Uiso   1.00
C281   C     0.90689   0.76352   0.60280   0.00000  Uiso   1.00
C282   C     0.83872   0.45084   0.67517   0.00000  Uiso   1.00
C283   C     0.80695   0.43069   0.72031   0.00000  Uiso   1.00
C284   C     0.74562   0.40669   0.71384   0.00000  Uiso   1.00
C285   C     0.64543   0.36408   0.72452   0.00000  Uiso   1.00
C286   C     0.94299   0.43524   0.63506   0.00000  Uiso   1.00
C287   C     0.99889   0.40196   0.64647   0.00000  Uiso   1.00
C288   C     0.02534   0.36482   0.60623   0.00000  Uiso   1.00
C289   C     0.08705   0.29800   0.55463   0.00000  Uiso   1.00
C290   C     0.85361   0.47182   0.58143   0.00000  Uiso   1.00
C291   C     0.87198   0.54144   0.59660   0.00000  Uiso   1.00
C292   C     0.86260   0.59676   0.56589   0.00000  Uiso   1.00
C293   C     0.88272   0.65597   0.58681   0.00000  Uiso   1.00
C294   C     0.81024   0.44714   0.62534   0.00000  Uiso   1.00
C295   C     0.74895   0.42316   0.61880   0.00000  Uiso   1.00
C296   C     0.71710   0.40299   0.66392   0.00000  Uiso   1.00
C297   C     0.91452   0.43155   0.58522   0.00000  Uiso   1.00
C298   C     0.94088   0.39444   0.54496   0.00000  Uiso   1.00
C299   C     0.99681   0.36112   0.55631   0.00000  Uiso   1.00
H300   H     0.92820   0.48150   0.71197   0.00000  Uiso   1.00
H301   H     0.94263   0.60712   0.70597   0.00000  Uiso   1.00
H302   H     0.82900   0.43354   0.75887   0.00000  Uiso   1.00
H303   H     0.02091   0.40483   0.68504   0.00000  Uiso   1.00
H304   H     0.94604   0.74477   0.67734   0.00000  Uiso   1.00
H305   H     0.70647   0.37876   0.78888   0.00000  Uiso   1.00
H306   H     0.11114   0.31821   0.63319   0.00000  Uiso   1.00
H307   H     0.83144   0.46895   0.54263   0.00000  Uiso   1.00
H308   H     0.84056   0.59388   0.52733   0.00000  Uiso   1.00
H309   H     0.72693   0.42031   0.58023   0.00000  Uiso   1.00
H310   H     0.91884   0.39160   0.50640   0.00000  Uiso   1.00
H311   H     0.86320   0.73403   0.53236   0.00000  Uiso   1.00
H312   H     0.62362   0.36801   0.64390   0.00000  Uiso   1.00
H313   H     0.02829   0.30747   0.48821   0.00000  Uiso   1.00
O314   O     0.91234   0.82181   0.59785   0.00000  Uiso   1.00
O315   O     0.59804   0.34161   0.74418   0.00000  Uiso   1.00
O316   O     0.12895   0.26217   0.53993   0.00000  Uiso   1.00
N317   N     0.92531   0.72509   0.64531   0.00000  Uiso   1.00
N318   N     0.70131   0.38290   0.74960   0.00000  Uiso   1.00
N319   N     0.07963   0.32628   0.60405   0.00000  Uiso   1.00
N320   N     0.88073   0.71931   0.56730   0.00000  Uiso   1.00
N321   N     0.65673   0.37712   0.67158   0.00000  Uiso   1.00
N322   N     0.03506   0.32050   0.52603   0.00000  Uiso   1.00
C323   C     0.40603   0.97862   0.17317   0.00000  Uiso   1.00
C324   C     0.40046   0.04514   0.14643   0.00000  Uiso   1.00
C325   C     0.42060   0.10428   0.16740   0.00000  Uiso   1.00
C326   C     0.41124   0.15967   0.13674   0.00000  Uiso   1.00
C327   C     0.40689   0.26352   0.10280   0.00000  Uiso   1.00
C328   C     0.33872   0.95084   0.17517   0.00000  Uiso   1.00
C329   C     0.30695   0.93069   0.22031   0.00000  Uiso   1.00
C330   C     0.24562   0.90669   0.21384   0.00000  Uiso   1.00
C331   C     0.14543   0.86408   0.22452   0.00000  Uiso   1.00
C332   C     0.44299   0.93524   0.13506   0.00000  Uiso   1.00
C333   C     0.49889   0.90196   0.14647   0.00000  Uiso   1.00
C334   C     0.52534   0.86482   0.10623   0.00000  Uiso   1.00
C335   C     0.58705   0.79800   0.05463   0.00000  Uiso   1.00
C336   C     0.35361   0.97182   0.08143   0.00000  Uiso   1.00
C337   C     0.37198   0.04144   0.09660   0.00000  Uiso   1.00
C338   C     0.36260   0.09676   0.06589   0.00000  Uiso   1.00
C339   C     0.38272   0.15597   0.08681   0.00000  Uiso   1.00
C340   C     0.31024   0.94714   0.12534   0.00000  Uiso   1.00
C341   C     0.24895   0.92316   0.11880   0.00000  Uiso   1.00
C342   C     0.21710   0.90299   0.16392   0.00000  Uiso   1.00
C343   C     0.41452   0.93155   0.08522   0.00000  Uiso   1.00
C344   C     0.44088   0.89444   0.04496   0.00000  Uiso   1.00
C345   C     0.49681   0.86112   0.05631   0.00000  Uiso   1.00
H346   H     0.42820   0.98150   0.21197   0.00000  Uiso   1.00
H347   H     0.44263   0.10712   0.20597   0.00000  Uiso   1.00
H348   H     0.32900   0.93354   0.25887   0.00000  Uiso   1.00
H349   H     0.52091   0.90483   0.18504   0.00000  Uiso   1.00
H350   H     0.44604   0.24477   0.17734   0.00000  Uiso   1.00
H351   H     0.20647   0.87876   0.28888   0.00000  Uiso   1.00
H352   H     0.61114   0.81821   0.13319   0.00000  Uiso   1.00
H353   H     0.33144   0.96895   0.04263   0.00000  Uiso   1.00
H354   H     0.34056   0.09388   0.02733   0.00000  Uiso   1.00
H355   H     0.22693   0.92031   0.08023   0.00000  Uiso   1.00
H356   H     0.41884   0.89160   0.00640   0.00000  Uiso   1.00
H357   H     0.36320   0.23403   0.03236   0.00000  Uiso   1.00
H358   H     0.12362   0.86801   0.14390   0.00000  Uiso   1.00
H359   H     0.52829   0.80747   0.98821   0.00000  Uiso   1.00
O360   O     0.41234   0.32181   0.09785   0.00000  Uiso   1.00
O361   O     0.09804   0.84161   0.24418   0.00000  Uiso   1.00
O362   O     0.62895   0.76217   0.03993   0.00000  Uiso   1.00
N363   N     0.42531   0.22509   0.14531   0.00000  Uiso   1.00
N364   N     0.20131   0.88290   0.24960   0.00000  Uiso   1.00
N365   N     0.57963   0.82628   0.10405   0.00000  Uiso   1.00
N366   N     0.38073   0.21931   0.06730   0.00000  Uiso   1.00
N367   N     0.15673   0.87712   0.17158   0.00000  Uiso   1.00
N368   N     0.53506   0.82050   0.02603   0.00000  Uiso   1.00
C369   C     0.59397   0.97862   0.67317   0.00000  Uiso   1.00
C370   C     0.59954   0.04514   0.64643   0.00000  Uiso   1.00
C371   C     0.57940   0.10428   0.66740   0.00000  Uiso   1.00
C372   C     0.58876   0.15967   0.63674   0.00000  Uiso   1.00
C373   C     0.59311   0.26352   0.60280   0.00000  Uiso   1.00
C374   C     0.66128   0.95084   0.67517   0.00000  Uiso   1.00
C375   C     0.69305   0.93069   0.72031   0.00000  Uiso   1.00
C376   C     0.75438   0.90669   0.71384   0.00000  Uiso   1.00
C377   C     0.85457   0.86408   0.72452   0.00000  Uiso   1.00
C378   C     0.55701   0.93524   0.63506   0.00000  Uiso   1.00
C379   C     0.50111   0.90196   0.64647   0.00000  Uiso   1.00
C380   C     0.47466   0.86482   0.60623   0.00000  Uiso   1.00
C381   C     0.41295   0.79800   0.55463   0.00000  Uiso   1.00
C382   C     0.64639   0.97182   0.58143   0.00000  Uiso   1.00
C383   C     0.62802   0.04144   0.59660   0.00000  Uiso   1.00
C384   C     0.63740   0.09676   0.56589   0.00000  Uiso   1.00
C385   C     0.61728   0.15597   0.58681   0.00000  Uiso   1.00
C386   C     0.68976   0.94714   0.62534   0.00000  Uiso   1.00
C387   C     0.75105   0.92316   0.61880   0.00000  Uiso   1.00
C388   C     0.78290   0.90299   0.66392   0.00000  Uiso   1.00
C389   C     0.58548   0.93155   0.58522   0.00000  Uiso   1.00
C390   C     0.55912   0.89444   0.54496   0.00000  Uiso   1.00
C391   C     0.50319   0.86112   0.55631   0.00000  Uiso   1.00
H392   H     0.57180   0.98150   0.71197   0.00000  Uiso   1.00
H393   H     0.55737   0.10712   0.70597   0.00000  Uiso   1.00
H394   H     0.67100   0.93354   0.75887   0.00000  Uiso   1.00
H395   H     0.47909   0.90483   0.68504   0.00000  Uiso   1.00
H396   H     0.55396   0.24477   0.67734   0.00000  Uiso   1.00
H397   H     0.79353   0.87876   0.78888   0.00000  Uiso   1.00
H398   H     0.38886   0.81821   0.63319   0.00000  Uiso   1.00
H399   H     0.66856   0.96895   0.54263   0.00000  Uiso   1.00
H400   H     0.65944   0.09388   0.52733   0.00000  Uiso   1.00
H401   H     0.77307   0.92031   0.58023   0.00000  Uiso   1.00
H402   H     0.58116   0.89160   0.50640   0.00000  Uiso   1.00
H403   H     0.63680   0.23403   0.53236   0.00000  Uiso   1.00
H404   H     0.87638   0.86801   0.64390   0.00000  Uiso   1.00
H405   H     0.47171   0.80747   0.48821   0.00000  Uiso   1.00
O406   O     0.58766   0.32181   0.59785   0.00000  Uiso   1.00
O407   O     0.90196   0.84161   0.74418   0.00000  Uiso   1.00
O408   O     0.37105   0.76217   0.53993   0.00000  Uiso   1.00
N409   N     0.57469   0.22509   0.64531   0.00000  Uiso   1.00
N410   N     0.79869   0.88290   0.74960   0.00000  Uiso   1.00
N411   N     0.42037   0.82628   0.60405   0.00000  Uiso   1.00
N412   N     0.61927   0.21931   0.56730   0.00000  Uiso   1.00
N413   N     0.84327   0.87712   0.67158   0.00000  Uiso   1.00
N414   N     0.46494   0.82050   0.52603   0.00000  Uiso   1.00
C415   C     0.09397   0.47862   0.17317   0.00000  Uiso   1.00
C416   C     0.09954   0.54514   0.14643   0.00000  Uiso   1.00
C417   C     0.07940   0.60428   0.16740   0.00000  Uiso   1.00
C418   C     0.08876   0.65967   0.13674   0.00000  Uiso   1.00
C419   C     0.09311   0.76352   0.10280   0.00000  Uiso   1.00
C420   C     0.16128   0.45084   0.17517   0.00000  Uiso   1.00
C421   C     0.19305   0.43069   0.22031   0.00000  Uiso   1.00
C422   C     0.25438   0.40669   0.21384   0.00000  Uiso   1.00
C423   C     0.35457   0.36408   0.22452   0.00000  Uiso   1.00
C424   C     0.05701   0.43524   0.13506   0.00000  Uiso   1.00
C425   C     0.00111   0.40196   0.14647   0.00000  Uiso   1.00
C426   C     0.97466   0.36482   0.10623   0.00000  Uiso   1.00
C427   C     0.91295   0.29800   0.05463   0.00000  Uiso   1.00
C428   C     0.14639   0.47182   0.08143   0.00000  Uiso   1.00
C429   C     0.12802   0.54144   0.09660   0.00000  Uiso   1.00
C430   C     0.13740   0.59676   0.06589   0.00000  Uiso   1.00
C431   C     0.11728   0.65597   0.08681   0.00000  Uiso   1.00
C432   C     0.18976   0.44714   0.12534   0.00000  Uiso   1.00
C433   C     0.25105   0.42316   0.11880   0.00000  Uiso   1.00
C434   C     0.28290   0.40299   0.16392   0.00000  Uiso   1.00
C435   C     0.08548   0.43155   0.08522   0.00000  Uiso   1.00
C436   C     0.05912   0.39444   0.04496   0.00000  Uiso   1.00
C437   C     0.00319   0.36112   0.05631   0.00000  Uiso   1.00
H438   H     0.07180   0.48150   0.21197   0.00000  Uiso   1.00
H439   H     0.05737   0.60712   0.20597   0.00000  Uiso   1.00
H440   H     0.17100   0.43354   0.25887   0.00000  Uiso   1.00
H441   H     0.97909   0.40483   0.18504   0.00000  Uiso   1.00
H442   H     0.05396   0.74477   0.17734   0.00000  Uiso   1.00
H443   H     0.29353   0.37876   0.28888   0.00000  Uiso   1.00
H444   H     0.88886   0.31821   0.13319   0.00000  Uiso   1.00
H445   H     0.16856   0.46895   0.04263   0.00000  Uiso   1.00
H446   H     0.15944   0.59388   0.02733   0.00000  Uiso   1.00
H447   H     0.27307   0.42031   0.08023   0.00000  Uiso   1.00
H448   H     0.08116   0.39160   0.00640   0.00000  Uiso   1.00
H449   H     0.13680   0.73403   0.03236   0.00000  Uiso   1.00
H450   H     0.37638   0.36801   0.14390   0.00000  Uiso   1.00
H451   H     0.97171   0.30747   0.98821   0.00000  Uiso   1.00
O452   O     0.08766   0.82181   0.09785   0.00000  Uiso   1.00
O453   O     0.40196   0.34161   0.24418   0.00000  Uiso   1.00
O454   O     0.87105   0.26217   0.03993   0.00000  Uiso   1.00
N455   N     0.07469   0.72509   0.14531   0.00000  Uiso   1.00
N456   N     0.29869   0.38290   0.24960   0.00000  Uiso   1.00
N457   N     0.92037   0.32628   0.10405   0.00000  Uiso   1.00
N458   N     0.11927   0.71931   0.06730   0.00000  Uiso   1.00
N459   N     0.34327   0.37712   0.17158   0.00000  Uiso   1.00
N460   N     0.96494   0.32050   0.02603   0.00000  Uiso   1.00
C461   C     0.90603   0.02138   0.17317   0.00000  Uiso   1.00
C462   C     0.90046   0.95486   0.14643   0.00000  Uiso   1.00
C463   C     0.92060   0.89572   0.16740   0.00000  Uiso   1.00
C464   C     0.91124   0.84033   0.13674   0.00000  Uiso   1.00
C465   C     0.90689   0.73648   0.10280   0.00000  Uiso   1.00
C466   C     0.83872   0.04916   0.17517   0.00000  Uiso   1.00
C467   C     0.80695   0.06931   0.22031   0.00000  Uiso   1.00
C468   C     0.74562   0.09331   0.21384   0.00000  Uiso   1.00
C469   C     0.64543   0.13592   0.22452   0.00000  Uiso   1.00
C470   C     0.94299   0.06476   0.13506   0.00000  Uiso   1.00
C471   C     0.99889   0.09804   0.14647   0.00000  Uiso   1.00
C472   C     0.02534   0.13518   0.10623   0.00000  Uiso   1.00
C473   C     0.08705   0.20200   0.05463   0.00000  Uiso   1.00
C474   C     0.85361   0.02818   0.08143   0.00000  Uiso   1.00
C475   C     0.87198   0.95856   0.09660   0.00000  Uiso   1.00
C476   C     0.86260   0.90324   0.06589   0.00000  Uiso   1.00
C477   C     0.88272   0.84403   0.08681   0.00000  Uiso   1.00
C478   C     0.81024   0.05286   0.12534   0.00000  Uiso   1.00
C479   C     0.74895   0.07684   0.11880   0.00000  Uiso   1.00
C480   C     0.71710   0.09701   0.16392   0.00000  Uiso   1.00
C481   C     0.91452   0.06845   0.08522   0.00000  Uiso   1.00
C482   C     0.94088   0.10556   0.04496   0.00000  Uiso   1.00
C483   C     0.99681   0.13888   0.05631   0.00000  Uiso   1.00
H484   H     0.92820   0.01850   0.21197   0.00000  Uiso   1.00
H485   H     0.94263   0.89288   0.20597   0.00000  Uiso   1.00
H486   H     0.82900   0.06646   0.25887   0.00000  Uiso   1.00
H487   H     0.02091   0.09517   0.18504   0.00000  Uiso   1.00
H488   H     0.94604   0.75523   0.17734   0.00000  Uiso   1.00
H489   H     0.70647   0.12124   0.28888   0.00000  Uiso   1.00
H490   H     0.11114   0.18179   0.13319   0.00000  Uiso   1.00
H491   H     0.83144   0.03105   0.04263   0.00000  Uiso   1.00
H492   H     0.84056   0.90612   0.02733   0.00000  Uiso   1.00
H493   H     0.72693   0.07969   0.08023   0.00000  Uiso   1.00
H494   H     0.91884   0.10840   0.00640   0.00000  Uiso   1.00
H495   H     0.86320   0.76597   0.03236   0.00000  Uiso   1.00
H496   H     0.62362   0.13199   0.14390   0.00000  Uiso   1.00
H497   H     0.02829   0.19253   0.98821   0.00000  Uiso   1.00
O498   O     0.91234   0.67819   0.09785   0.00000  Uiso   1.00
O499   O     0.59804   0.15839   0.24418   0.00000  Uiso   1.00
O500   O     0.12895   0.23783   0.03993   0.00000  Uiso   1.00
N501   N     0.92531   0.77491   0.14531   0.00000  Uiso   1.00
N502   N     0.70131   0.11710   0.24960   0.00000  Uiso   1.00
N503   N     0.07963   0.17372   0.10405   0.00000  Uiso   1.00
N504   N     0.88073   0.78069   0.06730   0.00000  Uiso   1.00
N505   N     0.65673   0.12288   0.17158   0.00000  Uiso   1.00
N506   N     0.03506   0.17950   0.02603   0.00000  Uiso   1.00
C507   C     0.40603   0.52138   0.67317   0.00000  Uiso   1.00
C508   C     0.40046   0.45486   0.64643   0.00000  Uiso   1.00
C509   C     0.42060   0.39572   0.66740   0.00000  Uiso   1.00
C510   C     0.41124   0.34033   0.63674   0.00000  Uiso   1.00
C511   C     0.40689   0.23648   0.60280   0.00000  Uiso   1.00
C512   C     0.33872   0.54916   0.67517   0.00000  Uiso   1.00
C513   C     0.30695   0.56931   0.72031   0.00000  Uiso   1.00
C514   C     0.24562   0.59331   0.71384   0.00000  Uiso   1.00
C515   C     0.14543   0.63592   0.72452   0.00000  Uiso   1.00
C516   C     0.44299   0.56476   0.63506   0.00000  Uiso   1.00
C517   C     0.49889   0.59804   0.64647   0.00000  Uiso   1.00
C518   C     0.52534   0.63518   0.60623   0.00000  Uiso   1.00
C519   C     0.58705   0.70200   0.55463   0.00000  Uiso   1.00
C520   C     0.35361   0.52818   0.58143   0.00000  Uiso   1.00
C521   C     0.37198   0.45856   0.59660   0.00000  Uiso   1.00
C522   C     0.36260   0.40324   0.56589   0.00000  Uiso   1.00
C523   C     0.38272   0.34403   0.58681   0.00000  Uiso   1.00
C524   C     0.31024   0.55286   0.62534   0.00000  Uiso   1.00
C525   C     0.24895   0.57684   0.61880   0.00000  Uiso   1.00
C526   C     0.21710   0.59701   0.66392   0.00000  Uiso   1.00
C527   C     0.41452   0.56845   0.58522   0.00000  Uiso   1.00
C528   C     0.44088   0.60556   0.54496   0.00000  Uiso   1.00
C529   C     0.49681   0.63888   0.55631   0.00000  Uiso   1.00
H530   H     0.42820   0.51850   0.71197   0.00000  Uiso   1.00
H531   H     0.44263   0.39288   0.70597   0.00000  Uiso   1.00
H532   H     0.32900   0.56646   0.75887   0.00000  Uiso   1.00
H533   H     0.52091   0.59517   0.68504   0.00000  Uiso   1.00
H534   H     0.44604   0.25523   0.67734   0.00000  Uiso   1.00
H535   H     0.20647   0.62124   0.78888   0.00000  Uiso   1.00
H536   H     0.61114   0.68179   0.63319   0.00000  Uiso   1.00
H537   H     0.33144   0.53105   0.54263   0.00000  Uiso   1.00
H538   H     0.34056   0.40612   0.52733   0.00000  Uiso   1.00
H539   H     0.22693   0.57969   0.58023   0.00000  Uiso   1.00
H540   H     0.41884   0.60840   0.50640   0.00000  Uiso   1.00
H541   H     0.36320   0.26597   0.53236   0.00000  Uiso   1.00
H542   H     0.12362   0.63199   0.64390   0.00000  Uiso   1.00
H543   H     0.52829   0.69253   0.48821   0.00000  Uiso   1.00
O544   O     0.41234   0.17819   0.59785   0.00000  Uiso   1.00
O545   O     0.09804   0.65839   0.74418   0.00000  Uiso   1.00
O546   O     0.62895   0.73783   0.53993   0.00000  Uiso   1.00
N547   N     0.42531   0.27491   0.64531   0.00000  Uiso   1.00
N548   N     0.20131   0.61710   0.74960   0.00000  Uiso   1.00
N549   N     0.57963   0.67372   0.60405   0.00000  Uiso   1.00
N550   N     0.38073   0.28069   0.56730   0.00000  Uiso   1.00
N551   N     0.15673   0.62288   0.67158   0.00000  Uiso   1.00
N552   N     0.53506   0.67950   0.52603   0.00000  Uiso   1.00
C553   C     0.40603   0.47862   0.82683   0.00000  Uiso   1.00
C554   C     0.40046   0.54514   0.85357   0.00000  Uiso   1.00
C555   C     0.42060   0.60428   0.83260   0.00000  Uiso   1.00
C556   C     0.41124   0.65967   0.86326   0.00000  Uiso   1.00
C557   C     0.40689   0.76352   0.89720   0.00000  Uiso   1.00
C558   C     0.33872   0.45084   0.82483   0.00000  Uiso   1.00
C559   C     0.30695   0.43069   0.77969   0.00000  Uiso   1.00
C560   C     0.24562   0.40669   0.78616   0.00000  Uiso   1.00
C561   C     0.14543   0.36408   0.77548   0.00000  Uiso   1.00
C562   C     0.44299   0.43524   0.86494   0.00000  Uiso   1.00
C563   C     0.49889   0.40196   0.85353   0.00000  Uiso   1.00
C564   C     0.52534   0.36482   0.89377   0.00000  Uiso   1.00
C565   C     0.58705   0.29800   0.94537   0.00000  Uiso   1.00
C566   C     0.35361   0.47182   0.91857   0.00000  Uiso   1.00
C567   C     0.37198   0.54144   0.90340   0.00000  Uiso   1.00
C568   C     0.36260   0.59676   0.93411   0.00000  Uiso   1.00
C569   C     0.38272   0.65597   0.91319   0.00000  Uiso   1.00
C570   C     0.31024   0.44714   0.87466   0.00000  Uiso   1.00
C571   C     0.24895   0.42316   0.88120   0.00000  Uiso   1.00
C572   C     0.21710   0.40299   0.83608   0.00000  Uiso   1.00
C573   C     0.41452   0.43155   0.91478   0.00000  Uiso   1.00
C574   C     0.44088   0.39444   0.95504   0.00000  Uiso   1.00
C575   C     0.49681   0.36112   0.94369   0.00000  Uiso   1.00
H576   H     0.42820   0.48150   0.78803   0.00000  Uiso   1.00
H577   H     0.44263   0.60712   0.79403   0.00000  Uiso   1.00
H578   H     0.32900   0.43354   0.74113   0.00000  Uiso   1.00
H579   H     0.52091   0.40483   0.81496   0.00000  Uiso   1.00
H580   H     0.44604   0.74477   0.82266   0.00000  Uiso   1.00
H581   H     0.20647   0.37876   0.71112   0.00000  Uiso   1.00
H582   H     0.61114   0.31821   0.86681   0.00000  Uiso   1.00
H583   H     0.33144   0.46895   0.95737   0.00000  Uiso   1.00
H584   H     0.34056   0.59388   0.97267   0.00000  Uiso   1.00
H585   H     0.22693   0.42031   0.91977   0.00000  Uiso   1.00
H586   H     0.41884   0.39160   0.99360   0.00000  Uiso   1.00
H587   H     0.36320   0.73403   0.96764   0.00000  Uiso   1.00
H588   H     0.12362   0.36801   0.85610   0.00000  Uiso   1.00
H589   H     0.52829   0.30747   0.01179   0.00000  Uiso   1.00
O590   O     0.41234   0.82181   0.90215   0.00000  Uiso   1.00
O591   O     0.09804   0.34161   0.75582   0.00000  Uiso   1.00
O592   O     0.62895   0.26217   0.96007   0.00000  Uiso   1.00
N593   N     0.42531   0.72509   0.85469   0.00000  Uiso   1.00
N594   N     0.20131   0.38290   0.75040   0.00000  Uiso   1.00
N595   N     0.57963   0.32628   0.89595   0.00000  Uiso   1.00
N596   N     0.38073   0.71931   0.93270   0.00000  Uiso   1.00
N597   N     0.15673   0.37712   0.82842   0.00000  Uiso   1.00
N598   N     0.53506   0.32050   0.97397   0.00000  Uiso   1.00
C599   C     0.90603   0.97862   0.32683   0.00000  Uiso   1.00
C600   C     0.90046   0.04514   0.35357   0.00000  Uiso   1.00
C601   C     0.92060   0.10428   0.33260   0.00000  Uiso   1.00
C602   C     0.91124   0.15967   0.36326   0.00000  Uiso   1.00
C603   C     0.90689   0.26352   0.39720   0.00000  Uiso   1.00
C604   C     0.83872   0.95084   0.32483   0.00000  Uiso   1.00
C605   C     0.80695   0.93069   0.27969   0.00000  Uiso   1.00
C606   C     0.74562   0.90669   0.28616   0.00000  Uiso   1.00
C607   C     0.64543   0.86408   0.27548   0.00000  Uiso   1.00
C608   C     0.94299   0.93524   0.36494   0.00000  Uiso   1.00
C609   C     0.99889   0.90196   0.35353   0.00000  Uiso   1.00
C610   C     0.02534   0.86482   0.39377   0.00000  Uiso   1.00
C611   C     0.08705   0.79800   0.44537   0.00000  Uiso   1.00
C612   C     0.85361   0.97182   0.41857   0.00000  Uiso   1.00
C613   C     0.87198   0.04144   0.40340   0.00000  Uiso   1.00
C614   C     0.86260   0.09676   0.43411   0.00000  Uiso   1.00
C615   C     0.88272   0.15597   0.41319   0.00000  Uiso   1.00
C616   C     0.81024   0.94714   0.37466   0.00000  Uiso   1.00
C617   C     0.74895   0.92316   0.38120   0.00000  Uiso   1.00
C618   C     0.71710   0.90299   0.33608   0.00000  Uiso   1.00
C619   C     0.91452   0.93155   0.41478   0.00000  Uiso   1.00
C620   C     0.94088   0.89444   0.45504   0.00000  Uiso   1.00
C621   C     0.99681   0.86112   0.44369   0.00000  Uiso   1.00
H622   H     0.92820   0.98150   0.28803   0.00000  Uiso   1.00
H623   H     0.94263   0.10712   0.29403   0.00000  Uiso   1.00
H624   H     0.82900   0.93354   0.24113   0.00000  Uiso   1.00
H625   H     0.02091   0.90483   0.31496   0.00000  Uiso   1.00
H626   H     0.94604   0.24477   0.32266   0.00000  Uiso   1.00
H627   H     0.70647   0.87876   0.21112   0.00000  Uiso   1.00
H628   H     0.11114   0.81821   0.36681   0.00000  Uiso   1.00
H629   H     0.83144   0.96895   0.45737   0.00000  Uiso   1.00
H630   H     0.84056   0.09388   0.47267   0.00000  Uiso   1.00
H631   H     0.72693   0.92031   0.41977   0.00000  Uiso   1.00
H632   H     0.91884   0.89160   0.49360   0.00000  Uiso   1.00
H633   H     0.86320   0.23403   0.46764   0.00000  Uiso   1.00
H634   H     0.62362   0.86801   0.35610   0.00000  Uiso   1.00
H635   H     0.02829   0.80747   0.51179   0.00000  Uiso   1.00
O636   O     0.91234   0.32181   0.40215   0.00000  Uiso   1.00
O637   O     0.59804   0.84161   0.25582   0.00000  Uiso   1.00
O638   O     0.12895   0.76217   0.46007   0.00000  Uiso   1.00
N639   N     0.92531   0.22509   0.35469   0.00000  Uiso   1.00
N640   N     0.70131   0.88290   0.25040   0.00000  Uiso   1.00
N641   N     0.07963   0.82628   0.39595   0.00000  Uiso   1.00
N642   N     0.88073   0.21931   0.43270   0.00000  Uiso   1.00
N643   N     0.65673   0.87712   0.32842   0.00000  Uiso   1.00
N644   N     0.03506   0.82050   0.47397   0.00000  Uiso   1.00
C645   C     0.09397   0.52138   0.32683   0.00000  Uiso   1.00
C646   C     0.09954   0.45486   0.35357   0.00000  Uiso   1.00
C647   C     0.07940   0.39572   0.33260   0.00000  Uiso   1.00
C648   C     0.08876   0.34033   0.36326   0.00000  Uiso   1.00
C649   C     0.09311   0.23648   0.39720   0.00000  Uiso   1.00
C650   C     0.16128   0.54916   0.32483   0.00000  Uiso   1.00
C651   C     0.19305   0.56931   0.27969   0.00000  Uiso   1.00
C652   C     0.25438   0.59331   0.28616   0.00000  Uiso   1.00
C653   C     0.35457   0.63592   0.27548   0.00000  Uiso   1.00
C654   C     0.05701   0.56476   0.36494   0.00000  Uiso   1.00
C655   C     0.00111   0.59804   0.35353   0.00000  Uiso   1.00
C656   C     0.97466   0.63518   0.39377   0.00000  Uiso   1.00
C657   C     0.91295   0.70200   0.44537   0.00000  Uiso   1.00
C658   C     0.14639   0.52818   0.41857   0.00000  Uiso   1.00
C659   C     0.12802   0.45856   0.40340   0.00000  Uiso   1.00
C660   C     0.13740   0.40324   0.43411   0.00000  Uiso   1.00
C661   C     0.11728   0.34403   0.41319   0.00000  Uiso   1.00
C662   C     0.18976   0.55286   0.37466   0.00000  Uiso   1.00
C663   C     0.25105   0.57684   0.38120   0.00000  Uiso   1.00
C664   C     0.28290   0.59701   0.33608   0.00000  Uiso   1.00
C665   C     0.08548   0.56845   0.41478   0.00000  Uiso   1.00
C666   C     0.05912   0.60556   0.45504   0.00000  Uiso   1.00
C667   C     0.00319   0.63888   0.44369   0.00000  Uiso   1.00
H668   H     0.07180   0.51850   0.28803   0.00000  Uiso   1.00
H669   H     0.05737   0.39288   0.29403   0.00000  Uiso   1.00
H670   H     0.17100   0.56646   0.24113   0.00000  Uiso   1.00
H671   H     0.97909   0.59517   0.31496   0.00000  Uiso   1.00
H672   H     0.05396   0.25523   0.32266   0.00000  Uiso   1.00
H673   H     0.29353   0.62124   0.21112   0.00000  Uiso   1.00
H674   H     0.88886   0.68179   0.36681   0.00000  Uiso   1.00
H675   H     0.16856   0.53105   0.45737   0.00000  Uiso   1.00
H676   H     0.15944   0.40612   0.47267   0.00000  Uiso   1.00
H677   H     0.27307   0.57969   0.41977   0.00000  Uiso   1.00
H678   H     0.08116   0.60840   0.49360   0.00000  Uiso   1.00
H679   H     0.13680   0.26597   0.46764   0.00000  Uiso   1.00
H680   H     0.37638   0.63199   0.35610   0.00000  Uiso   1.00
H681   H     0.97171   0.69253   0.51179   0.00000  Uiso   1.00
O682   O     0.08766   0.17819   0.40215   0.00000  Uiso   1.00
O683   O     0.40196   0.65839   0.25582   0.00000  Uiso   1.00
O684   O     0.87105   0.73783   0.46007   0.00000  Uiso   1.00
N685   N     0.07469   0.27491   0.35469   0.00000  Uiso   1.00
N686   N     0.29869   0.61710   0.25040   0.00000  Uiso   1.00
N687   N     0.92037   0.67372   0.39595   0.00000  Uiso   1.00
N688   N     0.11927   0.28069   0.43270   0.00000  Uiso   1.00
N689   N     0.34327   0.62288   0.32842   0.00000  Uiso   1.00
N690   N     0.96494   0.67950   0.47397   0.00000  Uiso   1.00
C691   C     0.59397   0.02138   0.82683   0.00000  Uiso   1.00
C692   C     0.59954   0.95486   0.85357   0.00000  Uiso   1.00
C693   C     0.57940   0.89572   0.83260   0.00000  Uiso   1.00
C694   C     0.58876   0.84033   0.86326   0.00000  Uiso   1.00
C695   C     0.59311   0.73648   0.89720   0.00000  Uiso   1.00
C696   C     0.66128   0.04916   0.82483   0.00000  Uiso   1.00
C697   C     0.69305   0.06931   0.77969   0.00000  Uiso   1.00
C698   C     0.75438   0.09331   0.78616   0.00000  Uiso   1.00
C699   C     0.85457   0.13592   0.77548   0.00000  Uiso   1.00
C700   C     0.55701   0.06476   0.86494   0.00000  Uiso   1.00
C701   C     0.50111   0.09804   0.85353   0.00000  Uiso   1.00
C702   C     0.47466   0.13518   0.89377   0.00000  Uiso   1.00
C703   C     0.41295   0.20200   0.94537   0.00000  Uiso   1.00
C704   C     0.64639   0.02818   0.91857   0.00000  Uiso   1.00
C705   C     0.62802   0.95856   0.90340   0.00000  Uiso   1.00
C706   C     0.63740   0.90324   0.93411   0.00000  Uiso   1.00
C707   C     0.61728   0.84403   0.91319   0.00000  Uiso   1.00
C708   C     0.68976   0.05286   0.87466   0.00000  Uiso   1.00
C709   C     0.75105   0.07684   0.88120   0.00000  Uiso   1.00
C710   C     0.78290   0.09701   0.83608   0.00000  Uiso   1.00
C711   C     0.58548   0.06845   0.91478   0.00000  Uiso   1.00
C712   C     0.55912   0.10556   0.95504   0.00000  Uiso   1.00
C713   C     0.50319   0.13888   0.94369   0.00000  Uiso   1.00
H714   H     0.57180   0.01850   0.78803   0.00000  Uiso   1.00
H715   H     0.55737   0.89288   0.79403   0.00000  Uiso   1.00
H716   H     0.67100   0.06646   0.74113   0.00000  Uiso   1.00
H717   H     0.47909   0.09517   0.81496   0.00000  Uiso   1.00
H718   H     0.55396   0.75523   0.82266   0.00000  Uiso   1.00
H719   H     0.79353   0.12124   0.71112   0.00000  Uiso   1.00
H720   H     0.38886   0.18179   0.86681   0.00000  Uiso   1.00
H721   H     0.66856   0.03105   0.95737   0.00000  Uiso   1.00
H722   H     0.65944   0.90612   0.97267   0.00000  Uiso   1.00
H723   H     0.77307   0.07969   0.91977   0.00000  Uiso   1.00
H724   H     0.58116   0.10840   0.99360   0.00000  Uiso   1.00
H725   H     0.63680   0.76597   0.96764   0.00000  Uiso   1.00
H726   H     0.87638   0.13199   0.85610   0.00000  Uiso   1.00
H727   H     0.47171   0.19253   0.01179   0.00000  Uiso   1.00
O728   O     0.58766   0.67819   0.90215   0.00000  Uiso   1.00
O729   O     0.90196   0.15839   0.75582   0.00000  Uiso   1.00
O730   O     0.37105   0.23783   0.96007   0.00000  Uiso   1.00
N731   N     0.57469   0.77491   0.85469   0.00000  Uiso   1.00
N732   N     0.79869   0.11710   0.75040   0.00000  Uiso   1.00
N733   N     0.42037   0.17372   0.89595   0.00000  Uiso   1.00
N734   N     0.61927   0.78069   0.93270   0.00000  Uiso   1.00
N735   N     0.84327   0.12288   0.82842   0.00000  Uiso   1.00
N736   N     0.46494   0.17950   0.97397   0.00000  Uiso   1.00
