data_job_04989
_audit_creation_date              2018-12-19
_audit_creation_method            'Materials Studio'
_symmetry_space_group_name_H-M    'P1'
_symmetry_Int_Tables_number       1
_symmetry_cell_setting            triclinic
loop_
_symmetry_equiv_pos_as_xyz
  x,y,z
_cell_length_a                    32.2295
_cell_length_b                    32.2295
_cell_length_c                    12.4049
_cell_angle_alpha                 90.0000
_cell_angle_beta                  90.0000
_cell_angle_gamma                 90.0000
loop_
_atom_site_label
_atom_site_type_symbol
_atom_site_fract_x
_atom_site_fract_y
_atom_site_fract_z
_atom_site_U_iso_or_equiv
_atom_site_adp_type
_atom_site_occupancy
C1     C     0.32058   0.39430   0.63375   0.00000  Uiso   1.00
C2     C     0.29988   0.38864   0.52419   0.00000  Uiso   1.00
C3     C     0.30307   0.35380   0.45897   0.00000  Uiso   1.00
C4     C     0.28179   0.35467   0.36168   0.00000  Uiso   1.00
C5     C     0.25325   0.34064   0.19624   0.00000  Uiso   1.00
C6     C     0.34637   0.43383   0.62516   0.00000  Uiso   1.00
C7     C     0.38864   0.43700   0.64485   0.00000  Uiso   1.00
C8     C     0.40648   0.47592   0.63258   0.00000  Uiso   1.00
C9     C     0.45011   0.53206   0.62397   0.00000  Uiso   1.00
C10    C     0.28572   0.40395   0.71297   0.00000  Uiso   1.00
C11    C     0.27700   0.38199   0.80650   0.00000  Uiso   1.00
C12    C     0.24379   0.39576   0.86817   0.00000  Uiso   1.00
C13    C     0.19325   0.40550   0.99590   0.00000  Uiso   1.00
C14    C     0.27711   0.45780   0.57696   0.00000  Uiso   1.00
C15    C     0.27627   0.42313   0.49335   0.00000  Uiso   1.00
C16    C     0.25498   0.42406   0.39614   0.00000  Uiso   1.00
C17    C     0.25813   0.38923   0.33079   0.00000  Uiso   1.00
C18    C     0.32276   0.46833   0.59432   0.00000  Uiso   1.00
C19    C     0.34055   0.50726   0.58203   0.00000  Uiso   1.00
C20    C     0.38283   0.51048   0.60168   0.00000  Uiso   1.00
C21    C     0.26210   0.43844   0.68213   0.00000  Uiso   1.00
C22    C     0.22890   0.45225   0.74367   0.00000  Uiso   1.00
C23    C     0.22013   0.43031   0.83728   0.00000  Uiso   1.00
H24    H     0.33897   0.36745   0.65776   0.00000  Uiso   1.00
H25    H     0.32135   0.32711   0.48286   0.00000  Uiso   1.00
H26    H     0.40690   0.41030   0.66872   0.00000  Uiso   1.00
H27    H     0.29528   0.35530   0.83034   0.00000  Uiso   1.00
H28    H     0.29141   0.29761   0.27533   0.00000  Uiso   1.00
H29    H     0.47180   0.47302   0.66727   0.00000  Uiso   1.00
H30    H     0.23642   0.35704   0.00808   0.00000  Uiso   1.00
H31    H     0.25873   0.48466   0.55295   0.00000  Uiso   1.00
H32    H     0.23671   0.45075   0.37230   0.00000  Uiso   1.00
H33    H     0.32226   0.53394   0.55816   0.00000  Uiso   1.00
H34    H     0.21064   0.47894   0.71978   0.00000  Uiso   1.00
H35    H     0.22272   0.39796   0.18559   0.00000  Uiso   1.00
H36    H     0.40311   0.57337   0.57754   0.00000  Uiso   1.00
H37    H     0.16773   0.45739   0.91834   0.00000  Uiso   1.00
O38    O     0.24404   0.32338   0.11350   0.00000  Uiso   1.00
O39    O     0.48070   0.55350   0.62773   0.00000  Uiso   1.00
O40    O     0.17189   0.40134   0.07486   0.00000  Uiso   1.00
N41    N     0.27826   0.32588   0.27901   0.00000  Uiso   1.00
N42    N     0.44692   0.48987   0.64544   0.00000  Uiso   1.00
N43    N     0.22686   0.38145   0.96408   0.00000  Uiso   1.00
N44    N     0.24130   0.37988   0.23073   0.00000  Uiso   1.00
N45    N     0.40995   0.54387   0.59715   0.00000  Uiso   1.00
N46    N     0.18990   0.43545   0.91580   0.00000  Uiso   1.00
C47    C     0.82058   0.89430   0.13375   0.00000  Uiso   1.00
C48    C     0.79988   0.88864   0.02419   0.00000  Uiso   1.00
C49    C     0.80307   0.85380   0.95897   0.00000  Uiso   1.00
C50    C     0.78179   0.85467   0.86168   0.00000  Uiso   1.00
C51    C     0.75325   0.84064   0.69624   0.00000  Uiso   1.00
C52    C     0.84637   0.93383   0.12516   0.00000  Uiso   1.00
C53    C     0.88864   0.93700   0.14485   0.00000  Uiso   1.00
C54    C     0.90648   0.97592   0.13258   0.00000  Uiso   1.00
C55    C     0.95011   0.03206   0.12397   0.00000  Uiso   1.00
C56    C     0.78572   0.90395   0.21297   0.00000  Uiso   1.00
C57    C     0.77700   0.88199   0.30650   0.00000  Uiso   1.00
C58    C     0.74379   0.89576   0.36817   0.00000  Uiso   1.00
C59    C     0.69325   0.90550   0.49590   0.00000  Uiso   1.00
C60    C     0.77711   0.95780   0.07696   0.00000  Uiso   1.00
C61    C     0.77627   0.92313   0.99335   0.00000  Uiso   1.00
C62    C     0.75498   0.92406   0.89614   0.00000  Uiso   1.00
C63    C     0.75813   0.88923   0.83079   0.00000  Uiso   1.00
C64    C     0.82276   0.96833   0.09432   0.00000  Uiso   1.00
C65    C     0.84055   0.00726   0.08203   0.00000  Uiso   1.00
C66    C     0.88283   0.01048   0.10168   0.00000  Uiso   1.00
C67    C     0.76210   0.93844   0.18213   0.00000  Uiso   1.00
C68    C     0.72890   0.95225   0.24367   0.00000  Uiso   1.00
C69    C     0.72013   0.93031   0.33728   0.00000  Uiso   1.00
H70    H     0.83897   0.86745   0.15776   0.00000  Uiso   1.00
H71    H     0.82135   0.82711   0.98286   0.00000  Uiso   1.00
H72    H     0.90690   0.91030   0.16872   0.00000  Uiso   1.00
H73    H     0.79528   0.85530   0.33034   0.00000  Uiso   1.00
H74    H     0.79141   0.79761   0.77533   0.00000  Uiso   1.00
H75    H     0.97180   0.97302   0.16727   0.00000  Uiso   1.00
H76    H     0.73642   0.85704   0.50808   0.00000  Uiso   1.00
H77    H     0.75873   0.98466   0.05295   0.00000  Uiso   1.00
H78    H     0.73671   0.95075   0.87230   0.00000  Uiso   1.00
H79    H     0.82226   0.03394   0.05816   0.00000  Uiso   1.00
H80    H     0.71064   0.97894   0.21978   0.00000  Uiso   1.00
H81    H     0.72272   0.89796   0.68559   0.00000  Uiso   1.00
H82    H     0.90311   0.07337   0.07754   0.00000  Uiso   1.00
H83    H     0.66773   0.95739   0.41834   0.00000  Uiso   1.00
O84    O     0.74404   0.82338   0.61350   0.00000  Uiso   1.00
O85    O     0.98070   0.05350   0.12773   0.00000  Uiso   1.00
O86    O     0.67189   0.90134   0.57486   0.00000  Uiso   1.00
N87    N     0.77826   0.82588   0.77901   0.00000  Uiso   1.00
N88    N     0.94692   0.98987   0.14544   0.00000  Uiso   1.00
N89    N     0.72686   0.88145   0.46408   0.00000  Uiso   1.00
N90    N     0.74130   0.87988   0.73073   0.00000  Uiso   1.00
N91    N     0.90995   0.04387   0.09715   0.00000  Uiso   1.00
N92    N     0.68990   0.93545   0.41580   0.00000  Uiso   1.00
C93    C     0.17942   0.10570   0.13375   0.00000  Uiso   1.00
C94    C     0.20012   0.11136   0.02419   0.00000  Uiso   1.00
C95    C     0.19693   0.14620   0.95897   0.00000  Uiso   1.00
C96    C     0.21821   0.14533   0.86168   0.00000  Uiso   1.00
C97    C     0.24675   0.15936   0.69624   0.00000  Uiso   1.00
C98    C     0.15363   0.06617   0.12516   0.00000  Uiso   1.00
C99    C     0.11136   0.06300   0.14485   0.00000  Uiso   1.00
C100   C     0.09352   0.02408   0.13258   0.00000  Uiso   1.00
C101   C     0.04989   0.96794   0.12397   0.00000  Uiso   1.00
C102   C     0.21428   0.09605   0.21297   0.00000  Uiso   1.00
C103   C     0.22300   0.11801   0.30650   0.00000  Uiso   1.00
C104   C     0.25621   0.10424   0.36817   0.00000  Uiso   1.00
C105   C     0.30675   0.09450   0.49590   0.00000  Uiso   1.00
C106   C     0.22289   0.04220   0.07696   0.00000  Uiso   1.00
C107   C     0.22373   0.07687   0.99335   0.00000  Uiso   1.00
C108   C     0.24502   0.07594   0.89614   0.00000  Uiso   1.00
C109   C     0.24187   0.11077   0.83079   0.00000  Uiso   1.00
C110   C     0.17724   0.03167   0.09432   0.00000  Uiso   1.00
C111   C     0.15945   0.99274   0.08203   0.00000  Uiso   1.00
C112   C     0.11717   0.98952   0.10168   0.00000  Uiso   1.00
C113   C     0.23790   0.06156   0.18213   0.00000  Uiso   1.00
C114   C     0.27110   0.04775   0.24367   0.00000  Uiso   1.00
C115   C     0.27987   0.06969   0.33728   0.00000  Uiso   1.00
H116   H     0.16103   0.13255   0.15776   0.00000  Uiso   1.00
H117   H     0.17865   0.17289   0.98286   0.00000  Uiso   1.00
H118   H     0.09310   0.08970   0.16872   0.00000  Uiso   1.00
H119   H     0.20472   0.14470   0.33034   0.00000  Uiso   1.00
H120   H     0.20859   0.20239   0.77533   0.00000  Uiso   1.00
H121   H     0.02820   0.02698   0.16727   0.00000  Uiso   1.00
H122   H     0.26358   0.14296   0.50808   0.00000  Uiso   1.00
H123   H     0.24127   0.01534   0.05295   0.00000  Uiso   1.00
H124   H     0.26329   0.04925   0.87230   0.00000  Uiso   1.00
H125   H     0.17774   0.96606   0.05816   0.00000  Uiso   1.00
H126   H     0.28936   0.02106   0.21978   0.00000  Uiso   1.00
H127   H     0.27728   0.10204   0.68559   0.00000  Uiso   1.00
H128   H     0.09689   0.92663   0.07754   0.00000  Uiso   1.00
H129   H     0.33227   0.04261   0.41834   0.00000  Uiso   1.00
O130   O     0.25596   0.17662   0.61350   0.00000  Uiso   1.00
O131   O     0.01930   0.94650   0.12773   0.00000  Uiso   1.00
O132   O     0.32811   0.09866   0.57486   0.00000  Uiso   1.00
N133   N     0.22174   0.17412   0.77901   0.00000  Uiso   1.00
N134   N     0.05308   0.01013   0.14544   0.00000  Uiso   1.00
N135   N     0.27314   0.11855   0.46408   0.00000  Uiso   1.00
N136   N     0.25870   0.12012   0.73073   0.00000  Uiso   1.00
N137   N     0.09005   0.95613   0.09715   0.00000  Uiso   1.00
N138   N     0.31010   0.06455   0.41580   0.00000  Uiso   1.00
C139   C     0.67942   0.60570   0.63375   0.00000  Uiso   1.00
C140   C     0.70012   0.61136   0.52419   0.00000  Uiso   1.00
C141   C     0.69693   0.64620   0.45897   0.00000  Uiso   1.00
C142   C     0.71821   0.64533   0.36168   0.00000  Uiso   1.00
C143   C     0.74675   0.65936   0.19624   0.00000  Uiso   1.00
C144   C     0.65363   0.56617   0.62516   0.00000  Uiso   1.00
C145   C     0.61136   0.56300   0.64485   0.00000  Uiso   1.00
C146   C     0.59352   0.52408   0.63258   0.00000  Uiso   1.00
C147   C     0.54989   0.46794   0.62397   0.00000  Uiso   1.00
C148   C     0.71428   0.59605   0.71297   0.00000  Uiso   1.00
C149   C     0.72300   0.61801   0.80650   0.00000  Uiso   1.00
C150   C     0.75621   0.60424   0.86817   0.00000  Uiso   1.00
C151   C     0.80675   0.59450   0.99590   0.00000  Uiso   1.00
C152   C     0.72289   0.54220   0.57696   0.00000  Uiso   1.00
C153   C     0.72373   0.57687   0.49335   0.00000  Uiso   1.00
C154   C     0.74502   0.57594   0.39614   0.00000  Uiso   1.00
C155   C     0.74187   0.61077   0.33079   0.00000  Uiso   1.00
C156   C     0.67724   0.53167   0.59432   0.00000  Uiso   1.00
C157   C     0.65945   0.49274   0.58203   0.00000  Uiso   1.00
C158   C     0.61717   0.48952   0.60168   0.00000  Uiso   1.00
C159   C     0.73790   0.56156   0.68213   0.00000  Uiso   1.00
C160   C     0.77110   0.54775   0.74367   0.00000  Uiso   1.00
C161   C     0.77987   0.56969   0.83728   0.00000  Uiso   1.00
H162   H     0.66103   0.63255   0.65776   0.00000  Uiso   1.00
H163   H     0.67865   0.67289   0.48286   0.00000  Uiso   1.00
H164   H     0.59310   0.58970   0.66872   0.00000  Uiso   1.00
H165   H     0.70472   0.64470   0.83034   0.00000  Uiso   1.00
H166   H     0.70859   0.70239   0.27533   0.00000  Uiso   1.00
H167   H     0.52820   0.52698   0.66727   0.00000  Uiso   1.00
H168   H     0.76358   0.64296   0.00808   0.00000  Uiso   1.00
H169   H     0.74127   0.51534   0.55295   0.00000  Uiso   1.00
H170   H     0.76329   0.54925   0.37230   0.00000  Uiso   1.00
H171   H     0.67774   0.46606   0.55816   0.00000  Uiso   1.00
H172   H     0.78936   0.52106   0.71978   0.00000  Uiso   1.00
H173   H     0.77728   0.60204   0.18559   0.00000  Uiso   1.00
H174   H     0.59689   0.42663   0.57754   0.00000  Uiso   1.00
H175   H     0.83227   0.54261   0.91834   0.00000  Uiso   1.00
O176   O     0.75596   0.67662   0.11350   0.00000  Uiso   1.00
O177   O     0.51930   0.44650   0.62773   0.00000  Uiso   1.00
O178   O     0.82811   0.59866   0.07486   0.00000  Uiso   1.00
N179   N     0.72174   0.67412   0.27901   0.00000  Uiso   1.00
N180   N     0.55308   0.51013   0.64544   0.00000  Uiso   1.00
N181   N     0.77314   0.61855   0.96408   0.00000  Uiso   1.00
N182   N     0.75870   0.62012   0.23073   0.00000  Uiso   1.00
N183   N     0.59005   0.45613   0.59715   0.00000  Uiso   1.00
N184   N     0.81010   0.56455   0.91580   0.00000  Uiso   1.00
C185   C     0.60570   0.82058   0.88375   0.00000  Uiso   1.00
C186   C     0.61136   0.79988   0.77419   0.00000  Uiso   1.00
C187   C     0.64620   0.80307   0.70897   0.00000  Uiso   1.00
C188   C     0.64533   0.78179   0.61168   0.00000  Uiso   1.00
C189   C     0.65936   0.75325   0.44624   0.00000  Uiso   1.00
C190   C     0.56617   0.84637   0.87516   0.00000  Uiso   1.00
C191   C     0.56300   0.88864   0.89485   0.00000  Uiso   1.00
C192   C     0.52408   0.90648   0.88258   0.00000  Uiso   1.00
C193   C     0.46794   0.95011   0.87397   0.00000  Uiso   1.00
C194   C     0.59605   0.78572   0.96297   0.00000  Uiso   1.00
C195   C     0.61801   0.77700   0.05650   0.00000  Uiso   1.00
C196   C     0.60424   0.74379   0.11817   0.00000  Uiso   1.00
C197   C     0.59450   0.69325   0.24590   0.00000  Uiso   1.00
C198   C     0.54220   0.77711   0.82696   0.00000  Uiso   1.00
C199   C     0.57687   0.77627   0.74335   0.00000  Uiso   1.00
C200   C     0.57594   0.75498   0.64614   0.00000  Uiso   1.00
C201   C     0.61077   0.75813   0.58079   0.00000  Uiso   1.00
C202   C     0.53167   0.82276   0.84432   0.00000  Uiso   1.00
C203   C     0.49274   0.84055   0.83203   0.00000  Uiso   1.00
C204   C     0.48952   0.88283   0.85168   0.00000  Uiso   1.00
C205   C     0.56156   0.76210   0.93213   0.00000  Uiso   1.00
C206   C     0.54775   0.72890   0.99367   0.00000  Uiso   1.00
C207   C     0.56969   0.72013   0.08728   0.00000  Uiso   1.00
H208   H     0.63255   0.83897   0.90776   0.00000  Uiso   1.00
H209   H     0.67289   0.82135   0.73286   0.00000  Uiso   1.00
H210   H     0.58970   0.90690   0.91872   0.00000  Uiso   1.00
H211   H     0.64470   0.79528   0.08034   0.00000  Uiso   1.00
H212   H     0.70239   0.79141   0.52533   0.00000  Uiso   1.00
H213   H     0.52698   0.97180   0.91727   0.00000  Uiso   1.00
H214   H     0.64296   0.73642   0.25808   0.00000  Uiso   1.00
H215   H     0.51534   0.75873   0.80295   0.00000  Uiso   1.00
H216   H     0.54925   0.73671   0.62230   0.00000  Uiso   1.00
H217   H     0.46606   0.82226   0.80816   0.00000  Uiso   1.00
H218   H     0.52106   0.71064   0.96978   0.00000  Uiso   1.00
H219   H     0.60204   0.72272   0.43559   0.00000  Uiso   1.00
H220   H     0.42663   0.90311   0.82754   0.00000  Uiso   1.00
H221   H     0.54261   0.66773   0.16834   0.00000  Uiso   1.00
O222   O     0.67662   0.74404   0.36350   0.00000  Uiso   1.00
O223   O     0.44650   0.98070   0.87773   0.00000  Uiso   1.00
O224   O     0.59866   0.67189   0.32486   0.00000  Uiso   1.00
N225   N     0.67412   0.77826   0.52901   0.00000  Uiso   1.00
N226   N     0.51013   0.94692   0.89544   0.00000  Uiso   1.00
N227   N     0.61855   0.72686   0.21408   0.00000  Uiso   1.00
N228   N     0.62012   0.74130   0.48073   0.00000  Uiso   1.00
N229   N     0.45613   0.90995   0.84715   0.00000  Uiso   1.00
N230   N     0.56455   0.68990   0.16580   0.00000  Uiso   1.00
C231   C     0.10570   0.32058   0.38375   0.00000  Uiso   1.00
C232   C     0.11136   0.29988   0.27419   0.00000  Uiso   1.00
C233   C     0.14620   0.30307   0.20897   0.00000  Uiso   1.00
C234   C     0.14533   0.28179   0.11168   0.00000  Uiso   1.00
C235   C     0.15936   0.25325   0.94624   0.00000  Uiso   1.00
C236   C     0.06617   0.34637   0.37516   0.00000  Uiso   1.00
C237   C     0.06300   0.38864   0.39485   0.00000  Uiso   1.00
C238   C     0.02408   0.40648   0.38258   0.00000  Uiso   1.00
C239   C     0.96794   0.45011   0.37397   0.00000  Uiso   1.00
C240   C     0.09605   0.28572   0.46297   0.00000  Uiso   1.00
C241   C     0.11801   0.27700   0.55650   0.00000  Uiso   1.00
C242   C     0.10424   0.24379   0.61817   0.00000  Uiso   1.00
C243   C     0.09450   0.19325   0.74590   0.00000  Uiso   1.00
C244   C     0.04220   0.27711   0.32696   0.00000  Uiso   1.00
C245   C     0.07687   0.27627   0.24335   0.00000  Uiso   1.00
C246   C     0.07594   0.25498   0.14614   0.00000  Uiso   1.00
C247   C     0.11077   0.25813   0.08079   0.00000  Uiso   1.00
C248   C     0.03167   0.32276   0.34432   0.00000  Uiso   1.00
C249   C     0.99274   0.34055   0.33203   0.00000  Uiso   1.00
C250   C     0.98952   0.38283   0.35168   0.00000  Uiso   1.00
C251   C     0.06156   0.26210   0.43213   0.00000  Uiso   1.00
C252   C     0.04775   0.22890   0.49367   0.00000  Uiso   1.00
C253   C     0.06969   0.22013   0.58728   0.00000  Uiso   1.00
H254   H     0.13255   0.33897   0.40776   0.00000  Uiso   1.00
H255   H     0.17289   0.32135   0.23286   0.00000  Uiso   1.00
H256   H     0.08970   0.40690   0.41872   0.00000  Uiso   1.00
H257   H     0.14470   0.29528   0.58034   0.00000  Uiso   1.00
H258   H     0.20239   0.29141   0.02533   0.00000  Uiso   1.00
H259   H     0.02698   0.47180   0.41727   0.00000  Uiso   1.00
H260   H     0.14296   0.23642   0.75808   0.00000  Uiso   1.00
H261   H     0.01534   0.25873   0.30295   0.00000  Uiso   1.00
H262   H     0.04925   0.23671   0.12230   0.00000  Uiso   1.00
H263   H     0.96606   0.32226   0.30816   0.00000  Uiso   1.00
H264   H     0.02106   0.21064   0.46978   0.00000  Uiso   1.00
H265   H     0.10204   0.22272   0.93559   0.00000  Uiso   1.00
H266   H     0.92663   0.40311   0.32754   0.00000  Uiso   1.00
H267   H     0.04261   0.16773   0.66834   0.00000  Uiso   1.00
O268   O     0.17662   0.24404   0.86350   0.00000  Uiso   1.00
O269   O     0.94650   0.48070   0.37773   0.00000  Uiso   1.00
O270   O     0.09866   0.17189   0.82486   0.00000  Uiso   1.00
N271   N     0.17412   0.27826   0.02901   0.00000  Uiso   1.00
N272   N     0.01013   0.44692   0.39544   0.00000  Uiso   1.00
N273   N     0.11855   0.22686   0.71408   0.00000  Uiso   1.00
N274   N     0.12012   0.24130   0.98073   0.00000  Uiso   1.00
N275   N     0.95613   0.40995   0.34715   0.00000  Uiso   1.00
N276   N     0.06455   0.18990   0.66580   0.00000  Uiso   1.00
C277   C     0.89430   0.67942   0.38375   0.00000  Uiso   1.00
C278   C     0.88864   0.70012   0.27419   0.00000  Uiso   1.00
C279   C     0.85380   0.69693   0.20897   0.00000  Uiso   1.00
C280   C     0.85467   0.71821   0.11168   0.00000  Uiso   1.00
C281   C     0.84064   0.74675   0.94624   0.00000  Uiso   1.00
C282   C     0.93383   0.65363   0.37516   0.00000  Uiso   1.00
C283   C     0.93700   0.61136   0.39485   0.00000  Uiso   1.00
C284   C     0.97592   0.59352   0.38258   0.00000  Uiso   1.00
C285   C     0.03206   0.54989   0.37397   0.00000  Uiso   1.00
C286   C     0.90395   0.71428   0.46297   0.00000  Uiso   1.00
C287   C     0.88199   0.72300   0.55650   0.00000  Uiso   1.00
C288   C     0.89576   0.75621   0.61817   0.00000  Uiso   1.00
C289   C     0.90550   0.80675   0.74590   0.00000  Uiso   1.00
C290   C     0.95780   0.72289   0.32696   0.00000  Uiso   1.00
C291   C     0.92313   0.72373   0.24335   0.00000  Uiso   1.00
C292   C     0.92406   0.74502   0.14614   0.00000  Uiso   1.00
C293   C     0.88923   0.74187   0.08079   0.00000  Uiso   1.00
C294   C     0.96833   0.67724   0.34432   0.00000  Uiso   1.00
C295   C     0.00726   0.65945   0.33203   0.00000  Uiso   1.00
C296   C     0.01048   0.61717   0.35168   0.00000  Uiso   1.00
C297   C     0.93844   0.73790   0.43213   0.00000  Uiso   1.00
C298   C     0.95225   0.77110   0.49367   0.00000  Uiso   1.00
C299   C     0.93031   0.77987   0.58728   0.00000  Uiso   1.00
H300   H     0.86745   0.66103   0.40776   0.00000  Uiso   1.00
H301   H     0.82711   0.67865   0.23286   0.00000  Uiso   1.00
H302   H     0.91030   0.59310   0.41872   0.00000  Uiso   1.00
H303   H     0.85530   0.70472   0.58034   0.00000  Uiso   1.00
H304   H     0.79761   0.70859   0.02533   0.00000  Uiso   1.00
H305   H     0.97302   0.52820   0.41727   0.00000  Uiso   1.00
H306   H     0.85704   0.76358   0.75808   0.00000  Uiso   1.00
H307   H     0.98466   0.74127   0.30295   0.00000  Uiso   1.00
H308   H     0.95075   0.76329   0.12230   0.00000  Uiso   1.00
H309   H     0.03394   0.67774   0.30816   0.00000  Uiso   1.00
H310   H     0.97894   0.78936   0.46978   0.00000  Uiso   1.00
H311   H     0.89796   0.77728   0.93559   0.00000  Uiso   1.00
H312   H     0.07337   0.59689   0.32754   0.00000  Uiso   1.00
H313   H     0.95739   0.83227   0.66834   0.00000  Uiso   1.00
O314   O     0.82338   0.75596   0.86350   0.00000  Uiso   1.00
O315   O     0.05350   0.51930   0.37773   0.00000  Uiso   1.00
O316   O     0.90134   0.82811   0.82486   0.00000  Uiso   1.00
N317   N     0.82588   0.72174   0.02901   0.00000  Uiso   1.00
N318   N     0.98987   0.55308   0.39544   0.00000  Uiso   1.00
N319   N     0.88145   0.77314   0.71408   0.00000  Uiso   1.00
N320   N     0.87988   0.75870   0.98073   0.00000  Uiso   1.00
N321   N     0.04387   0.59005   0.34715   0.00000  Uiso   1.00
N322   N     0.93545   0.81010   0.66580   0.00000  Uiso   1.00
C323   C     0.39430   0.17942   0.88375   0.00000  Uiso   1.00
C324   C     0.38864   0.20012   0.77419   0.00000  Uiso   1.00
C325   C     0.35380   0.19693   0.70897   0.00000  Uiso   1.00
C326   C     0.35467   0.21821   0.61168   0.00000  Uiso   1.00
C327   C     0.34064   0.24675   0.44624   0.00000  Uiso   1.00
C328   C     0.43383   0.15363   0.87516   0.00000  Uiso   1.00
C329   C     0.43700   0.11136   0.89485   0.00000  Uiso   1.00
C330   C     0.47592   0.09352   0.88258   0.00000  Uiso   1.00
C331   C     0.53206   0.04989   0.87397   0.00000  Uiso   1.00
C332   C     0.40395   0.21428   0.96297   0.00000  Uiso   1.00
C333   C     0.38199   0.22300   0.05650   0.00000  Uiso   1.00
C334   C     0.39576   0.25621   0.11817   0.00000  Uiso   1.00
C335   C     0.40550   0.30675   0.24590   0.00000  Uiso   1.00
C336   C     0.45780   0.22289   0.82696   0.00000  Uiso   1.00
C337   C     0.42313   0.22373   0.74335   0.00000  Uiso   1.00
C338   C     0.42406   0.24502   0.64614   0.00000  Uiso   1.00
C339   C     0.38923   0.24187   0.58079   0.00000  Uiso   1.00
C340   C     0.46833   0.17724   0.84432   0.00000  Uiso   1.00
C341   C     0.50726   0.15945   0.83203   0.00000  Uiso   1.00
C342   C     0.51048   0.11717   0.85168   0.00000  Uiso   1.00
C343   C     0.43844   0.23790   0.93213   0.00000  Uiso   1.00
C344   C     0.45225   0.27110   0.99367   0.00000  Uiso   1.00
C345   C     0.43031   0.27987   0.08728   0.00000  Uiso   1.00
H346   H     0.36745   0.16103   0.90776   0.00000  Uiso   1.00
H347   H     0.32711   0.17865   0.73286   0.00000  Uiso   1.00
H348   H     0.41030   0.09310   0.91872   0.00000  Uiso   1.00
H349   H     0.35530   0.20472   0.08034   0.00000  Uiso   1.00
H350   H     0.29761   0.20859   0.52533   0.00000  Uiso   1.00
H351   H     0.47302   0.02820   0.91727   0.00000  Uiso   1.00
H352   H     0.35704   0.26358   0.25808   0.00000  Uiso   1.00
H353   H     0.48466   0.24127   0.80295   0.00000  Uiso   1.00
H354   H     0.45075   0.26329   0.62230   0.00000  Uiso   1.00
H355   H     0.53394   0.17774   0.80816   0.00000  Uiso   1.00
H356   H     0.47894   0.28936   0.96978   0.00000  Uiso   1.00
H357   H     0.39796   0.27728   0.43559   0.00000  Uiso   1.00
H358   H     0.57337   0.09689   0.82754   0.00000  Uiso   1.00
H359   H     0.45739   0.33227   0.16834   0.00000  Uiso   1.00
O360   O     0.32338   0.25596   0.36350   0.00000  Uiso   1.00
O361   O     0.55350   0.01930   0.87773   0.00000  Uiso   1.00
O362   O     0.40134   0.32811   0.32486   0.00000  Uiso   1.00
N363   N     0.32588   0.22174   0.52901   0.00000  Uiso   1.00
N364   N     0.48987   0.05308   0.89544   0.00000  Uiso   1.00
N365   N     0.38145   0.27314   0.21408   0.00000  Uiso   1.00
N366   N     0.37988   0.25870   0.48073   0.00000  Uiso   1.00
N367   N     0.54387   0.09005   0.84715   0.00000  Uiso   1.00
N368   N     0.43545   0.31010   0.16580   0.00000  Uiso   1.00
C369   C     0.67942   0.10570   0.61625   0.00000  Uiso   1.00
C370   C     0.70012   0.11136   0.72581   0.00000  Uiso   1.00
C371   C     0.69693   0.14620   0.79103   0.00000  Uiso   1.00
C372   C     0.71821   0.14533   0.88832   0.00000  Uiso   1.00
C373   C     0.74675   0.15936   0.05376   0.00000  Uiso   1.00
C374   C     0.65363   0.06617   0.62484   0.00000  Uiso   1.00
C375   C     0.61136   0.06300   0.60515   0.00000  Uiso   1.00
C376   C     0.59352   0.02408   0.61742   0.00000  Uiso   1.00
C377   C     0.54989   0.96794   0.62603   0.00000  Uiso   1.00
C378   C     0.71428   0.09605   0.53703   0.00000  Uiso   1.00
C379   C     0.72300   0.11801   0.44350   0.00000  Uiso   1.00
C380   C     0.75621   0.10424   0.38183   0.00000  Uiso   1.00
C381   C     0.80675   0.09450   0.25410   0.00000  Uiso   1.00
C382   C     0.72289   0.04220   0.67304   0.00000  Uiso   1.00
C383   C     0.72373   0.07687   0.75665   0.00000  Uiso   1.00
C384   C     0.74502   0.07594   0.85386   0.00000  Uiso   1.00
C385   C     0.74187   0.11077   0.91921   0.00000  Uiso   1.00
C386   C     0.67724   0.03167   0.65568   0.00000  Uiso   1.00
C387   C     0.65945   0.99274   0.66797   0.00000  Uiso   1.00
C388   C     0.61717   0.98952   0.64832   0.00000  Uiso   1.00
C389   C     0.73790   0.06156   0.56787   0.00000  Uiso   1.00
C390   C     0.77110   0.04775   0.50633   0.00000  Uiso   1.00
C391   C     0.77987   0.06969   0.41272   0.00000  Uiso   1.00
H392   H     0.66103   0.13255   0.59224   0.00000  Uiso   1.00
H393   H     0.67865   0.17289   0.76714   0.00000  Uiso   1.00
H394   H     0.59310   0.08970   0.58128   0.00000  Uiso   1.00
H395   H     0.70472   0.14470   0.41966   0.00000  Uiso   1.00
H396   H     0.70859   0.20239   0.97467   0.00000  Uiso   1.00
H397   H     0.52820   0.02698   0.58273   0.00000  Uiso   1.00
H398   H     0.76358   0.14296   0.24192   0.00000  Uiso   1.00
H399   H     0.74127   0.01534   0.69705   0.00000  Uiso   1.00
H400   H     0.76329   0.04925   0.87770   0.00000  Uiso   1.00
H401   H     0.67774   0.96606   0.69184   0.00000  Uiso   1.00
H402   H     0.78936   0.02106   0.53022   0.00000  Uiso   1.00
H403   H     0.77728   0.10204   0.06441   0.00000  Uiso   1.00
H404   H     0.59689   0.92663   0.67246   0.00000  Uiso   1.00
H405   H     0.83227   0.04261   0.33166   0.00000  Uiso   1.00
O406   O     0.75596   0.17662   0.13650   0.00000  Uiso   1.00
O407   O     0.51930   0.94650   0.62227   0.00000  Uiso   1.00
O408   O     0.82811   0.09866   0.17514   0.00000  Uiso   1.00
N409   N     0.72174   0.17412   0.97099   0.00000  Uiso   1.00
N410   N     0.55308   0.01013   0.60456   0.00000  Uiso   1.00
N411   N     0.77314   0.11855   0.28592   0.00000  Uiso   1.00
N412   N     0.75870   0.12012   0.01927   0.00000  Uiso   1.00
N413   N     0.59005   0.95613   0.65285   0.00000  Uiso   1.00
N414   N     0.81010   0.06455   0.33420   0.00000  Uiso   1.00
C415   C     0.17942   0.60570   0.11625   0.00000  Uiso   1.00
C416   C     0.20012   0.61136   0.22581   0.00000  Uiso   1.00
C417   C     0.19693   0.64620   0.29103   0.00000  Uiso   1.00
C418   C     0.21821   0.64533   0.38832   0.00000  Uiso   1.00
C419   C     0.24675   0.65936   0.55376   0.00000  Uiso   1.00
C420   C     0.15363   0.56617   0.12484   0.00000  Uiso   1.00
C421   C     0.11136   0.56300   0.10515   0.00000  Uiso   1.00
C422   C     0.09352   0.52408   0.11742   0.00000  Uiso   1.00
C423   C     0.04989   0.46794   0.12603   0.00000  Uiso   1.00
C424   C     0.21428   0.59605   0.03703   0.00000  Uiso   1.00
C425   C     0.22300   0.61801   0.94350   0.00000  Uiso   1.00
C426   C     0.25621   0.60424   0.88183   0.00000  Uiso   1.00
C427   C     0.30675   0.59450   0.75410   0.00000  Uiso   1.00
C428   C     0.22289   0.54220   0.17304   0.00000  Uiso   1.00
C429   C     0.22373   0.57687   0.25665   0.00000  Uiso   1.00
C430   C     0.24502   0.57594   0.35386   0.00000  Uiso   1.00
C431   C     0.24187   0.61077   0.41921   0.00000  Uiso   1.00
C432   C     0.17724   0.53167   0.15568   0.00000  Uiso   1.00
C433   C     0.15945   0.49274   0.16797   0.00000  Uiso   1.00
C434   C     0.11717   0.48952   0.14832   0.00000  Uiso   1.00
C435   C     0.23790   0.56156   0.06787   0.00000  Uiso   1.00
C436   C     0.27110   0.54775   0.00633   0.00000  Uiso   1.00
C437   C     0.27987   0.56969   0.91272   0.00000  Uiso   1.00
H438   H     0.16103   0.63255   0.09224   0.00000  Uiso   1.00
H439   H     0.17865   0.67289   0.26714   0.00000  Uiso   1.00
H440   H     0.09310   0.58970   0.08128   0.00000  Uiso   1.00
H441   H     0.20472   0.64470   0.91966   0.00000  Uiso   1.00
H442   H     0.20859   0.70239   0.47467   0.00000  Uiso   1.00
H443   H     0.02820   0.52698   0.08273   0.00000  Uiso   1.00
H444   H     0.26358   0.64296   0.74192   0.00000  Uiso   1.00
H445   H     0.24127   0.51534   0.19705   0.00000  Uiso   1.00
H446   H     0.26329   0.54925   0.37770   0.00000  Uiso   1.00
H447   H     0.17774   0.46606   0.19184   0.00000  Uiso   1.00
H448   H     0.28936   0.52106   0.03022   0.00000  Uiso   1.00
H449   H     0.27728   0.60204   0.56441   0.00000  Uiso   1.00
H450   H     0.09689   0.42663   0.17246   0.00000  Uiso   1.00
H451   H     0.33227   0.54261   0.83166   0.00000  Uiso   1.00
O452   O     0.25596   0.67662   0.63650   0.00000  Uiso   1.00
O453   O     0.01930   0.44650   0.12227   0.00000  Uiso   1.00
O454   O     0.32811   0.59866   0.67514   0.00000  Uiso   1.00
N455   N     0.22174   0.67412   0.47099   0.00000  Uiso   1.00
N456   N     0.05308   0.51013   0.10456   0.00000  Uiso   1.00
N457   N     0.27314   0.61855   0.78592   0.00000  Uiso   1.00
N458   N     0.25870   0.62012   0.51927   0.00000  Uiso   1.00
N459   N     0.09005   0.45613   0.15285   0.00000  Uiso   1.00
N460   N     0.31010   0.56455   0.83420   0.00000  Uiso   1.00
C461   C     0.82058   0.39430   0.11625   0.00000  Uiso   1.00
C462   C     0.79988   0.38864   0.22581   0.00000  Uiso   1.00
C463   C     0.80307   0.35380   0.29103   0.00000  Uiso   1.00
C464   C     0.78179   0.35467   0.38832   0.00000  Uiso   1.00
C465   C     0.75325   0.34064   0.55376   0.00000  Uiso   1.00
C466   C     0.84637   0.43383   0.12484   0.00000  Uiso   1.00
C467   C     0.88864   0.43700   0.10515   0.00000  Uiso   1.00
C468   C     0.90648   0.47592   0.11742   0.00000  Uiso   1.00
C469   C     0.95011   0.53206   0.12603   0.00000  Uiso   1.00
C470   C     0.78572   0.40395   0.03703   0.00000  Uiso   1.00
C471   C     0.77700   0.38199   0.94350   0.00000  Uiso   1.00
C472   C     0.74379   0.39576   0.88183   0.00000  Uiso   1.00
C473   C     0.69325   0.40550   0.75410   0.00000  Uiso   1.00
C474   C     0.77711   0.45780   0.17304   0.00000  Uiso   1.00
C475   C     0.77627   0.42313   0.25665   0.00000  Uiso   1.00
C476   C     0.75498   0.42406   0.35386   0.00000  Uiso   1.00
C477   C     0.75813   0.38923   0.41921   0.00000  Uiso   1.00
C478   C     0.82276   0.46833   0.15568   0.00000  Uiso   1.00
C479   C     0.84055   0.50726   0.16797   0.00000  Uiso   1.00
C480   C     0.88283   0.51048   0.14832   0.00000  Uiso   1.00
C481   C     0.76210   0.43844   0.06787   0.00000  Uiso   1.00
C482   C     0.72890   0.45225   0.00633   0.00000  Uiso   1.00
C483   C     0.72013   0.43031   0.91272   0.00000  Uiso   1.00
H484   H     0.83897   0.36745   0.09224   0.00000  Uiso   1.00
H485   H     0.82135   0.32711   0.26714   0.00000  Uiso   1.00
H486   H     0.90690   0.41030   0.08128   0.00000  Uiso   1.00
H487   H     0.79528   0.35530   0.91966   0.00000  Uiso   1.00
H488   H     0.79141   0.29761   0.47467   0.00000  Uiso   1.00
H489   H     0.97180   0.47302   0.08273   0.00000  Uiso   1.00
H490   H     0.73642   0.35704   0.74192   0.00000  Uiso   1.00
H491   H     0.75873   0.48466   0.19705   0.00000  Uiso   1.00
H492   H     0.73671   0.45075   0.37770   0.00000  Uiso   1.00
H493   H     0.82226   0.53394   0.19184   0.00000  Uiso   1.00
H494   H     0.71064   0.47894   0.03022   0.00000  Uiso   1.00
H495   H     0.72272   0.39796   0.56441   0.00000  Uiso   1.00
H496   H     0.90311   0.57337   0.17246   0.00000  Uiso   1.00
H497   H     0.66773   0.45739   0.83166   0.00000  Uiso   1.00
O498   O     0.74404   0.32338   0.63650   0.00000  Uiso   1.00
O499   O     0.98070   0.55350   0.12227   0.00000  Uiso   1.00
O500   O     0.67189   0.40134   0.67514   0.00000  Uiso   1.00
N501   N     0.77826   0.32588   0.47099   0.00000  Uiso   1.00
N502   N     0.94692   0.48987   0.10456   0.00000  Uiso   1.00
N503   N     0.72686   0.38145   0.78592   0.00000  Uiso   1.00
N504   N     0.74130   0.37988   0.51927   0.00000  Uiso   1.00
N505   N     0.90995   0.54387   0.15285   0.00000  Uiso   1.00
N506   N     0.68990   0.43545   0.83420   0.00000  Uiso   1.00
C507   C     0.32058   0.89430   0.61625   0.00000  Uiso   1.00
C508   C     0.29988   0.88864   0.72581   0.00000  Uiso   1.00
C509   C     0.30307   0.85380   0.79103   0.00000  Uiso   1.00
C510   C     0.28179   0.85467   0.88832   0.00000  Uiso   1.00
C511   C     0.25325   0.84064   0.05376   0.00000  Uiso   1.00
C512   C     0.34637   0.93383   0.62484   0.00000  Uiso   1.00
C513   C     0.38864   0.93700   0.60515   0.00000  Uiso   1.00
C514   C     0.40648   0.97592   0.61742   0.00000  Uiso   1.00
C515   C     0.45011   0.03206   0.62603   0.00000  Uiso   1.00
C516   C     0.28572   0.90395   0.53703   0.00000  Uiso   1.00
C517   C     0.27700   0.88199   0.44350   0.00000  Uiso   1.00
C518   C     0.24379   0.89576   0.38183   0.00000  Uiso   1.00
C519   C     0.19325   0.90550   0.25410   0.00000  Uiso   1.00
C520   C     0.27711   0.95780   0.67304   0.00000  Uiso   1.00
C521   C     0.27627   0.92313   0.75665   0.00000  Uiso   1.00
C522   C     0.25498   0.92406   0.85386   0.00000  Uiso   1.00
C523   C     0.25813   0.88923   0.91921   0.00000  Uiso   1.00
C524   C     0.32276   0.96833   0.65568   0.00000  Uiso   1.00
C525   C     0.34055   0.00726   0.66797   0.00000  Uiso   1.00
C526   C     0.38283   0.01048   0.64832   0.00000  Uiso   1.00
C527   C     0.26210   0.93844   0.56787   0.00000  Uiso   1.00
C528   C     0.22890   0.95225   0.50633   0.00000  Uiso   1.00
C529   C     0.22013   0.93031   0.41272   0.00000  Uiso   1.00
H530   H     0.33897   0.86745   0.59224   0.00000  Uiso   1.00
H531   H     0.32135   0.82711   0.76714   0.00000  Uiso   1.00
H532   H     0.40690   0.91030   0.58128   0.00000  Uiso   1.00
H533   H     0.29528   0.85530   0.41966   0.00000  Uiso   1.00
H534   H     0.29141   0.79761   0.97467   0.00000  Uiso   1.00
H535   H     0.47180   0.97302   0.58273   0.00000  Uiso   1.00
H536   H     0.23642   0.85704   0.24192   0.00000  Uiso   1.00
H537   H     0.25873   0.98466   0.69705   0.00000  Uiso   1.00
H538   H     0.23671   0.95075   0.87770   0.00000  Uiso   1.00
H539   H     0.32226   0.03394   0.69184   0.00000  Uiso   1.00
H540   H     0.21064   0.97894   0.53022   0.00000  Uiso   1.00
H541   H     0.22272   0.89796   0.06441   0.00000  Uiso   1.00
H542   H     0.40311   0.07337   0.67246   0.00000  Uiso   1.00
H543   H     0.16773   0.95739   0.33166   0.00000  Uiso   1.00
O544   O     0.24404   0.82338   0.13650   0.00000  Uiso   1.00
O545   O     0.48070   0.05350   0.62227   0.00000  Uiso   1.00
O546   O     0.17189   0.90134   0.17514   0.00000  Uiso   1.00
N547   N     0.27826   0.82588   0.97099   0.00000  Uiso   1.00
N548   N     0.44692   0.98987   0.60456   0.00000  Uiso   1.00
N549   N     0.22686   0.88145   0.28592   0.00000  Uiso   1.00
N550   N     0.24130   0.87988   0.01927   0.00000  Uiso   1.00
N551   N     0.40995   0.04387   0.65285   0.00000  Uiso   1.00
N552   N     0.18990   0.93545   0.33420   0.00000  Uiso   1.00
C553   C     0.39430   0.67942   0.36625   0.00000  Uiso   1.00
C554   C     0.38864   0.70012   0.47581   0.00000  Uiso   1.00
C555   C     0.35380   0.69693   0.54103   0.00000  Uiso   1.00
C556   C     0.35467   0.71821   0.63832   0.00000  Uiso   1.00
C557   C     0.34064   0.74675   0.80376   0.00000  Uiso   1.00
C558   C     0.43383   0.65363   0.37484   0.00000  Uiso   1.00
C559   C     0.43700   0.61136   0.35515   0.00000  Uiso   1.00
C560   C     0.47592   0.59352   0.36742   0.00000  Uiso   1.00
C561   C     0.53206   0.54989   0.37603   0.00000  Uiso   1.00
C562   C     0.40395   0.71428   0.28703   0.00000  Uiso   1.00
C563   C     0.38199   0.72300   0.19350   0.00000  Uiso   1.00
C564   C     0.39576   0.75621   0.13183   0.00000  Uiso   1.00
C565   C     0.40550   0.80675   0.00410   0.00000  Uiso   1.00
C566   C     0.45780   0.72289   0.42304   0.00000  Uiso   1.00
C567   C     0.42313   0.72373   0.50665   0.00000  Uiso   1.00
C568   C     0.42406   0.74502   0.60386   0.00000  Uiso   1.00
C569   C     0.38923   0.74187   0.66921   0.00000  Uiso   1.00
C570   C     0.46833   0.67724   0.40568   0.00000  Uiso   1.00
C571   C     0.50726   0.65945   0.41797   0.00000  Uiso   1.00
C572   C     0.51048   0.61717   0.39832   0.00000  Uiso   1.00
C573   C     0.43844   0.73790   0.31787   0.00000  Uiso   1.00
C574   C     0.45225   0.77110   0.25633   0.00000  Uiso   1.00
C575   C     0.43031   0.77987   0.16272   0.00000  Uiso   1.00
H576   H     0.36745   0.66103   0.34224   0.00000  Uiso   1.00
H577   H     0.32711   0.67865   0.51714   0.00000  Uiso   1.00
H578   H     0.41030   0.59310   0.33128   0.00000  Uiso   1.00
H579   H     0.35530   0.70472   0.16966   0.00000  Uiso   1.00
H580   H     0.29761   0.70859   0.72467   0.00000  Uiso   1.00
H581   H     0.47302   0.52820   0.33273   0.00000  Uiso   1.00
H582   H     0.35704   0.76358   0.99192   0.00000  Uiso   1.00
H583   H     0.48466   0.74127   0.44705   0.00000  Uiso   1.00
H584   H     0.45075   0.76329   0.62770   0.00000  Uiso   1.00
H585   H     0.53394   0.67774   0.44184   0.00000  Uiso   1.00
H586   H     0.47894   0.78936   0.28022   0.00000  Uiso   1.00
H587   H     0.39796   0.77728   0.81441   0.00000  Uiso   1.00
H588   H     0.57337   0.59689   0.42246   0.00000  Uiso   1.00
H589   H     0.45739   0.83227   0.08166   0.00000  Uiso   1.00
O590   O     0.32338   0.75596   0.88650   0.00000  Uiso   1.00
O591   O     0.55350   0.51930   0.37227   0.00000  Uiso   1.00
O592   O     0.40134   0.82811   0.92514   0.00000  Uiso   1.00
N593   N     0.32588   0.72174   0.72099   0.00000  Uiso   1.00
N594   N     0.48987   0.55308   0.35456   0.00000  Uiso   1.00
N595   N     0.38145   0.77314   0.03592   0.00000  Uiso   1.00
N596   N     0.37988   0.75870   0.76927   0.00000  Uiso   1.00
N597   N     0.54387   0.59005   0.40285   0.00000  Uiso   1.00
N598   N     0.43545   0.81010   0.08420   0.00000  Uiso   1.00
C599   C     0.89430   0.17942   0.86625   0.00000  Uiso   1.00
C600   C     0.88864   0.20012   0.97581   0.00000  Uiso   1.00
C601   C     0.85380   0.19693   0.04103   0.00000  Uiso   1.00
C602   C     0.85467   0.21821   0.13832   0.00000  Uiso   1.00
C603   C     0.84064   0.24675   0.30376   0.00000  Uiso   1.00
C604   C     0.93383   0.15363   0.87484   0.00000  Uiso   1.00
C605   C     0.93700   0.11136   0.85515   0.00000  Uiso   1.00
C606   C     0.97592   0.09352   0.86742   0.00000  Uiso   1.00
C607   C     0.03206   0.04989   0.87603   0.00000  Uiso   1.00
C608   C     0.90395   0.21428   0.78703   0.00000  Uiso   1.00
C609   C     0.88199   0.22300   0.69350   0.00000  Uiso   1.00
C610   C     0.89576   0.25621   0.63183   0.00000  Uiso   1.00
C611   C     0.90550   0.30675   0.50410   0.00000  Uiso   1.00
C612   C     0.95780   0.22289   0.92304   0.00000  Uiso   1.00
C613   C     0.92313   0.22373   0.00665   0.00000  Uiso   1.00
C614   C     0.92406   0.24502   0.10386   0.00000  Uiso   1.00
C615   C     0.88923   0.24187   0.16921   0.00000  Uiso   1.00
C616   C     0.96833   0.17724   0.90568   0.00000  Uiso   1.00
C617   C     0.00726   0.15945   0.91797   0.00000  Uiso   1.00
C618   C     0.01048   0.11717   0.89832   0.00000  Uiso   1.00
C619   C     0.93844   0.23790   0.81787   0.00000  Uiso   1.00
C620   C     0.95225   0.27110   0.75633   0.00000  Uiso   1.00
C621   C     0.93031   0.27987   0.66272   0.00000  Uiso   1.00
H622   H     0.86745   0.16103   0.84224   0.00000  Uiso   1.00
H623   H     0.82711   0.17865   0.01714   0.00000  Uiso   1.00
H624   H     0.91030   0.09310   0.83128   0.00000  Uiso   1.00
H625   H     0.85530   0.20472   0.66966   0.00000  Uiso   1.00
H626   H     0.79761   0.20859   0.22467   0.00000  Uiso   1.00
H627   H     0.97302   0.02820   0.83273   0.00000  Uiso   1.00
H628   H     0.85704   0.26358   0.49192   0.00000  Uiso   1.00
H629   H     0.98466   0.24127   0.94705   0.00000  Uiso   1.00
H630   H     0.95075   0.26329   0.12770   0.00000  Uiso   1.00
H631   H     0.03394   0.17774   0.94184   0.00000  Uiso   1.00
H632   H     0.97894   0.28936   0.78022   0.00000  Uiso   1.00
H633   H     0.89796   0.27728   0.31441   0.00000  Uiso   1.00
H634   H     0.07337   0.09689   0.92246   0.00000  Uiso   1.00
H635   H     0.95739   0.33227   0.58166   0.00000  Uiso   1.00
O636   O     0.82338   0.25596   0.38650   0.00000  Uiso   1.00
O637   O     0.05350   0.01930   0.87227   0.00000  Uiso   1.00
O638   O     0.90134   0.32811   0.42514   0.00000  Uiso   1.00
N639   N     0.82588   0.22174   0.22099   0.00000  Uiso   1.00
N640   N     0.98987   0.05308   0.85456   0.00000  Uiso   1.00
N641   N     0.88145   0.27314   0.53592   0.00000  Uiso   1.00
N642   N     0.87988   0.25870   0.26927   0.00000  Uiso   1.00
N643   N     0.04387   0.09005   0.90285   0.00000  Uiso   1.00
N644   N     0.93545   0.31010   0.58420   0.00000  Uiso   1.00
C645   C     0.10570   0.82058   0.86625   0.00000  Uiso   1.00
C646   C     0.11136   0.79988   0.97581   0.00000  Uiso   1.00
C647   C     0.14620   0.80307   0.04103   0.00000  Uiso   1.00
C648   C     0.14533   0.78179   0.13832   0.00000  Uiso   1.00
C649   C     0.15936   0.75325   0.30376   0.00000  Uiso   1.00
C650   C     0.06617   0.84637   0.87484   0.00000  Uiso   1.00
C651   C     0.06300   0.88864   0.85515   0.00000  Uiso   1.00
C652   C     0.02408   0.90648   0.86742   0.00000  Uiso   1.00
C653   C     0.96794   0.95011   0.87603   0.00000  Uiso   1.00
C654   C     0.09605   0.78572   0.78703   0.00000  Uiso   1.00
C655   C     0.11801   0.77700   0.69350   0.00000  Uiso   1.00
C656   C     0.10424   0.74379   0.63183   0.00000  Uiso   1.00
C657   C     0.09450   0.69325   0.50410   0.00000  Uiso   1.00
C658   C     0.04220   0.77711   0.92304   0.00000  Uiso   1.00
C659   C     0.07687   0.77627   0.00665   0.00000  Uiso   1.00
C660   C     0.07594   0.75498   0.10386   0.00000  Uiso   1.00
C661   C     0.11077   0.75813   0.16921   0.00000  Uiso   1.00
C662   C     0.03167   0.82276   0.90568   0.00000  Uiso   1.00
C663   C     0.99274   0.84055   0.91797   0.00000  Uiso   1.00
C664   C     0.98952   0.88283   0.89832   0.00000  Uiso   1.00
C665   C     0.06156   0.76210   0.81787   0.00000  Uiso   1.00
C666   C     0.04775   0.72890   0.75633   0.00000  Uiso   1.00
C667   C     0.06969   0.72013   0.66272   0.00000  Uiso   1.00
H668   H     0.13255   0.83897   0.84224   0.00000  Uiso   1.00
H669   H     0.17289   0.82135   0.01714   0.00000  Uiso   1.00
H670   H     0.08970   0.90690   0.83128   0.00000  Uiso   1.00
H671   H     0.14470   0.79528   0.66966   0.00000  Uiso   1.00
H672   H     0.20239   0.79141   0.22467   0.00000  Uiso   1.00
H673   H     0.02698   0.97180   0.83273   0.00000  Uiso   1.00
H674   H     0.14296   0.73642   0.49192   0.00000  Uiso   1.00
H675   H     0.01534   0.75873   0.94705   0.00000  Uiso   1.00
H676   H     0.04925   0.73671   0.12770   0.00000  Uiso   1.00
H677   H     0.96606   0.82226   0.94184   0.00000  Uiso   1.00
H678   H     0.02106   0.71064   0.78022   0.00000  Uiso   1.00
H679   H     0.10204   0.72272   0.31441   0.00000  Uiso   1.00
H680   H     0.92663   0.90311   0.92246   0.00000  Uiso   1.00
H681   H     0.04261   0.66773   0.58166   0.00000  Uiso   1.00
O682   O     0.17662   0.74404   0.38650   0.00000  Uiso   1.00
O683   O     0.94650   0.98070   0.87227   0.00000  Uiso   1.00
O684   O     0.09866   0.67189   0.42514   0.00000  Uiso   1.00
N685   N     0.17412   0.77826   0.22099   0.00000  Uiso   1.00
N686   N     0.01013   0.94692   0.85456   0.00000  Uiso   1.00
N687   N     0.11855   0.72686   0.53592   0.00000  Uiso   1.00
N688   N     0.12012   0.74130   0.26927   0.00000  Uiso   1.00
N689   N     0.95613   0.90995   0.90285   0.00000  Uiso   1.00
N690   N     0.06455   0.68990   0.58420   0.00000  Uiso   1.00
C691   C     0.60570   0.32058   0.36625   0.00000  Uiso   1.00
C692   C     0.61136   0.29988   0.47581   0.00000  Uiso   1.00
C693   C     0.64620   0.30307   0.54103   0.00000  Uiso   1.00
C694   C     0.64533   0.28179   0.63832   0.00000  Uiso   1.00
C695   C     0.65936   0.25325   0.80376   0.00000  Uiso   1.00
C696   C     0.56617   0.34637   0.37484   0.00000  Uiso   1.00
C697   C     0.56300   0.38864   0.35515   0.00000  Uiso   1.00
C698   C     0.52408   0.40648   0.36742   0.00000  Uiso   1.00
C699   C     0.46794   0.45011   0.37603   0.00000  Uiso   1.00
C700   C     0.59605   0.28572   0.28703   0.00000  Uiso   1.00
C701   C     0.61801   0.27700   0.19350   0.00000  Uiso   1.00
C702   C     0.60424   0.24379   0.13183   0.00000  Uiso   1.00
C703   C     0.59450   0.19325   0.00410   0.00000  Uiso   1.00
C704   C     0.54220   0.27711   0.42304   0.00000  Uiso   1.00
C705   C     0.57687   0.27627   0.50665   0.00000  Uiso   1.00
C706   C     0.57594   0.25498   0.60386   0.00000  Uiso   1.00
C707   C     0.61077   0.25813   0.66921   0.00000  Uiso   1.00
C708   C     0.53167   0.32276   0.40568   0.00000  Uiso   1.00
C709   C     0.49274   0.34055   0.41797   0.00000  Uiso   1.00
C710   C     0.48952   0.38283   0.39832   0.00000  Uiso   1.00
C711   C     0.56156   0.26210   0.31787   0.00000  Uiso   1.00
C712   C     0.54775   0.22890   0.25633   0.00000  Uiso   1.00
C713   C     0.56969   0.22013   0.16272   0.00000  Uiso   1.00
H714   H     0.63255   0.33897   0.34224   0.00000  Uiso   1.00
H715   H     0.67289   0.32135   0.51714   0.00000  Uiso   1.00
H716   H     0.58970   0.40690   0.33128   0.00000  Uiso   1.00
H717   H     0.64470   0.29528   0.16966   0.00000  Uiso   1.00
H718   H     0.70239   0.29141   0.72467   0.00000  Uiso   1.00
H719   H     0.52698   0.47180   0.33273   0.00000  Uiso   1.00
H720   H     0.64296   0.23642   0.99192   0.00000  Uiso   1.00
H721   H     0.51534   0.25873   0.44705   0.00000  Uiso   1.00
H722   H     0.54925   0.23671   0.62770   0.00000  Uiso   1.00
H723   H     0.46606   0.32226   0.44184   0.00000  Uiso   1.00
H724   H     0.52106   0.21064   0.28022   0.00000  Uiso   1.00
H725   H     0.60204   0.22272   0.81441   0.00000  Uiso   1.00
H726   H     0.42663   0.40311   0.42246   0.00000  Uiso   1.00
H727   H     0.54261   0.16773   0.08166   0.00000  Uiso   1.00
O728   O     0.67662   0.24404   0.88650   0.00000  Uiso   1.00
O729   O     0.44650   0.48070   0.37227   0.00000  Uiso   1.00
O730   O     0.59866   0.17189   0.92514   0.00000  Uiso   1.00
N731   N     0.67412   0.27826   0.72099   0.00000  Uiso   1.00
N732   N     0.51013   0.44692   0.35456   0.00000  Uiso   1.00
N733   N     0.61855   0.22686   0.03592   0.00000  Uiso   1.00
N734   N     0.62012   0.24130   0.76927   0.00000  Uiso   1.00
N735   N     0.45613   0.40995   0.40285   0.00000  Uiso   1.00
N736   N     0.56455   0.18990   0.08420   0.00000  Uiso   1.00
