data_job_01989
_audit_creation_date              2018-12-19
_audit_creation_method            'Materials Studio'
_symmetry_space_group_name_H-M    'P1'
_symmetry_Int_Tables_number       1
_symmetry_cell_setting            triclinic
loop_
_symmetry_equiv_pos_as_xyz
  x,y,z
_cell_length_a                    29.4934
_cell_length_b                    29.4934
_cell_length_c                    14.2148
_cell_angle_alpha                 90.0000
_cell_angle_beta                  90.0000
_cell_angle_gamma                 90.0000
loop_
_atom_site_label
_atom_site_type_symbol
_atom_site_fract_x
_atom_site_fract_y
_atom_site_fract_z
_atom_site_U_iso_or_equiv
_atom_site_adp_type
_atom_site_occupancy
C1     C     0.23832   0.57680   0.58240   0.00000  Uiso   1.00
C2     C     0.25663   0.58573   0.48380   0.00000  Uiso   1.00
C3     C     0.23412   0.57660   0.40020   0.00000  Uiso   1.00
C4     C     0.25665   0.58723   0.31733   0.00000  Uiso   1.00
C5     C     0.27848   0.59818   0.16411   0.00000  Uiso   1.00
C6     C     0.27319   0.54656   0.63073   0.00000  Uiso   1.00
C7     C     0.26459   0.50449   0.67067   0.00000  Uiso   1.00
C8     C     0.30106   0.48214   0.71149   0.00000  Uiso   1.00
C9     C     0.34859   0.43228   0.78644   0.00000  Uiso   1.00
C10    C     0.23999   0.62218   0.63369   0.00000  Uiso   1.00
C11    C     0.20348   0.64369   0.67614   0.00000  Uiso   1.00
C12    C     0.21200   0.68501   0.71947   0.00000  Uiso   1.00
C13    C     0.20798   0.75257   0.79901   0.00000  Uiso   1.00
C14    C     0.31837   0.61193   0.58390   0.00000  Uiso   1.00
C15    C     0.30011   0.60481   0.48462   0.00000  Uiso   1.00
C16    C     0.32268   0.61546   0.40185   0.00000  Uiso   1.00
C17    C     0.30021   0.60635   0.31814   0.00000  Uiso   1.00
C18    C     0.31667   0.56563   0.63154   0.00000  Uiso   1.00
C19    C     0.35315   0.54335   0.67232   0.00000  Uiso   1.00
C20    C     0.34462   0.50126   0.71230   0.00000  Uiso   1.00
C21    C     0.28347   0.64126   0.63450   0.00000  Uiso   1.00
C22    C     0.29204   0.68255   0.67779   0.00000  Uiso   1.00
C23    C     0.25556   0.70412   0.72029   0.00000  Uiso   1.00
H24    H     0.20447   0.56194   0.58177   0.00000  Uiso   1.00
H25    H     0.20047   0.56183   0.39960   0.00000  Uiso   1.00
H26    H     0.23094   0.48973   0.67003   0.00000  Uiso   1.00
H27    H     0.16984   0.62891   0.67549   0.00000  Uiso   1.00
H28    H     0.21522   0.57010   0.19799   0.00000  Uiso   1.00
H29    H     0.27946   0.41809   0.76824   0.00000  Uiso   1.00
H30    H     0.15062   0.71158   0.77976   0.00000  Uiso   1.00
H31    H     0.35222   0.62678   0.58453   0.00000  Uiso   1.00
H32    H     0.35633   0.63023   0.40251   0.00000  Uiso   1.00
H33    H     0.38680   0.55813   0.67294   0.00000  Uiso   1.00
H34    H     0.32569   0.69731   0.67840   0.00000  Uiso   1.00
H35    H     0.34172   0.62561   0.20035   0.00000  Uiso   1.00
H36    H     0.40596   0.47360   0.77061   0.00000  Uiso   1.00
H37    H     0.27712   0.76709   0.78212   0.00000  Uiso   1.00
O38    O     0.27852   0.59894   0.07938   0.00000  Uiso   1.00
O39    O     0.36279   0.39950   0.82754   0.00000  Uiso   1.00
O40    O     0.19375   0.78456   0.84265   0.00000  Uiso   1.00
N41    N     0.24443   0.58270   0.22352   0.00000  Uiso   1.00
N42    N     0.30449   0.44057   0.75666   0.00000  Uiso   1.00
N43    N     0.18403   0.71496   0.76746   0.00000  Uiso   1.00
N44    N     0.31250   0.61257   0.22479   0.00000  Uiso   1.00
N45    N     0.37256   0.47044   0.75793   0.00000  Uiso   1.00
N46    N     0.25210   0.74483   0.76873   0.00000  Uiso   1.00
C47    C     0.73832   0.07680   0.08240   0.00000  Uiso   1.00
C48    C     0.75663   0.08573   0.98380   0.00000  Uiso   1.00
C49    C     0.73412   0.07660   0.90020   0.00000  Uiso   1.00
C50    C     0.75665   0.08723   0.81733   0.00000  Uiso   1.00
C51    C     0.77848   0.09818   0.66411   0.00000  Uiso   1.00
C52    C     0.77319   0.04656   0.13073   0.00000  Uiso   1.00
C53    C     0.76459   0.00449   0.17067   0.00000  Uiso   1.00
C54    C     0.80106   0.98214   0.21149   0.00000  Uiso   1.00
C55    C     0.84859   0.93228   0.28644   0.00000  Uiso   1.00
C56    C     0.73999   0.12218   0.13369   0.00000  Uiso   1.00
C57    C     0.70348   0.14369   0.17614   0.00000  Uiso   1.00
C58    C     0.71200   0.18501   0.21947   0.00000  Uiso   1.00
C59    C     0.70798   0.25257   0.29901   0.00000  Uiso   1.00
C60    C     0.81837   0.11193   0.08390   0.00000  Uiso   1.00
C61    C     0.80011   0.10481   0.98462   0.00000  Uiso   1.00
C62    C     0.82268   0.11546   0.90185   0.00000  Uiso   1.00
C63    C     0.80021   0.10635   0.81814   0.00000  Uiso   1.00
C64    C     0.81667   0.06563   0.13154   0.00000  Uiso   1.00
C65    C     0.85315   0.04335   0.17232   0.00000  Uiso   1.00
C66    C     0.84462   0.00126   0.21230   0.00000  Uiso   1.00
C67    C     0.78347   0.14126   0.13450   0.00000  Uiso   1.00
C68    C     0.79204   0.18255   0.17779   0.00000  Uiso   1.00
C69    C     0.75556   0.20412   0.22029   0.00000  Uiso   1.00
H70    H     0.70447   0.06194   0.08177   0.00000  Uiso   1.00
H71    H     0.70047   0.06183   0.89960   0.00000  Uiso   1.00
H72    H     0.73094   0.98973   0.17003   0.00000  Uiso   1.00
H73    H     0.66984   0.12891   0.17549   0.00000  Uiso   1.00
H74    H     0.71522   0.07010   0.69799   0.00000  Uiso   1.00
H75    H     0.77946   0.91809   0.26824   0.00000  Uiso   1.00
H76    H     0.65062   0.21158   0.27976   0.00000  Uiso   1.00
H77    H     0.85222   0.12678   0.08453   0.00000  Uiso   1.00
H78    H     0.85633   0.13023   0.90251   0.00000  Uiso   1.00
H79    H     0.88680   0.05813   0.17294   0.00000  Uiso   1.00
H80    H     0.82569   0.19731   0.17840   0.00000  Uiso   1.00
H81    H     0.84172   0.12561   0.70035   0.00000  Uiso   1.00
H82    H     0.90596   0.97360   0.27061   0.00000  Uiso   1.00
H83    H     0.77712   0.26709   0.28212   0.00000  Uiso   1.00
O84    O     0.77852   0.09894   0.57938   0.00000  Uiso   1.00
O85    O     0.86279   0.89950   0.32754   0.00000  Uiso   1.00
O86    O     0.69375   0.28456   0.34265   0.00000  Uiso   1.00
N87    N     0.74443   0.08270   0.72352   0.00000  Uiso   1.00
N88    N     0.80449   0.94057   0.25666   0.00000  Uiso   1.00
N89    N     0.68403   0.21496   0.26746   0.00000  Uiso   1.00
N90    N     0.81250   0.11257   0.72479   0.00000  Uiso   1.00
N91    N     0.87256   0.97044   0.25793   0.00000  Uiso   1.00
N92    N     0.75210   0.24483   0.26873   0.00000  Uiso   1.00
C93    C     0.26168   0.92320   0.08240   0.00000  Uiso   1.00
C94    C     0.24337   0.91427   0.98380   0.00000  Uiso   1.00
C95    C     0.26588   0.92340   0.90020   0.00000  Uiso   1.00
C96    C     0.24335   0.91277   0.81733   0.00000  Uiso   1.00
C97    C     0.22152   0.90182   0.66411   0.00000  Uiso   1.00
C98    C     0.22681   0.95344   0.13073   0.00000  Uiso   1.00
C99    C     0.23541   0.99551   0.17067   0.00000  Uiso   1.00
C100   C     0.19894   0.01786   0.21149   0.00000  Uiso   1.00
C101   C     0.15141   0.06772   0.28644   0.00000  Uiso   1.00
C102   C     0.26001   0.87782   0.13369   0.00000  Uiso   1.00
C103   C     0.29652   0.85631   0.17614   0.00000  Uiso   1.00
C104   C     0.28800   0.81499   0.21947   0.00000  Uiso   1.00
C105   C     0.29202   0.74743   0.29901   0.00000  Uiso   1.00
C106   C     0.18163   0.88807   0.08390   0.00000  Uiso   1.00
C107   C     0.19989   0.89519   0.98462   0.00000  Uiso   1.00
C108   C     0.17732   0.88454   0.90185   0.00000  Uiso   1.00
C109   C     0.19979   0.89365   0.81814   0.00000  Uiso   1.00
C110   C     0.18333   0.93437   0.13154   0.00000  Uiso   1.00
C111   C     0.14685   0.95665   0.17232   0.00000  Uiso   1.00
C112   C     0.15538   0.99874   0.21230   0.00000  Uiso   1.00
C113   C     0.21653   0.85874   0.13450   0.00000  Uiso   1.00
C114   C     0.20796   0.81745   0.17779   0.00000  Uiso   1.00
C115   C     0.24444   0.79588   0.22029   0.00000  Uiso   1.00
H116   H     0.29553   0.93806   0.08177   0.00000  Uiso   1.00
H117   H     0.29953   0.93817   0.89960   0.00000  Uiso   1.00
H118   H     0.26906   0.01027   0.17003   0.00000  Uiso   1.00
H119   H     0.33016   0.87109   0.17549   0.00000  Uiso   1.00
H120   H     0.28478   0.92990   0.69799   0.00000  Uiso   1.00
H121   H     0.22054   0.08191   0.26824   0.00000  Uiso   1.00
H122   H     0.34938   0.78842   0.27976   0.00000  Uiso   1.00
H123   H     0.14778   0.87322   0.08453   0.00000  Uiso   1.00
H124   H     0.14367   0.86977   0.90251   0.00000  Uiso   1.00
H125   H     0.11320   0.94187   0.17294   0.00000  Uiso   1.00
H126   H     0.17431   0.80269   0.17840   0.00000  Uiso   1.00
H127   H     0.15828   0.87439   0.70035   0.00000  Uiso   1.00
H128   H     0.09404   0.02640   0.27061   0.00000  Uiso   1.00
H129   H     0.22288   0.73291   0.28212   0.00000  Uiso   1.00
O130   O     0.22148   0.90106   0.57938   0.00000  Uiso   1.00
O131   O     0.13721   0.10050   0.32754   0.00000  Uiso   1.00
O132   O     0.30625   0.71544   0.34265   0.00000  Uiso   1.00
N133   N     0.25557   0.91730   0.72352   0.00000  Uiso   1.00
N134   N     0.19551   0.05943   0.25666   0.00000  Uiso   1.00
N135   N     0.31597   0.78504   0.26746   0.00000  Uiso   1.00
N136   N     0.18750   0.88743   0.72479   0.00000  Uiso   1.00
N137   N     0.12744   0.02956   0.25793   0.00000  Uiso   1.00
N138   N     0.24790   0.75517   0.26873   0.00000  Uiso   1.00
C139   C     0.76168   0.42320   0.58240   0.00000  Uiso   1.00
C140   C     0.74337   0.41427   0.48380   0.00000  Uiso   1.00
C141   C     0.76588   0.42340   0.40020   0.00000  Uiso   1.00
C142   C     0.74335   0.41277   0.31733   0.00000  Uiso   1.00
C143   C     0.72152   0.40182   0.16411   0.00000  Uiso   1.00
C144   C     0.72681   0.45344   0.63073   0.00000  Uiso   1.00
C145   C     0.73541   0.49551   0.67067   0.00000  Uiso   1.00
C146   C     0.69894   0.51786   0.71149   0.00000  Uiso   1.00
C147   C     0.65141   0.56772   0.78644   0.00000  Uiso   1.00
C148   C     0.76001   0.37782   0.63369   0.00000  Uiso   1.00
C149   C     0.79652   0.35631   0.67614   0.00000  Uiso   1.00
C150   C     0.78800   0.31499   0.71947   0.00000  Uiso   1.00
C151   C     0.79202   0.24743   0.79901   0.00000  Uiso   1.00
C152   C     0.68163   0.38807   0.58390   0.00000  Uiso   1.00
C153   C     0.69989   0.39519   0.48462   0.00000  Uiso   1.00
C154   C     0.67732   0.38454   0.40185   0.00000  Uiso   1.00
C155   C     0.69979   0.39365   0.31814   0.00000  Uiso   1.00
C156   C     0.68333   0.43437   0.63154   0.00000  Uiso   1.00
C157   C     0.64685   0.45665   0.67232   0.00000  Uiso   1.00
C158   C     0.65538   0.49874   0.71230   0.00000  Uiso   1.00
C159   C     0.71653   0.35874   0.63450   0.00000  Uiso   1.00
C160   C     0.70796   0.31745   0.67779   0.00000  Uiso   1.00
C161   C     0.74444   0.29588   0.72029   0.00000  Uiso   1.00
H162   H     0.79553   0.43806   0.58177   0.00000  Uiso   1.00
H163   H     0.79953   0.43817   0.39960   0.00000  Uiso   1.00
H164   H     0.76906   0.51027   0.67003   0.00000  Uiso   1.00
H165   H     0.83016   0.37109   0.67549   0.00000  Uiso   1.00
H166   H     0.78478   0.42990   0.19799   0.00000  Uiso   1.00
H167   H     0.72054   0.58191   0.76824   0.00000  Uiso   1.00
H168   H     0.84938   0.28842   0.77976   0.00000  Uiso   1.00
H169   H     0.64778   0.37322   0.58453   0.00000  Uiso   1.00
H170   H     0.64367   0.36977   0.40251   0.00000  Uiso   1.00
H171   H     0.61320   0.44187   0.67294   0.00000  Uiso   1.00
H172   H     0.67431   0.30269   0.67840   0.00000  Uiso   1.00
H173   H     0.65828   0.37439   0.20035   0.00000  Uiso   1.00
H174   H     0.59404   0.52640   0.77061   0.00000  Uiso   1.00
H175   H     0.72288   0.23291   0.78212   0.00000  Uiso   1.00
O176   O     0.72148   0.40106   0.07938   0.00000  Uiso   1.00
O177   O     0.63721   0.60050   0.82754   0.00000  Uiso   1.00
O178   O     0.80625   0.21544   0.84265   0.00000  Uiso   1.00
N179   N     0.75557   0.41730   0.22352   0.00000  Uiso   1.00
N180   N     0.69551   0.55943   0.75666   0.00000  Uiso   1.00
N181   N     0.81597   0.28504   0.76746   0.00000  Uiso   1.00
N182   N     0.68750   0.38743   0.22479   0.00000  Uiso   1.00
N183   N     0.62744   0.52956   0.75793   0.00000  Uiso   1.00
N184   N     0.74790   0.25517   0.76873   0.00000  Uiso   1.00
C185   C     0.42320   0.73832   0.83240   0.00000  Uiso   1.00
C186   C     0.41427   0.75663   0.73380   0.00000  Uiso   1.00
C187   C     0.42340   0.73412   0.65020   0.00000  Uiso   1.00
C188   C     0.41277   0.75665   0.56733   0.00000  Uiso   1.00
C189   C     0.40182   0.77848   0.41411   0.00000  Uiso   1.00
C190   C     0.45344   0.77319   0.88073   0.00000  Uiso   1.00
C191   C     0.49551   0.76459   0.92067   0.00000  Uiso   1.00
C192   C     0.51786   0.80106   0.96149   0.00000  Uiso   1.00
C193   C     0.56772   0.84859   0.03644   0.00000  Uiso   1.00
C194   C     0.37782   0.73999   0.88369   0.00000  Uiso   1.00
C195   C     0.35631   0.70348   0.92614   0.00000  Uiso   1.00
C196   C     0.31499   0.71200   0.96947   0.00000  Uiso   1.00
C197   C     0.24743   0.70798   0.04901   0.00000  Uiso   1.00
C198   C     0.38807   0.81837   0.83390   0.00000  Uiso   1.00
C199   C     0.39519   0.80011   0.73462   0.00000  Uiso   1.00
C200   C     0.38454   0.82268   0.65185   0.00000  Uiso   1.00
C201   C     0.39365   0.80021   0.56814   0.00000  Uiso   1.00
C202   C     0.43437   0.81667   0.88154   0.00000  Uiso   1.00
C203   C     0.45665   0.85315   0.92232   0.00000  Uiso   1.00
C204   C     0.49874   0.84462   0.96230   0.00000  Uiso   1.00
C205   C     0.35874   0.78347   0.88450   0.00000  Uiso   1.00
C206   C     0.31745   0.79204   0.92779   0.00000  Uiso   1.00
C207   C     0.29588   0.75556   0.97029   0.00000  Uiso   1.00
H208   H     0.43806   0.70447   0.83177   0.00000  Uiso   1.00
H209   H     0.43817   0.70047   0.64960   0.00000  Uiso   1.00
H210   H     0.51027   0.73094   0.92003   0.00000  Uiso   1.00
H211   H     0.37109   0.66984   0.92549   0.00000  Uiso   1.00
H212   H     0.42990   0.71522   0.44799   0.00000  Uiso   1.00
H213   H     0.58191   0.77946   0.01824   0.00000  Uiso   1.00
H214   H     0.28842   0.65062   0.02976   0.00000  Uiso   1.00
H215   H     0.37322   0.85222   0.83453   0.00000  Uiso   1.00
H216   H     0.36977   0.85633   0.65251   0.00000  Uiso   1.00
H217   H     0.44187   0.88680   0.92294   0.00000  Uiso   1.00
H218   H     0.30269   0.82569   0.92840   0.00000  Uiso   1.00
H219   H     0.37439   0.84172   0.45035   0.00000  Uiso   1.00
H220   H     0.52640   0.90596   0.02061   0.00000  Uiso   1.00
H221   H     0.23291   0.77712   0.03212   0.00000  Uiso   1.00
O222   O     0.40106   0.77852   0.32938   0.00000  Uiso   1.00
O223   O     0.60050   0.86279   0.07754   0.00000  Uiso   1.00
O224   O     0.21544   0.69375   0.09265   0.00000  Uiso   1.00
N225   N     0.41730   0.74443   0.47352   0.00000  Uiso   1.00
N226   N     0.55943   0.80449   0.00666   0.00000  Uiso   1.00
N227   N     0.28504   0.68403   0.01746   0.00000  Uiso   1.00
N228   N     0.38743   0.81250   0.47479   0.00000  Uiso   1.00
N229   N     0.52956   0.87256   0.00793   0.00000  Uiso   1.00
N230   N     0.25517   0.75210   0.01873   0.00000  Uiso   1.00
C231   C     0.92320   0.23832   0.33240   0.00000  Uiso   1.00
C232   C     0.91427   0.25663   0.23380   0.00000  Uiso   1.00
C233   C     0.92340   0.23412   0.15020   0.00000  Uiso   1.00
C234   C     0.91277   0.25665   0.06733   0.00000  Uiso   1.00
C235   C     0.90182   0.27848   0.91411   0.00000  Uiso   1.00
C236   C     0.95344   0.27319   0.38073   0.00000  Uiso   1.00
C237   C     0.99551   0.26459   0.42067   0.00000  Uiso   1.00
C238   C     0.01786   0.30106   0.46149   0.00000  Uiso   1.00
C239   C     0.06772   0.34859   0.53644   0.00000  Uiso   1.00
C240   C     0.87782   0.23999   0.38369   0.00000  Uiso   1.00
C241   C     0.85631   0.20348   0.42614   0.00000  Uiso   1.00
C242   C     0.81499   0.21200   0.46947   0.00000  Uiso   1.00
C243   C     0.74743   0.20798   0.54901   0.00000  Uiso   1.00
C244   C     0.88807   0.31837   0.33390   0.00000  Uiso   1.00
C245   C     0.89519   0.30011   0.23462   0.00000  Uiso   1.00
C246   C     0.88454   0.32268   0.15185   0.00000  Uiso   1.00
C247   C     0.89365   0.30021   0.06814   0.00000  Uiso   1.00
C248   C     0.93437   0.31667   0.38154   0.00000  Uiso   1.00
C249   C     0.95665   0.35315   0.42232   0.00000  Uiso   1.00
C250   C     0.99874   0.34462   0.46230   0.00000  Uiso   1.00
C251   C     0.85874   0.28347   0.38450   0.00000  Uiso   1.00
C252   C     0.81745   0.29204   0.42779   0.00000  Uiso   1.00
C253   C     0.79588   0.25556   0.47029   0.00000  Uiso   1.00
H254   H     0.93806   0.20447   0.33177   0.00000  Uiso   1.00
H255   H     0.93817   0.20047   0.14960   0.00000  Uiso   1.00
H256   H     0.01027   0.23094   0.42003   0.00000  Uiso   1.00
H257   H     0.87109   0.16984   0.42549   0.00000  Uiso   1.00
H258   H     0.92990   0.21522   0.94799   0.00000  Uiso   1.00
H259   H     0.08191   0.27946   0.51824   0.00000  Uiso   1.00
H260   H     0.78842   0.15062   0.52976   0.00000  Uiso   1.00
H261   H     0.87322   0.35222   0.33453   0.00000  Uiso   1.00
H262   H     0.86977   0.35633   0.15251   0.00000  Uiso   1.00
H263   H     0.94187   0.38680   0.42294   0.00000  Uiso   1.00
H264   H     0.80269   0.32569   0.42840   0.00000  Uiso   1.00
H265   H     0.87439   0.34172   0.95035   0.00000  Uiso   1.00
H266   H     0.02640   0.40596   0.52061   0.00000  Uiso   1.00
H267   H     0.73291   0.27712   0.53212   0.00000  Uiso   1.00
O268   O     0.90106   0.27852   0.82938   0.00000  Uiso   1.00
O269   O     0.10050   0.36279   0.57754   0.00000  Uiso   1.00
O270   O     0.71544   0.19375   0.59265   0.00000  Uiso   1.00
N271   N     0.91730   0.24443   0.97352   0.00000  Uiso   1.00
N272   N     0.05943   0.30449   0.50666   0.00000  Uiso   1.00
N273   N     0.78504   0.18403   0.51746   0.00000  Uiso   1.00
N274   N     0.88743   0.31250   0.97479   0.00000  Uiso   1.00
N275   N     0.02956   0.37256   0.50793   0.00000  Uiso   1.00
N276   N     0.75517   0.25210   0.51873   0.00000  Uiso   1.00
C277   C     0.07680   0.76168   0.33240   0.00000  Uiso   1.00
C278   C     0.08573   0.74337   0.23380   0.00000  Uiso   1.00
C279   C     0.07660   0.76588   0.15020   0.00000  Uiso   1.00
C280   C     0.08723   0.74335   0.06733   0.00000  Uiso   1.00
C281   C     0.09818   0.72152   0.91411   0.00000  Uiso   1.00
C282   C     0.04656   0.72681   0.38073   0.00000  Uiso   1.00
C283   C     0.00449   0.73541   0.42067   0.00000  Uiso   1.00
C284   C     0.98214   0.69894   0.46149   0.00000  Uiso   1.00
C285   C     0.93228   0.65141   0.53644   0.00000  Uiso   1.00
C286   C     0.12218   0.76001   0.38369   0.00000  Uiso   1.00
C287   C     0.14369   0.79652   0.42614   0.00000  Uiso   1.00
C288   C     0.18501   0.78800   0.46947   0.00000  Uiso   1.00
C289   C     0.25257   0.79202   0.54901   0.00000  Uiso   1.00
C290   C     0.11193   0.68163   0.33390   0.00000  Uiso   1.00
C291   C     0.10481   0.69989   0.23462   0.00000  Uiso   1.00
C292   C     0.11546   0.67732   0.15185   0.00000  Uiso   1.00
C293   C     0.10635   0.69979   0.06814   0.00000  Uiso   1.00
C294   C     0.06563   0.68333   0.38154   0.00000  Uiso   1.00
C295   C     0.04335   0.64685   0.42232   0.00000  Uiso   1.00
C296   C     0.00126   0.65538   0.46230   0.00000  Uiso   1.00
C297   C     0.14126   0.71653   0.38450   0.00000  Uiso   1.00
C298   C     0.18255   0.70796   0.42779   0.00000  Uiso   1.00
C299   C     0.20412   0.74444   0.47029   0.00000  Uiso   1.00
H300   H     0.06194   0.79553   0.33177   0.00000  Uiso   1.00
H301   H     0.06183   0.79953   0.14960   0.00000  Uiso   1.00
H302   H     0.98973   0.76906   0.42003   0.00000  Uiso   1.00
H303   H     0.12891   0.83016   0.42549   0.00000  Uiso   1.00
H304   H     0.07010   0.78478   0.94799   0.00000  Uiso   1.00
H305   H     0.91809   0.72054   0.51824   0.00000  Uiso   1.00
H306   H     0.21158   0.84938   0.52976   0.00000  Uiso   1.00
H307   H     0.12678   0.64778   0.33453   0.00000  Uiso   1.00
H308   H     0.13023   0.64367   0.15251   0.00000  Uiso   1.00
H309   H     0.05813   0.61320   0.42294   0.00000  Uiso   1.00
H310   H     0.19731   0.67431   0.42840   0.00000  Uiso   1.00
H311   H     0.12561   0.65828   0.95035   0.00000  Uiso   1.00
H312   H     0.97360   0.59404   0.52061   0.00000  Uiso   1.00
H313   H     0.26709   0.72288   0.53212   0.00000  Uiso   1.00
O314   O     0.09894   0.72148   0.82938   0.00000  Uiso   1.00
O315   O     0.89950   0.63721   0.57754   0.00000  Uiso   1.00
O316   O     0.28456   0.80625   0.59265   0.00000  Uiso   1.00
N317   N     0.08270   0.75557   0.97352   0.00000  Uiso   1.00
N318   N     0.94057   0.69551   0.50666   0.00000  Uiso   1.00
N319   N     0.21496   0.81597   0.51746   0.00000  Uiso   1.00
N320   N     0.11257   0.68750   0.97479   0.00000  Uiso   1.00
N321   N     0.97044   0.62744   0.50793   0.00000  Uiso   1.00
N322   N     0.24483   0.74790   0.51873   0.00000  Uiso   1.00
C323   C     0.57680   0.26168   0.83240   0.00000  Uiso   1.00
C324   C     0.58573   0.24337   0.73380   0.00000  Uiso   1.00
C325   C     0.57660   0.26588   0.65020   0.00000  Uiso   1.00
C326   C     0.58723   0.24335   0.56733   0.00000  Uiso   1.00
C327   C     0.59818   0.22152   0.41411   0.00000  Uiso   1.00
C328   C     0.54656   0.22681   0.88073   0.00000  Uiso   1.00
C329   C     0.50449   0.23541   0.92067   0.00000  Uiso   1.00
C330   C     0.48214   0.19894   0.96149   0.00000  Uiso   1.00
C331   C     0.43228   0.15141   0.03644   0.00000  Uiso   1.00
C332   C     0.62218   0.26001   0.88369   0.00000  Uiso   1.00
C333   C     0.64369   0.29652   0.92614   0.00000  Uiso   1.00
C334   C     0.68501   0.28800   0.96947   0.00000  Uiso   1.00
C335   C     0.75257   0.29202   0.04901   0.00000  Uiso   1.00
C336   C     0.61193   0.18163   0.83390   0.00000  Uiso   1.00
C337   C     0.60481   0.19989   0.73462   0.00000  Uiso   1.00
C338   C     0.61546   0.17732   0.65185   0.00000  Uiso   1.00
C339   C     0.60635   0.19979   0.56814   0.00000  Uiso   1.00
C340   C     0.56563   0.18333   0.88154   0.00000  Uiso   1.00
C341   C     0.54335   0.14685   0.92232   0.00000  Uiso   1.00
C342   C     0.50126   0.15538   0.96230   0.00000  Uiso   1.00
C343   C     0.64126   0.21653   0.88450   0.00000  Uiso   1.00
C344   C     0.68255   0.20796   0.92779   0.00000  Uiso   1.00
C345   C     0.70412   0.24444   0.97029   0.00000  Uiso   1.00
H346   H     0.56194   0.29553   0.83177   0.00000  Uiso   1.00
H347   H     0.56183   0.29953   0.64960   0.00000  Uiso   1.00
H348   H     0.48973   0.26906   0.92003   0.00000  Uiso   1.00
H349   H     0.62891   0.33016   0.92549   0.00000  Uiso   1.00
H350   H     0.57010   0.28478   0.44799   0.00000  Uiso   1.00
H351   H     0.41809   0.22054   0.01824   0.00000  Uiso   1.00
H352   H     0.71158   0.34938   0.02976   0.00000  Uiso   1.00
H353   H     0.62678   0.14778   0.83453   0.00000  Uiso   1.00
H354   H     0.63023   0.14367   0.65251   0.00000  Uiso   1.00
H355   H     0.55813   0.11320   0.92294   0.00000  Uiso   1.00
H356   H     0.69731   0.17431   0.92840   0.00000  Uiso   1.00
H357   H     0.62561   0.15828   0.45035   0.00000  Uiso   1.00
H358   H     0.47360   0.09404   0.02061   0.00000  Uiso   1.00
H359   H     0.76709   0.22288   0.03212   0.00000  Uiso   1.00
O360   O     0.59894   0.22148   0.32938   0.00000  Uiso   1.00
O361   O     0.39950   0.13721   0.07754   0.00000  Uiso   1.00
O362   O     0.78456   0.30625   0.09265   0.00000  Uiso   1.00
N363   N     0.58270   0.25557   0.47352   0.00000  Uiso   1.00
N364   N     0.44057   0.19551   0.00666   0.00000  Uiso   1.00
N365   N     0.71496   0.31597   0.01746   0.00000  Uiso   1.00
N366   N     0.61257   0.18750   0.47479   0.00000  Uiso   1.00
N367   N     0.47044   0.12744   0.00793   0.00000  Uiso   1.00
N368   N     0.74483   0.24790   0.01873   0.00000  Uiso   1.00
C369   C     0.76168   0.92320   0.66760   0.00000  Uiso   1.00
C370   C     0.74337   0.91427   0.76620   0.00000  Uiso   1.00
C371   C     0.76588   0.92340   0.84980   0.00000  Uiso   1.00
C372   C     0.74335   0.91277   0.93267   0.00000  Uiso   1.00
C373   C     0.72152   0.90182   0.08589   0.00000  Uiso   1.00
C374   C     0.72681   0.95344   0.61927   0.00000  Uiso   1.00
C375   C     0.73541   0.99551   0.57933   0.00000  Uiso   1.00
C376   C     0.69894   0.01786   0.53851   0.00000  Uiso   1.00
C377   C     0.65141   0.06772   0.46356   0.00000  Uiso   1.00
C378   C     0.76001   0.87782   0.61631   0.00000  Uiso   1.00
C379   C     0.79652   0.85631   0.57386   0.00000  Uiso   1.00
C380   C     0.78800   0.81499   0.53053   0.00000  Uiso   1.00
C381   C     0.79202   0.74743   0.45099   0.00000  Uiso   1.00
C382   C     0.68163   0.88807   0.66610   0.00000  Uiso   1.00
C383   C     0.69989   0.89519   0.76538   0.00000  Uiso   1.00
C384   C     0.67732   0.88454   0.84815   0.00000  Uiso   1.00
C385   C     0.69979   0.89365   0.93186   0.00000  Uiso   1.00
C386   C     0.68333   0.93437   0.61846   0.00000  Uiso   1.00
C387   C     0.64685   0.95665   0.57768   0.00000  Uiso   1.00
C388   C     0.65538   0.99874   0.53770   0.00000  Uiso   1.00
C389   C     0.71653   0.85874   0.61550   0.00000  Uiso   1.00
C390   C     0.70796   0.81745   0.57221   0.00000  Uiso   1.00
C391   C     0.74444   0.79588   0.52971   0.00000  Uiso   1.00
H392   H     0.79553   0.93806   0.66823   0.00000  Uiso   1.00
H393   H     0.79953   0.93817   0.85040   0.00000  Uiso   1.00
H394   H     0.76906   0.01027   0.57997   0.00000  Uiso   1.00
H395   H     0.83016   0.87109   0.57451   0.00000  Uiso   1.00
H396   H     0.78478   0.92990   0.05201   0.00000  Uiso   1.00
H397   H     0.72054   0.08191   0.48176   0.00000  Uiso   1.00
H398   H     0.84938   0.78842   0.47024   0.00000  Uiso   1.00
H399   H     0.64778   0.87322   0.66547   0.00000  Uiso   1.00
H400   H     0.64367   0.86977   0.84749   0.00000  Uiso   1.00
H401   H     0.61320   0.94187   0.57706   0.00000  Uiso   1.00
H402   H     0.67431   0.80269   0.57160   0.00000  Uiso   1.00
H403   H     0.65828   0.87439   0.04965   0.00000  Uiso   1.00
H404   H     0.59404   0.02640   0.47939   0.00000  Uiso   1.00
H405   H     0.72288   0.73291   0.46788   0.00000  Uiso   1.00
O406   O     0.72148   0.90106   0.17062   0.00000  Uiso   1.00
O407   O     0.63721   0.10050   0.42246   0.00000  Uiso   1.00
O408   O     0.80625   0.71544   0.40735   0.00000  Uiso   1.00
N409   N     0.75557   0.91730   0.02648   0.00000  Uiso   1.00
N410   N     0.69551   0.05943   0.49334   0.00000  Uiso   1.00
N411   N     0.81597   0.78504   0.48254   0.00000  Uiso   1.00
N412   N     0.68750   0.88743   0.02521   0.00000  Uiso   1.00
N413   N     0.62744   0.02956   0.49207   0.00000  Uiso   1.00
N414   N     0.74790   0.75517   0.48127   0.00000  Uiso   1.00
C415   C     0.26168   0.42320   0.16760   0.00000  Uiso   1.00
C416   C     0.24337   0.41427   0.26620   0.00000  Uiso   1.00
C417   C     0.26588   0.42340   0.34980   0.00000  Uiso   1.00
C418   C     0.24335   0.41277   0.43267   0.00000  Uiso   1.00
C419   C     0.22152   0.40182   0.58589   0.00000  Uiso   1.00
C420   C     0.22681   0.45344   0.11927   0.00000  Uiso   1.00
C421   C     0.23541   0.49551   0.07933   0.00000  Uiso   1.00
C422   C     0.19894   0.51786   0.03851   0.00000  Uiso   1.00
C423   C     0.15141   0.56772   0.96356   0.00000  Uiso   1.00
C424   C     0.26001   0.37782   0.11631   0.00000  Uiso   1.00
C425   C     0.29652   0.35631   0.07386   0.00000  Uiso   1.00
C426   C     0.28800   0.31499   0.03053   0.00000  Uiso   1.00
C427   C     0.29202   0.24743   0.95099   0.00000  Uiso   1.00
C428   C     0.18163   0.38807   0.16610   0.00000  Uiso   1.00
C429   C     0.19989   0.39519   0.26538   0.00000  Uiso   1.00
C430   C     0.17732   0.38454   0.34815   0.00000  Uiso   1.00
C431   C     0.19979   0.39365   0.43186   0.00000  Uiso   1.00
C432   C     0.18333   0.43437   0.11846   0.00000  Uiso   1.00
C433   C     0.14685   0.45665   0.07768   0.00000  Uiso   1.00
C434   C     0.15538   0.49874   0.03770   0.00000  Uiso   1.00
C435   C     0.21653   0.35874   0.11550   0.00000  Uiso   1.00
C436   C     0.20796   0.31745   0.07221   0.00000  Uiso   1.00
C437   C     0.24444   0.29588   0.02971   0.00000  Uiso   1.00
H438   H     0.29553   0.43806   0.16823   0.00000  Uiso   1.00
H439   H     0.29953   0.43817   0.35040   0.00000  Uiso   1.00
H440   H     0.26906   0.51027   0.07997   0.00000  Uiso   1.00
H441   H     0.33016   0.37109   0.07451   0.00000  Uiso   1.00
H442   H     0.28478   0.42990   0.55201   0.00000  Uiso   1.00
H443   H     0.22054   0.58191   0.98176   0.00000  Uiso   1.00
H444   H     0.34938   0.28842   0.97024   0.00000  Uiso   1.00
H445   H     0.14778   0.37322   0.16547   0.00000  Uiso   1.00
H446   H     0.14367   0.36977   0.34749   0.00000  Uiso   1.00
H447   H     0.11320   0.44187   0.07706   0.00000  Uiso   1.00
H448   H     0.17431   0.30269   0.07160   0.00000  Uiso   1.00
H449   H     0.15828   0.37439   0.54965   0.00000  Uiso   1.00
H450   H     0.09404   0.52640   0.97939   0.00000  Uiso   1.00
H451   H     0.22288   0.23291   0.96788   0.00000  Uiso   1.00
O452   O     0.22148   0.40106   0.67062   0.00000  Uiso   1.00
O453   O     0.13721   0.60050   0.92246   0.00000  Uiso   1.00
O454   O     0.30625   0.21544   0.90735   0.00000  Uiso   1.00
N455   N     0.25557   0.41730   0.52648   0.00000  Uiso   1.00
N456   N     0.19551   0.55943   0.99334   0.00000  Uiso   1.00
N457   N     0.31597   0.28504   0.98254   0.00000  Uiso   1.00
N458   N     0.18750   0.38743   0.52521   0.00000  Uiso   1.00
N459   N     0.12744   0.52956   0.99207   0.00000  Uiso   1.00
N460   N     0.24790   0.25517   0.98127   0.00000  Uiso   1.00
C461   C     0.73832   0.57680   0.16760   0.00000  Uiso   1.00
C462   C     0.75663   0.58573   0.26620   0.00000  Uiso   1.00
C463   C     0.73412   0.57660   0.34980   0.00000  Uiso   1.00
C464   C     0.75665   0.58723   0.43267   0.00000  Uiso   1.00
C465   C     0.77848   0.59818   0.58589   0.00000  Uiso   1.00
C466   C     0.77319   0.54656   0.11927   0.00000  Uiso   1.00
C467   C     0.76459   0.50449   0.07933   0.00000  Uiso   1.00
C468   C     0.80106   0.48214   0.03851   0.00000  Uiso   1.00
C469   C     0.84859   0.43228   0.96356   0.00000  Uiso   1.00
C470   C     0.73999   0.62218   0.11631   0.00000  Uiso   1.00
C471   C     0.70348   0.64369   0.07386   0.00000  Uiso   1.00
C472   C     0.71200   0.68501   0.03053   0.00000  Uiso   1.00
C473   C     0.70798   0.75257   0.95099   0.00000  Uiso   1.00
C474   C     0.81837   0.61193   0.16610   0.00000  Uiso   1.00
C475   C     0.80011   0.60481   0.26538   0.00000  Uiso   1.00
C476   C     0.82268   0.61546   0.34815   0.00000  Uiso   1.00
C477   C     0.80021   0.60635   0.43186   0.00000  Uiso   1.00
C478   C     0.81667   0.56563   0.11846   0.00000  Uiso   1.00
C479   C     0.85315   0.54335   0.07768   0.00000  Uiso   1.00
C480   C     0.84462   0.50126   0.03770   0.00000  Uiso   1.00
C481   C     0.78347   0.64126   0.11550   0.00000  Uiso   1.00
C482   C     0.79204   0.68255   0.07221   0.00000  Uiso   1.00
C483   C     0.75556   0.70412   0.02971   0.00000  Uiso   1.00
H484   H     0.70447   0.56194   0.16823   0.00000  Uiso   1.00
H485   H     0.70047   0.56183   0.35040   0.00000  Uiso   1.00
H486   H     0.73094   0.48973   0.07997   0.00000  Uiso   1.00
H487   H     0.66984   0.62891   0.07451   0.00000  Uiso   1.00
H488   H     0.71522   0.57010   0.55201   0.00000  Uiso   1.00
H489   H     0.77946   0.41809   0.98176   0.00000  Uiso   1.00
H490   H     0.65062   0.71158   0.97024   0.00000  Uiso   1.00
H491   H     0.85222   0.62678   0.16547   0.00000  Uiso   1.00
H492   H     0.85633   0.63023   0.34749   0.00000  Uiso   1.00
H493   H     0.88680   0.55813   0.07706   0.00000  Uiso   1.00
H494   H     0.82569   0.69731   0.07160   0.00000  Uiso   1.00
H495   H     0.84172   0.62561   0.54965   0.00000  Uiso   1.00
H496   H     0.90596   0.47360   0.97939   0.00000  Uiso   1.00
H497   H     0.77712   0.76709   0.96788   0.00000  Uiso   1.00
O498   O     0.77852   0.59894   0.67062   0.00000  Uiso   1.00
O499   O     0.86279   0.39950   0.92246   0.00000  Uiso   1.00
O500   O     0.69375   0.78456   0.90735   0.00000  Uiso   1.00
N501   N     0.74443   0.58270   0.52648   0.00000  Uiso   1.00
N502   N     0.80449   0.44057   0.99334   0.00000  Uiso   1.00
N503   N     0.68403   0.71496   0.98254   0.00000  Uiso   1.00
N504   N     0.81250   0.61257   0.52521   0.00000  Uiso   1.00
N505   N     0.87256   0.47044   0.99207   0.00000  Uiso   1.00
N506   N     0.75210   0.74483   0.98127   0.00000  Uiso   1.00
C507   C     0.23832   0.07680   0.66760   0.00000  Uiso   1.00
C508   C     0.25663   0.08573   0.76620   0.00000  Uiso   1.00
C509   C     0.23412   0.07660   0.84980   0.00000  Uiso   1.00
C510   C     0.25665   0.08723   0.93267   0.00000  Uiso   1.00
C511   C     0.27848   0.09818   0.08589   0.00000  Uiso   1.00
C512   C     0.27319   0.04656   0.61927   0.00000  Uiso   1.00
C513   C     0.26459   0.00449   0.57933   0.00000  Uiso   1.00
C514   C     0.30106   0.98214   0.53851   0.00000  Uiso   1.00
C515   C     0.34859   0.93228   0.46356   0.00000  Uiso   1.00
C516   C     0.23999   0.12218   0.61631   0.00000  Uiso   1.00
C517   C     0.20348   0.14369   0.57386   0.00000  Uiso   1.00
C518   C     0.21200   0.18501   0.53053   0.00000  Uiso   1.00
C519   C     0.20798   0.25257   0.45099   0.00000  Uiso   1.00
C520   C     0.31837   0.11193   0.66610   0.00000  Uiso   1.00
C521   C     0.30011   0.10481   0.76538   0.00000  Uiso   1.00
C522   C     0.32268   0.11546   0.84815   0.00000  Uiso   1.00
C523   C     0.30021   0.10635   0.93186   0.00000  Uiso   1.00
C524   C     0.31667   0.06563   0.61846   0.00000  Uiso   1.00
C525   C     0.35315   0.04335   0.57768   0.00000  Uiso   1.00
C526   C     0.34462   0.00126   0.53770   0.00000  Uiso   1.00
C527   C     0.28347   0.14126   0.61550   0.00000  Uiso   1.00
C528   C     0.29204   0.18255   0.57221   0.00000  Uiso   1.00
C529   C     0.25556   0.20412   0.52971   0.00000  Uiso   1.00
H530   H     0.20447   0.06194   0.66823   0.00000  Uiso   1.00
H531   H     0.20047   0.06183   0.85040   0.00000  Uiso   1.00
H532   H     0.23094   0.98973   0.57997   0.00000  Uiso   1.00
H533   H     0.16984   0.12891   0.57451   0.00000  Uiso   1.00
H534   H     0.21522   0.07010   0.05201   0.00000  Uiso   1.00
H535   H     0.27946   0.91809   0.48176   0.00000  Uiso   1.00
H536   H     0.15062   0.21158   0.47024   0.00000  Uiso   1.00
H537   H     0.35222   0.12678   0.66547   0.00000  Uiso   1.00
H538   H     0.35633   0.13023   0.84749   0.00000  Uiso   1.00
H539   H     0.38680   0.05813   0.57706   0.00000  Uiso   1.00
H540   H     0.32569   0.19731   0.57160   0.00000  Uiso   1.00
H541   H     0.34172   0.12561   0.04965   0.00000  Uiso   1.00
H542   H     0.40596   0.97360   0.47939   0.00000  Uiso   1.00
H543   H     0.27712   0.26709   0.46788   0.00000  Uiso   1.00
O544   O     0.27852   0.09894   0.17062   0.00000  Uiso   1.00
O545   O     0.36279   0.89950   0.42246   0.00000  Uiso   1.00
O546   O     0.19375   0.28456   0.40735   0.00000  Uiso   1.00
N547   N     0.24443   0.08270   0.02648   0.00000  Uiso   1.00
N548   N     0.30449   0.94057   0.49334   0.00000  Uiso   1.00
N549   N     0.18403   0.21496   0.48254   0.00000  Uiso   1.00
N550   N     0.31250   0.11257   0.02521   0.00000  Uiso   1.00
N551   N     0.37256   0.97044   0.49207   0.00000  Uiso   1.00
N552   N     0.25210   0.24483   0.48127   0.00000  Uiso   1.00
C553   C     0.57680   0.76168   0.41760   0.00000  Uiso   1.00
C554   C     0.58573   0.74337   0.51620   0.00000  Uiso   1.00
C555   C     0.57660   0.76588   0.59980   0.00000  Uiso   1.00
C556   C     0.58723   0.74335   0.68267   0.00000  Uiso   1.00
C557   C     0.59818   0.72152   0.83589   0.00000  Uiso   1.00
C558   C     0.54656   0.72681   0.36927   0.00000  Uiso   1.00
C559   C     0.50449   0.73541   0.32933   0.00000  Uiso   1.00
C560   C     0.48214   0.69894   0.28851   0.00000  Uiso   1.00
C561   C     0.43228   0.65141   0.21356   0.00000  Uiso   1.00
C562   C     0.62218   0.76001   0.36631   0.00000  Uiso   1.00
C563   C     0.64369   0.79652   0.32386   0.00000  Uiso   1.00
C564   C     0.68501   0.78800   0.28053   0.00000  Uiso   1.00
C565   C     0.75257   0.79202   0.20099   0.00000  Uiso   1.00
C566   C     0.61193   0.68163   0.41610   0.00000  Uiso   1.00
C567   C     0.60481   0.69989   0.51538   0.00000  Uiso   1.00
C568   C     0.61546   0.67732   0.59815   0.00000  Uiso   1.00
C569   C     0.60635   0.69979   0.68186   0.00000  Uiso   1.00
C570   C     0.56563   0.68333   0.36846   0.00000  Uiso   1.00
C571   C     0.54335   0.64685   0.32768   0.00000  Uiso   1.00
C572   C     0.50126   0.65538   0.28770   0.00000  Uiso   1.00
C573   C     0.64126   0.71653   0.36550   0.00000  Uiso   1.00
C574   C     0.68255   0.70796   0.32221   0.00000  Uiso   1.00
C575   C     0.70412   0.74444   0.27971   0.00000  Uiso   1.00
H576   H     0.56194   0.79553   0.41823   0.00000  Uiso   1.00
H577   H     0.56183   0.79953   0.60040   0.00000  Uiso   1.00
H578   H     0.48973   0.76906   0.32997   0.00000  Uiso   1.00
H579   H     0.62891   0.83016   0.32451   0.00000  Uiso   1.00
H580   H     0.57010   0.78478   0.80201   0.00000  Uiso   1.00
H581   H     0.41809   0.72054   0.23176   0.00000  Uiso   1.00
H582   H     0.71158   0.84938   0.22024   0.00000  Uiso   1.00
H583   H     0.62678   0.64778   0.41547   0.00000  Uiso   1.00
H584   H     0.63023   0.64367   0.59749   0.00000  Uiso   1.00
H585   H     0.55813   0.61320   0.32706   0.00000  Uiso   1.00
H586   H     0.69731   0.67431   0.32160   0.00000  Uiso   1.00
H587   H     0.62561   0.65828   0.79965   0.00000  Uiso   1.00
H588   H     0.47360   0.59404   0.22939   0.00000  Uiso   1.00
H589   H     0.76709   0.72288   0.21788   0.00000  Uiso   1.00
O590   O     0.59894   0.72148   0.92062   0.00000  Uiso   1.00
O591   O     0.39950   0.63721   0.17246   0.00000  Uiso   1.00
O592   O     0.78456   0.80625   0.15735   0.00000  Uiso   1.00
N593   N     0.58270   0.75557   0.77648   0.00000  Uiso   1.00
N594   N     0.44057   0.69551   0.24334   0.00000  Uiso   1.00
N595   N     0.71496   0.81597   0.23254   0.00000  Uiso   1.00
N596   N     0.61257   0.68750   0.77521   0.00000  Uiso   1.00
N597   N     0.47044   0.62744   0.24207   0.00000  Uiso   1.00
N598   N     0.74483   0.74790   0.23127   0.00000  Uiso   1.00
C599   C     0.07680   0.26168   0.91760   0.00000  Uiso   1.00
C600   C     0.08573   0.24337   0.01620   0.00000  Uiso   1.00
C601   C     0.07660   0.26588   0.09980   0.00000  Uiso   1.00
C602   C     0.08723   0.24335   0.18267   0.00000  Uiso   1.00
C603   C     0.09818   0.22152   0.33589   0.00000  Uiso   1.00
C604   C     0.04656   0.22681   0.86927   0.00000  Uiso   1.00
C605   C     0.00449   0.23541   0.82933   0.00000  Uiso   1.00
C606   C     0.98214   0.19894   0.78851   0.00000  Uiso   1.00
C607   C     0.93228   0.15141   0.71356   0.00000  Uiso   1.00
C608   C     0.12218   0.26001   0.86631   0.00000  Uiso   1.00
C609   C     0.14369   0.29652   0.82386   0.00000  Uiso   1.00
C610   C     0.18501   0.28800   0.78053   0.00000  Uiso   1.00
C611   C     0.25257   0.29202   0.70099   0.00000  Uiso   1.00
C612   C     0.11193   0.18163   0.91610   0.00000  Uiso   1.00
C613   C     0.10481   0.19989   0.01538   0.00000  Uiso   1.00
C614   C     0.11546   0.17732   0.09815   0.00000  Uiso   1.00
C615   C     0.10635   0.19979   0.18186   0.00000  Uiso   1.00
C616   C     0.06563   0.18333   0.86846   0.00000  Uiso   1.00
C617   C     0.04335   0.14685   0.82768   0.00000  Uiso   1.00
C618   C     0.00126   0.15538   0.78770   0.00000  Uiso   1.00
C619   C     0.14126   0.21653   0.86550   0.00000  Uiso   1.00
C620   C     0.18255   0.20796   0.82221   0.00000  Uiso   1.00
C621   C     0.20412   0.24444   0.77971   0.00000  Uiso   1.00
H622   H     0.06194   0.29553   0.91823   0.00000  Uiso   1.00
H623   H     0.06183   0.29953   0.10040   0.00000  Uiso   1.00
H624   H     0.98973   0.26906   0.82997   0.00000  Uiso   1.00
H625   H     0.12891   0.33016   0.82451   0.00000  Uiso   1.00
H626   H     0.07010   0.28478   0.30201   0.00000  Uiso   1.00
H627   H     0.91809   0.22054   0.73176   0.00000  Uiso   1.00
H628   H     0.21158   0.34938   0.72024   0.00000  Uiso   1.00
H629   H     0.12678   0.14778   0.91547   0.00000  Uiso   1.00
H630   H     0.13023   0.14367   0.09749   0.00000  Uiso   1.00
H631   H     0.05813   0.11320   0.82706   0.00000  Uiso   1.00
H632   H     0.19731   0.17431   0.82160   0.00000  Uiso   1.00
H633   H     0.12561   0.15828   0.29965   0.00000  Uiso   1.00
H634   H     0.97360   0.09404   0.72939   0.00000  Uiso   1.00
H635   H     0.26709   0.22288   0.71788   0.00000  Uiso   1.00
O636   O     0.09894   0.22148   0.42062   0.00000  Uiso   1.00
O637   O     0.89950   0.13721   0.67246   0.00000  Uiso   1.00
O638   O     0.28456   0.30625   0.65735   0.00000  Uiso   1.00
N639   N     0.08270   0.25557   0.27648   0.00000  Uiso   1.00
N640   N     0.94057   0.19551   0.74334   0.00000  Uiso   1.00
N641   N     0.21496   0.31597   0.73254   0.00000  Uiso   1.00
N642   N     0.11257   0.18750   0.27521   0.00000  Uiso   1.00
N643   N     0.97044   0.12744   0.74207   0.00000  Uiso   1.00
N644   N     0.24483   0.24790   0.73127   0.00000  Uiso   1.00
C645   C     0.92320   0.73832   0.91760   0.00000  Uiso   1.00
C646   C     0.91427   0.75663   0.01620   0.00000  Uiso   1.00
C647   C     0.92340   0.73412   0.09980   0.00000  Uiso   1.00
C648   C     0.91277   0.75665   0.18267   0.00000  Uiso   1.00
C649   C     0.90182   0.77848   0.33589   0.00000  Uiso   1.00
C650   C     0.95344   0.77319   0.86927   0.00000  Uiso   1.00
C651   C     0.99551   0.76459   0.82933   0.00000  Uiso   1.00
C652   C     0.01786   0.80106   0.78851   0.00000  Uiso   1.00
C653   C     0.06772   0.84859   0.71356   0.00000  Uiso   1.00
C654   C     0.87782   0.73999   0.86631   0.00000  Uiso   1.00
C655   C     0.85631   0.70348   0.82386   0.00000  Uiso   1.00
C656   C     0.81499   0.71200   0.78053   0.00000  Uiso   1.00
C657   C     0.74743   0.70798   0.70099   0.00000  Uiso   1.00
C658   C     0.88807   0.81837   0.91610   0.00000  Uiso   1.00
C659   C     0.89519   0.80011   0.01538   0.00000  Uiso   1.00
C660   C     0.88454   0.82268   0.09815   0.00000  Uiso   1.00
C661   C     0.89365   0.80021   0.18186   0.00000  Uiso   1.00
C662   C     0.93437   0.81667   0.86846   0.00000  Uiso   1.00
C663   C     0.95665   0.85315   0.82768   0.00000  Uiso   1.00
C664   C     0.99874   0.84462   0.78770   0.00000  Uiso   1.00
C665   C     0.85874   0.78347   0.86550   0.00000  Uiso   1.00
C666   C     0.81745   0.79204   0.82221   0.00000  Uiso   1.00
C667   C     0.79588   0.75556   0.77971   0.00000  Uiso   1.00
H668   H     0.93806   0.70447   0.91823   0.00000  Uiso   1.00
H669   H     0.93817   0.70047   0.10040   0.00000  Uiso   1.00
H670   H     0.01027   0.73094   0.82997   0.00000  Uiso   1.00
H671   H     0.87109   0.66984   0.82451   0.00000  Uiso   1.00
H672   H     0.92990   0.71522   0.30201   0.00000  Uiso   1.00
H673   H     0.08191   0.77946   0.73176   0.00000  Uiso   1.00
H674   H     0.78842   0.65062   0.72024   0.00000  Uiso   1.00
H675   H     0.87322   0.85222   0.91547   0.00000  Uiso   1.00
H676   H     0.86977   0.85633   0.09749   0.00000  Uiso   1.00
H677   H     0.94187   0.88680   0.82706   0.00000  Uiso   1.00
H678   H     0.80269   0.82569   0.82160   0.00000  Uiso   1.00
H679   H     0.87439   0.84172   0.29965   0.00000  Uiso   1.00
H680   H     0.02640   0.90596   0.72939   0.00000  Uiso   1.00
H681   H     0.73291   0.77712   0.71788   0.00000  Uiso   1.00
O682   O     0.90106   0.77852   0.42062   0.00000  Uiso   1.00
O683   O     0.10050   0.86279   0.67246   0.00000  Uiso   1.00
O684   O     0.71544   0.69375   0.65735   0.00000  Uiso   1.00
N685   N     0.91730   0.74443   0.27648   0.00000  Uiso   1.00
N686   N     0.05943   0.80449   0.74334   0.00000  Uiso   1.00
N687   N     0.78504   0.68403   0.73254   0.00000  Uiso   1.00
N688   N     0.88743   0.81250   0.27521   0.00000  Uiso   1.00
N689   N     0.02956   0.87256   0.74207   0.00000  Uiso   1.00
N690   N     0.75517   0.75210   0.73127   0.00000  Uiso   1.00
C691   C     0.42320   0.23832   0.41760   0.00000  Uiso   1.00
C692   C     0.41427   0.25663   0.51620   0.00000  Uiso   1.00
C693   C     0.42340   0.23412   0.59980   0.00000  Uiso   1.00
C694   C     0.41277   0.25665   0.68267   0.00000  Uiso   1.00
C695   C     0.40182   0.27848   0.83589   0.00000  Uiso   1.00
C696   C     0.45344   0.27319   0.36927   0.00000  Uiso   1.00
C697   C     0.49551   0.26459   0.32933   0.00000  Uiso   1.00
C698   C     0.51786   0.30106   0.28851   0.00000  Uiso   1.00
C699   C     0.56772   0.34859   0.21356   0.00000  Uiso   1.00
C700   C     0.37782   0.23999   0.36631   0.00000  Uiso   1.00
C701   C     0.35631   0.20348   0.32386   0.00000  Uiso   1.00
C702   C     0.31499   0.21200   0.28053   0.00000  Uiso   1.00
C703   C     0.24743   0.20798   0.20099   0.00000  Uiso   1.00
C704   C     0.38807   0.31837   0.41610   0.00000  Uiso   1.00
C705   C     0.39519   0.30011   0.51538   0.00000  Uiso   1.00
C706   C     0.38454   0.32268   0.59815   0.00000  Uiso   1.00
C707   C     0.39365   0.30021   0.68186   0.00000  Uiso   1.00
C708   C     0.43437   0.31667   0.36846   0.00000  Uiso   1.00
C709   C     0.45665   0.35315   0.32768   0.00000  Uiso   1.00
C710   C     0.49874   0.34462   0.28770   0.00000  Uiso   1.00
C711   C     0.35874   0.28347   0.36550   0.00000  Uiso   1.00
C712   C     0.31745   0.29204   0.32221   0.00000  Uiso   1.00
C713   C     0.29588   0.25556   0.27971   0.00000  Uiso   1.00
H714   H     0.43806   0.20447   0.41823   0.00000  Uiso   1.00
H715   H     0.43817   0.20047   0.60040   0.00000  Uiso   1.00
H716   H     0.51027   0.23094   0.32997   0.00000  Uiso   1.00
H717   H     0.37109   0.16984   0.32451   0.00000  Uiso   1.00
H718   H     0.42990   0.21522   0.80201   0.00000  Uiso   1.00
H719   H     0.58191   0.27946   0.23176   0.00000  Uiso   1.00
H720   H     0.28842   0.15062   0.22024   0.00000  Uiso   1.00
H721   H     0.37322   0.35222   0.41547   0.00000  Uiso   1.00
H722   H     0.36977   0.35633   0.59749   0.00000  Uiso   1.00
H723   H     0.44187   0.38680   0.32706   0.00000  Uiso   1.00
H724   H     0.30269   0.32569   0.32160   0.00000  Uiso   1.00
H725   H     0.37439   0.34172   0.79965   0.00000  Uiso   1.00
H726   H     0.52640   0.40596   0.22939   0.00000  Uiso   1.00
H727   H     0.23291   0.27712   0.21788   0.00000  Uiso   1.00
O728   O     0.40106   0.27852   0.92062   0.00000  Uiso   1.00
O729   O     0.60050   0.36279   0.17246   0.00000  Uiso   1.00
O730   O     0.21544   0.19375   0.15735   0.00000  Uiso   1.00
N731   N     0.41730   0.24443   0.77648   0.00000  Uiso   1.00
N732   N     0.55943   0.30449   0.24334   0.00000  Uiso   1.00
N733   N     0.28504   0.18403   0.23254   0.00000  Uiso   1.00
N734   N     0.38743   0.31250   0.77521   0.00000  Uiso   1.00
N735   N     0.52956   0.37256   0.24207   0.00000  Uiso   1.00
N736   N     0.25517   0.25210   0.23127   0.00000  Uiso   1.00
