data_job_00241
_audit_creation_date              2018-12-19
_audit_creation_method            'Materials Studio'
_symmetry_space_group_name_H-M    'P1'
_symmetry_Int_Tables_number       1
_symmetry_cell_setting            triclinic
loop_
_symmetry_equiv_pos_as_xyz
  x,y,z
_cell_length_a                    23.8114
_cell_length_b                    55.5634
_cell_length_c                    7.1680
_cell_angle_alpha                 90.0000
_cell_angle_beta                  90.0000
_cell_angle_gamma                 90.0000
loop_
_atom_site_label
_atom_site_type_symbol
_atom_site_fract_x
_atom_site_fract_y
_atom_site_fract_z
_atom_site_U_iso_or_equiv
_atom_site_adp_type
_atom_site_occupancy
C1     C     0.69294   0.56643   0.45652   0.00000  Uiso   1.00
C2     C     0.74111   0.55416   0.55947   0.00000  Uiso   1.00
C3     C     0.78161   0.53950   0.47899   0.00000  Uiso   1.00
C4     C     0.82216   0.52998   0.59697   0.00000  Uiso   1.00
C5     C     0.89695   0.51016   0.72770   0.00000  Uiso   1.00
C6     C     0.63924   0.55817   0.55321   0.00000  Uiso   1.00
C7     C     0.59409   0.54690   0.46746   0.00000  Uiso   1.00
C8     C     0.54889   0.54076   0.58018   0.00000  Uiso   1.00
C9     C     0.46551   0.52719   0.70115   0.00000  Uiso   1.00
C10    C     0.69845   0.59323   0.49856   0.00000  Uiso   1.00
C11    C     0.70307   0.61143   0.36686   0.00000  Uiso   1.00
C12    C     0.70770   0.63481   0.43357   0.00000  Uiso   1.00
C13    C     0.71624   0.67567   0.46970   0.00000  Uiso   1.00
C14    C     0.69293   0.57558   0.80916   0.00000  Uiso   1.00
C15    C     0.74111   0.55913   0.75101   0.00000  Uiso   1.00
C16    C     0.78161   0.54962   0.86914   0.00000  Uiso   1.00
C17    C     0.82217   0.53496   0.78886   0.00000  Uiso   1.00
C18    C     0.63924   0.56314   0.74474   0.00000  Uiso   1.00
C19    C     0.59409   0.55702   0.85761   0.00000  Uiso   1.00
C20    C     0.54889   0.54574   0.77206   0.00000  Uiso   1.00
C21    C     0.69845   0.59820   0.69010   0.00000  Uiso   1.00
C22    C     0.70307   0.62155   0.75702   0.00000  Uiso   1.00
C23    C     0.70769   0.63979   0.62546   0.00000  Uiso   1.00
H24    H     0.69293   0.56256   0.30741   0.00000  Uiso   1.00
H25    H     0.78160   0.53566   0.33076   0.00000  Uiso   1.00
H26    H     0.59410   0.54306   0.31923   0.00000  Uiso   1.00
H27    H     0.70307   0.60758   0.21865   0.00000  Uiso   1.00
H28    H     0.87988   0.50802   0.44113   0.00000  Uiso   1.00
H29    H     0.48454   0.52362   0.41680   0.00000  Uiso   1.00
H30    H     0.71430   0.65968   0.20472   0.00000  Uiso   1.00
H31    H     0.69293   0.57945   0.95829   0.00000  Uiso   1.00
H32    H     0.78160   0.55347   0.01736   0.00000  Uiso   1.00
H33    H     0.59410   0.56087   0.00583   0.00000  Uiso   1.00
H34    H     0.70306   0.62539   0.90525   0.00000  Uiso   1.00
H35    H     0.87988   0.52247   0.99841   0.00000  Uiso   1.00
H36    H     0.48453   0.53808   0.97407   0.00000  Uiso   1.00
H37    H     0.71430   0.67414   0.76199   0.00000  Uiso   1.00
O38    O     0.93820   0.49785   0.74689   0.00000  Uiso   1.00
O39    O     0.41952   0.51832   0.71496   0.00000  Uiso   1.00
O40    O     0.72096   0.69683   0.43672   0.00000  Uiso   1.00
N41    N     0.86772   0.51499   0.56417   0.00000  Uiso   1.00
N42    N     0.49810   0.52957   0.54143   0.00000  Uiso   1.00
N43    N     0.71289   0.65678   0.34315   0.00000  Uiso   1.00
N44    N     0.86772   0.52277   0.86404   0.00000  Uiso   1.00
N45    N     0.49810   0.53735   0.84130   0.00000  Uiso   1.00
N46    N     0.71289   0.66456   0.64301   0.00000  Uiso   1.00
C47    C     0.69294   0.06643   0.95652   0.00000  Uiso   1.00
C48    C     0.74111   0.05416   0.05947   0.00000  Uiso   1.00
C49    C     0.78161   0.03950   0.97899   0.00000  Uiso   1.00
C50    C     0.82216   0.02998   0.09697   0.00000  Uiso   1.00
C51    C     0.89695   0.01016   0.22770   0.00000  Uiso   1.00
C52    C     0.63924   0.05817   0.05321   0.00000  Uiso   1.00
C53    C     0.59409   0.04690   0.96746   0.00000  Uiso   1.00
C54    C     0.54889   0.04076   0.08018   0.00000  Uiso   1.00
C55    C     0.46551   0.02719   0.20115   0.00000  Uiso   1.00
C56    C     0.69845   0.09323   0.99856   0.00000  Uiso   1.00
C57    C     0.70307   0.11143   0.86686   0.00000  Uiso   1.00
C58    C     0.70770   0.13481   0.93357   0.00000  Uiso   1.00
C59    C     0.71624   0.17567   0.96970   0.00000  Uiso   1.00
C60    C     0.69293   0.07558   0.30916   0.00000  Uiso   1.00
C61    C     0.74111   0.05913   0.25101   0.00000  Uiso   1.00
C62    C     0.78161   0.04962   0.36914   0.00000  Uiso   1.00
C63    C     0.82217   0.03496   0.28886   0.00000  Uiso   1.00
C64    C     0.63924   0.06314   0.24474   0.00000  Uiso   1.00
C65    C     0.59409   0.05702   0.35761   0.00000  Uiso   1.00
C66    C     0.54889   0.04574   0.27206   0.00000  Uiso   1.00
C67    C     0.69845   0.09820   0.19010   0.00000  Uiso   1.00
C68    C     0.70307   0.12155   0.25702   0.00000  Uiso   1.00
C69    C     0.70769   0.13979   0.12546   0.00000  Uiso   1.00
H70    H     0.69293   0.06256   0.80741   0.00000  Uiso   1.00
H71    H     0.78160   0.03566   0.83076   0.00000  Uiso   1.00
H72    H     0.59410   0.04306   0.81923   0.00000  Uiso   1.00
H73    H     0.70307   0.10758   0.71865   0.00000  Uiso   1.00
H74    H     0.87988   0.00802   0.94113   0.00000  Uiso   1.00
H75    H     0.48454   0.02362   0.91680   0.00000  Uiso   1.00
H76    H     0.71430   0.15968   0.70472   0.00000  Uiso   1.00
H77    H     0.69293   0.07945   0.45829   0.00000  Uiso   1.00
H78    H     0.78160   0.05347   0.51736   0.00000  Uiso   1.00
H79    H     0.59410   0.06087   0.50583   0.00000  Uiso   1.00
H80    H     0.70306   0.12539   0.40525   0.00000  Uiso   1.00
H81    H     0.87988   0.02247   0.49841   0.00000  Uiso   1.00
H82    H     0.48453   0.03808   0.47407   0.00000  Uiso   1.00
H83    H     0.71430   0.17414   0.26199   0.00000  Uiso   1.00
O84    O     0.93820   0.99785   0.24689   0.00000  Uiso   1.00
O85    O     0.41952   0.01832   0.21496   0.00000  Uiso   1.00
O86    O     0.72096   0.19683   0.93672   0.00000  Uiso   1.00
N87    N     0.86772   0.01499   0.06417   0.00000  Uiso   1.00
N88    N     0.49810   0.02957   0.04143   0.00000  Uiso   1.00
N89    N     0.71289   0.15678   0.84315   0.00000  Uiso   1.00
N90    N     0.86772   0.02277   0.36404   0.00000  Uiso   1.00
N91    N     0.49810   0.03735   0.34130   0.00000  Uiso   1.00
N92    N     0.71289   0.16456   0.14301   0.00000  Uiso   1.00
C93    C     0.19294   0.56643   0.95652   0.00000  Uiso   1.00
C94    C     0.24111   0.55416   0.05947   0.00000  Uiso   1.00
C95    C     0.28161   0.53950   0.97899   0.00000  Uiso   1.00
C96    C     0.32216   0.52998   0.09697   0.00000  Uiso   1.00
C97    C     0.39695   0.51016   0.22770   0.00000  Uiso   1.00
C98    C     0.13924   0.55817   0.05321   0.00000  Uiso   1.00
C99    C     0.09409   0.54690   0.96746   0.00000  Uiso   1.00
C100   C     0.04889   0.54076   0.08018   0.00000  Uiso   1.00
C101   C     0.96551   0.52719   0.20115   0.00000  Uiso   1.00
C102   C     0.19845   0.59323   0.99856   0.00000  Uiso   1.00
C103   C     0.20307   0.61143   0.86686   0.00000  Uiso   1.00
C104   C     0.20770   0.63481   0.93357   0.00000  Uiso   1.00
C105   C     0.21624   0.67567   0.96970   0.00000  Uiso   1.00
C106   C     0.19293   0.57558   0.30916   0.00000  Uiso   1.00
C107   C     0.24111   0.55913   0.25101   0.00000  Uiso   1.00
C108   C     0.28161   0.54962   0.36914   0.00000  Uiso   1.00
C109   C     0.32217   0.53496   0.28886   0.00000  Uiso   1.00
C110   C     0.13924   0.56314   0.24474   0.00000  Uiso   1.00
C111   C     0.09409   0.55702   0.35761   0.00000  Uiso   1.00
C112   C     0.04889   0.54574   0.27206   0.00000  Uiso   1.00
C113   C     0.19845   0.59820   0.19010   0.00000  Uiso   1.00
C114   C     0.20307   0.62155   0.25702   0.00000  Uiso   1.00
C115   C     0.20769   0.63979   0.12546   0.00000  Uiso   1.00
H116   H     0.19293   0.56256   0.80741   0.00000  Uiso   1.00
H117   H     0.28160   0.53566   0.83076   0.00000  Uiso   1.00
H118   H     0.09410   0.54306   0.81923   0.00000  Uiso   1.00
H119   H     0.20307   0.60758   0.71865   0.00000  Uiso   1.00
H120   H     0.37988   0.50802   0.94113   0.00000  Uiso   1.00
H121   H     0.98454   0.52362   0.91680   0.00000  Uiso   1.00
H122   H     0.21430   0.65968   0.70472   0.00000  Uiso   1.00
H123   H     0.19293   0.57945   0.45829   0.00000  Uiso   1.00
H124   H     0.28160   0.55347   0.51736   0.00000  Uiso   1.00
H125   H     0.09410   0.56087   0.50583   0.00000  Uiso   1.00
H126   H     0.20306   0.62539   0.40525   0.00000  Uiso   1.00
H127   H     0.37988   0.52247   0.49841   0.00000  Uiso   1.00
H128   H     0.98453   0.53808   0.47407   0.00000  Uiso   1.00
H129   H     0.21430   0.67414   0.26199   0.00000  Uiso   1.00
O130   O     0.43820   0.49785   0.24689   0.00000  Uiso   1.00
O131   O     0.91952   0.51832   0.21496   0.00000  Uiso   1.00
O132   O     0.22096   0.69683   0.93672   0.00000  Uiso   1.00
N133   N     0.36772   0.51499   0.06417   0.00000  Uiso   1.00
N134   N     0.99810   0.52957   0.04143   0.00000  Uiso   1.00
N135   N     0.21289   0.65678   0.84315   0.00000  Uiso   1.00
N136   N     0.36772   0.52277   0.36404   0.00000  Uiso   1.00
N137   N     0.99810   0.53735   0.34130   0.00000  Uiso   1.00
N138   N     0.21289   0.66456   0.14301   0.00000  Uiso   1.00
C139   C     0.19294   0.06643   0.45652   0.00000  Uiso   1.00
C140   C     0.24111   0.05416   0.55947   0.00000  Uiso   1.00
C141   C     0.28161   0.03950   0.47899   0.00000  Uiso   1.00
C142   C     0.32216   0.02998   0.59697   0.00000  Uiso   1.00
C143   C     0.39695   0.01016   0.72770   0.00000  Uiso   1.00
C144   C     0.13924   0.05817   0.55321   0.00000  Uiso   1.00
C145   C     0.09409   0.04690   0.46746   0.00000  Uiso   1.00
C146   C     0.04889   0.04076   0.58018   0.00000  Uiso   1.00
C147   C     0.96551   0.02719   0.70115   0.00000  Uiso   1.00
C148   C     0.19845   0.09323   0.49856   0.00000  Uiso   1.00
C149   C     0.20307   0.11143   0.36686   0.00000  Uiso   1.00
C150   C     0.20770   0.13481   0.43357   0.00000  Uiso   1.00
C151   C     0.21624   0.17567   0.46970   0.00000  Uiso   1.00
C152   C     0.19293   0.07558   0.80916   0.00000  Uiso   1.00
C153   C     0.24111   0.05913   0.75101   0.00000  Uiso   1.00
C154   C     0.28161   0.04962   0.86914   0.00000  Uiso   1.00
C155   C     0.32217   0.03496   0.78886   0.00000  Uiso   1.00
C156   C     0.13924   0.06314   0.74474   0.00000  Uiso   1.00
C157   C     0.09409   0.05702   0.85761   0.00000  Uiso   1.00
C158   C     0.04889   0.04574   0.77206   0.00000  Uiso   1.00
C159   C     0.19845   0.09820   0.69010   0.00000  Uiso   1.00
C160   C     0.20307   0.12155   0.75702   0.00000  Uiso   1.00
C161   C     0.20769   0.13979   0.62546   0.00000  Uiso   1.00
H162   H     0.19293   0.06256   0.30741   0.00000  Uiso   1.00
H163   H     0.28160   0.03566   0.33076   0.00000  Uiso   1.00
H164   H     0.09410   0.04306   0.31923   0.00000  Uiso   1.00
H165   H     0.20307   0.10758   0.21865   0.00000  Uiso   1.00
H166   H     0.37988   0.00802   0.44113   0.00000  Uiso   1.00
H167   H     0.98454   0.02362   0.41680   0.00000  Uiso   1.00
H168   H     0.21430   0.15968   0.20472   0.00000  Uiso   1.00
H169   H     0.19293   0.07945   0.95829   0.00000  Uiso   1.00
H170   H     0.28160   0.05347   0.01736   0.00000  Uiso   1.00
H171   H     0.09410   0.06087   0.00583   0.00000  Uiso   1.00
H172   H     0.20306   0.12539   0.90525   0.00000  Uiso   1.00
H173   H     0.37988   0.02247   0.99841   0.00000  Uiso   1.00
H174   H     0.98453   0.03808   0.97407   0.00000  Uiso   1.00
H175   H     0.21430   0.17414   0.76199   0.00000  Uiso   1.00
O176   O     0.43820   0.99785   0.74689   0.00000  Uiso   1.00
O177   O     0.91952   0.01832   0.71496   0.00000  Uiso   1.00
O178   O     0.22096   0.19683   0.43672   0.00000  Uiso   1.00
N179   N     0.36772   0.01499   0.56417   0.00000  Uiso   1.00
N180   N     0.99810   0.02957   0.54143   0.00000  Uiso   1.00
N181   N     0.21289   0.15678   0.34315   0.00000  Uiso   1.00
N182   N     0.36772   0.02277   0.86404   0.00000  Uiso   1.00
N183   N     0.99810   0.03735   0.84130   0.00000  Uiso   1.00
N184   N     0.21289   0.16456   0.64301   0.00000  Uiso   1.00
C185   C     0.30706   0.43357   0.45652   0.00000  Uiso   1.00
C186   C     0.25889   0.44584   0.55947   0.00000  Uiso   1.00
C187   C     0.21839   0.46050   0.47899   0.00000  Uiso   1.00
C188   C     0.17784   0.47002   0.59697   0.00000  Uiso   1.00
C189   C     0.10305   0.48984   0.72770   0.00000  Uiso   1.00
C190   C     0.36076   0.44183   0.55321   0.00000  Uiso   1.00
C191   C     0.40591   0.45310   0.46746   0.00000  Uiso   1.00
C192   C     0.45111   0.45924   0.58018   0.00000  Uiso   1.00
C193   C     0.53449   0.47281   0.70115   0.00000  Uiso   1.00
C194   C     0.30155   0.40677   0.49856   0.00000  Uiso   1.00
C195   C     0.29693   0.38857   0.36686   0.00000  Uiso   1.00
C196   C     0.29230   0.36519   0.43357   0.00000  Uiso   1.00
C197   C     0.28376   0.32433   0.46970   0.00000  Uiso   1.00
C198   C     0.30707   0.42442   0.80916   0.00000  Uiso   1.00
C199   C     0.25889   0.44087   0.75101   0.00000  Uiso   1.00
C200   C     0.21839   0.45038   0.86914   0.00000  Uiso   1.00
C201   C     0.17783   0.46504   0.78886   0.00000  Uiso   1.00
C202   C     0.36076   0.43686   0.74474   0.00000  Uiso   1.00
C203   C     0.40591   0.44298   0.85761   0.00000  Uiso   1.00
C204   C     0.45111   0.45426   0.77206   0.00000  Uiso   1.00
C205   C     0.30155   0.40180   0.69010   0.00000  Uiso   1.00
C206   C     0.29693   0.37845   0.75702   0.00000  Uiso   1.00
C207   C     0.29231   0.36021   0.62546   0.00000  Uiso   1.00
H208   H     0.30707   0.43744   0.30741   0.00000  Uiso   1.00
H209   H     0.21840   0.46434   0.33076   0.00000  Uiso   1.00
H210   H     0.40590   0.45694   0.31923   0.00000  Uiso   1.00
H211   H     0.29693   0.39242   0.21865   0.00000  Uiso   1.00
H212   H     0.12012   0.49198   0.44113   0.00000  Uiso   1.00
H213   H     0.51546   0.47638   0.41680   0.00000  Uiso   1.00
H214   H     0.28570   0.34032   0.20472   0.00000  Uiso   1.00
H215   H     0.30707   0.42055   0.95829   0.00000  Uiso   1.00
H216   H     0.21840   0.44653   0.01736   0.00000  Uiso   1.00
H217   H     0.40590   0.43913   0.00583   0.00000  Uiso   1.00
H218   H     0.29694   0.37461   0.90525   0.00000  Uiso   1.00
H219   H     0.12012   0.47753   0.99841   0.00000  Uiso   1.00
H220   H     0.51547   0.46192   0.97407   0.00000  Uiso   1.00
H221   H     0.28570   0.32586   0.76199   0.00000  Uiso   1.00
O222   O     0.06180   0.50215   0.74689   0.00000  Uiso   1.00
O223   O     0.58048   0.48168   0.71496   0.00000  Uiso   1.00
O224   O     0.27904   0.30317   0.43672   0.00000  Uiso   1.00
N225   N     0.13228   0.48501   0.56417   0.00000  Uiso   1.00
N226   N     0.50190   0.47043   0.54143   0.00000  Uiso   1.00
N227   N     0.28711   0.34322   0.34315   0.00000  Uiso   1.00
N228   N     0.13228   0.47723   0.86404   0.00000  Uiso   1.00
N229   N     0.50190   0.46265   0.84130   0.00000  Uiso   1.00
N230   N     0.28711   0.33544   0.64301   0.00000  Uiso   1.00
C231   C     0.30706   0.93357   0.95652   0.00000  Uiso   1.00
C232   C     0.25889   0.94584   0.05947   0.00000  Uiso   1.00
C233   C     0.21839   0.96050   0.97899   0.00000  Uiso   1.00
C234   C     0.17784   0.97002   0.09697   0.00000  Uiso   1.00
C235   C     0.10305   0.98984   0.22770   0.00000  Uiso   1.00
C236   C     0.36076   0.94183   0.05321   0.00000  Uiso   1.00
C237   C     0.40591   0.95310   0.96746   0.00000  Uiso   1.00
C238   C     0.45111   0.95924   0.08018   0.00000  Uiso   1.00
C239   C     0.53449   0.97281   0.20115   0.00000  Uiso   1.00
C240   C     0.30155   0.90677   0.99856   0.00000  Uiso   1.00
C241   C     0.29693   0.88857   0.86686   0.00000  Uiso   1.00
C242   C     0.29230   0.86519   0.93357   0.00000  Uiso   1.00
C243   C     0.28376   0.82433   0.96970   0.00000  Uiso   1.00
C244   C     0.30707   0.92442   0.30916   0.00000  Uiso   1.00
C245   C     0.25889   0.94087   0.25101   0.00000  Uiso   1.00
C246   C     0.21839   0.95038   0.36914   0.00000  Uiso   1.00
C247   C     0.17783   0.96504   0.28886   0.00000  Uiso   1.00
C248   C     0.36076   0.93686   0.24474   0.00000  Uiso   1.00
C249   C     0.40591   0.94298   0.35761   0.00000  Uiso   1.00
C250   C     0.45111   0.95426   0.27206   0.00000  Uiso   1.00
C251   C     0.30155   0.90180   0.19010   0.00000  Uiso   1.00
C252   C     0.29693   0.87845   0.25702   0.00000  Uiso   1.00
C253   C     0.29231   0.86021   0.12546   0.00000  Uiso   1.00
H254   H     0.30707   0.93744   0.80741   0.00000  Uiso   1.00
H255   H     0.21840   0.96434   0.83076   0.00000  Uiso   1.00
H256   H     0.40590   0.95694   0.81923   0.00000  Uiso   1.00
H257   H     0.29693   0.89242   0.71865   0.00000  Uiso   1.00
H258   H     0.12012   0.99198   0.94113   0.00000  Uiso   1.00
H259   H     0.51546   0.97638   0.91680   0.00000  Uiso   1.00
H260   H     0.28570   0.84032   0.70472   0.00000  Uiso   1.00
H261   H     0.30707   0.92055   0.45829   0.00000  Uiso   1.00
H262   H     0.21840   0.94653   0.51736   0.00000  Uiso   1.00
H263   H     0.40590   0.93913   0.50583   0.00000  Uiso   1.00
H264   H     0.29694   0.87461   0.40525   0.00000  Uiso   1.00
H265   H     0.12012   0.97753   0.49841   0.00000  Uiso   1.00
H266   H     0.51547   0.96192   0.47407   0.00000  Uiso   1.00
H267   H     0.28570   0.82586   0.26199   0.00000  Uiso   1.00
O268   O     0.06180   0.00215   0.24689   0.00000  Uiso   1.00
O269   O     0.58048   0.98168   0.21496   0.00000  Uiso   1.00
O270   O     0.27904   0.80317   0.93672   0.00000  Uiso   1.00
N271   N     0.13228   0.98501   0.06417   0.00000  Uiso   1.00
N272   N     0.50190   0.97043   0.04143   0.00000  Uiso   1.00
N273   N     0.28711   0.84322   0.84315   0.00000  Uiso   1.00
N274   N     0.13228   0.97723   0.36404   0.00000  Uiso   1.00
N275   N     0.50190   0.96265   0.34130   0.00000  Uiso   1.00
N276   N     0.28711   0.83544   0.14301   0.00000  Uiso   1.00
C277   C     0.80706   0.43357   0.95652   0.00000  Uiso   1.00
C278   C     0.75889   0.44584   0.05947   0.00000  Uiso   1.00
C279   C     0.71839   0.46050   0.97899   0.00000  Uiso   1.00
C280   C     0.67784   0.47002   0.09697   0.00000  Uiso   1.00
C281   C     0.60305   0.48984   0.22770   0.00000  Uiso   1.00
C282   C     0.86076   0.44183   0.05321   0.00000  Uiso   1.00
C283   C     0.90591   0.45310   0.96746   0.00000  Uiso   1.00
C284   C     0.95111   0.45924   0.08018   0.00000  Uiso   1.00
C285   C     0.03449   0.47281   0.20115   0.00000  Uiso   1.00
C286   C     0.80155   0.40677   0.99856   0.00000  Uiso   1.00
C287   C     0.79693   0.38857   0.86686   0.00000  Uiso   1.00
C288   C     0.79230   0.36519   0.93357   0.00000  Uiso   1.00
C289   C     0.78376   0.32433   0.96970   0.00000  Uiso   1.00
C290   C     0.80707   0.42442   0.30916   0.00000  Uiso   1.00
C291   C     0.75889   0.44087   0.25101   0.00000  Uiso   1.00
C292   C     0.71839   0.45038   0.36914   0.00000  Uiso   1.00
C293   C     0.67783   0.46504   0.28886   0.00000  Uiso   1.00
C294   C     0.86076   0.43686   0.24474   0.00000  Uiso   1.00
C295   C     0.90591   0.44298   0.35761   0.00000  Uiso   1.00
C296   C     0.95111   0.45426   0.27206   0.00000  Uiso   1.00
C297   C     0.80155   0.40180   0.19010   0.00000  Uiso   1.00
C298   C     0.79693   0.37845   0.25702   0.00000  Uiso   1.00
C299   C     0.79231   0.36021   0.12546   0.00000  Uiso   1.00
H300   H     0.80707   0.43744   0.80741   0.00000  Uiso   1.00
H301   H     0.71840   0.46434   0.83076   0.00000  Uiso   1.00
H302   H     0.90590   0.45694   0.81923   0.00000  Uiso   1.00
H303   H     0.79693   0.39242   0.71865   0.00000  Uiso   1.00
H304   H     0.62012   0.49198   0.94113   0.00000  Uiso   1.00
H305   H     0.01546   0.47638   0.91680   0.00000  Uiso   1.00
H306   H     0.78570   0.34032   0.70472   0.00000  Uiso   1.00
H307   H     0.80707   0.42055   0.45829   0.00000  Uiso   1.00
H308   H     0.71840   0.44653   0.51736   0.00000  Uiso   1.00
H309   H     0.90590   0.43913   0.50583   0.00000  Uiso   1.00
H310   H     0.79694   0.37461   0.40525   0.00000  Uiso   1.00
H311   H     0.62012   0.47753   0.49841   0.00000  Uiso   1.00
H312   H     0.01547   0.46192   0.47407   0.00000  Uiso   1.00
H313   H     0.78570   0.32586   0.26199   0.00000  Uiso   1.00
O314   O     0.56180   0.50215   0.24689   0.00000  Uiso   1.00
O315   O     0.08048   0.48168   0.21496   0.00000  Uiso   1.00
O316   O     0.77904   0.30317   0.93672   0.00000  Uiso   1.00
N317   N     0.63228   0.48501   0.06417   0.00000  Uiso   1.00
N318   N     0.00190   0.47043   0.04143   0.00000  Uiso   1.00
N319   N     0.78711   0.34322   0.84315   0.00000  Uiso   1.00
N320   N     0.63228   0.47723   0.36404   0.00000  Uiso   1.00
N321   N     0.00190   0.46265   0.34130   0.00000  Uiso   1.00
N322   N     0.78711   0.33544   0.14301   0.00000  Uiso   1.00
C323   C     0.80706   0.93357   0.45652   0.00000  Uiso   1.00
C324   C     0.75889   0.94584   0.55947   0.00000  Uiso   1.00
C325   C     0.71839   0.96050   0.47899   0.00000  Uiso   1.00
C326   C     0.67784   0.97002   0.59697   0.00000  Uiso   1.00
C327   C     0.60305   0.98984   0.72770   0.00000  Uiso   1.00
C328   C     0.86076   0.94183   0.55321   0.00000  Uiso   1.00
C329   C     0.90591   0.95310   0.46746   0.00000  Uiso   1.00
C330   C     0.95111   0.95924   0.58018   0.00000  Uiso   1.00
C331   C     0.03449   0.97281   0.70115   0.00000  Uiso   1.00
C332   C     0.80155   0.90677   0.49856   0.00000  Uiso   1.00
C333   C     0.79693   0.88857   0.36686   0.00000  Uiso   1.00
C334   C     0.79230   0.86519   0.43357   0.00000  Uiso   1.00
C335   C     0.78376   0.82433   0.46970   0.00000  Uiso   1.00
C336   C     0.80707   0.92442   0.80916   0.00000  Uiso   1.00
C337   C     0.75889   0.94087   0.75101   0.00000  Uiso   1.00
C338   C     0.71839   0.95038   0.86914   0.00000  Uiso   1.00
C339   C     0.67783   0.96504   0.78886   0.00000  Uiso   1.00
C340   C     0.86076   0.93686   0.74474   0.00000  Uiso   1.00
C341   C     0.90591   0.94298   0.85761   0.00000  Uiso   1.00
C342   C     0.95111   0.95426   0.77206   0.00000  Uiso   1.00
C343   C     0.80155   0.90180   0.69010   0.00000  Uiso   1.00
C344   C     0.79693   0.87845   0.75702   0.00000  Uiso   1.00
C345   C     0.79231   0.86021   0.62546   0.00000  Uiso   1.00
H346   H     0.80707   0.93744   0.30741   0.00000  Uiso   1.00
H347   H     0.71840   0.96434   0.33076   0.00000  Uiso   1.00
H348   H     0.90590   0.95694   0.31923   0.00000  Uiso   1.00
H349   H     0.79693   0.89242   0.21865   0.00000  Uiso   1.00
H350   H     0.62012   0.99198   0.44113   0.00000  Uiso   1.00
H351   H     0.01546   0.97638   0.41680   0.00000  Uiso   1.00
H352   H     0.78570   0.84032   0.20472   0.00000  Uiso   1.00
H353   H     0.80707   0.92055   0.95829   0.00000  Uiso   1.00
H354   H     0.71840   0.94653   0.01736   0.00000  Uiso   1.00
H355   H     0.90590   0.93913   0.00583   0.00000  Uiso   1.00
H356   H     0.79694   0.87461   0.90525   0.00000  Uiso   1.00
H357   H     0.62012   0.97753   0.99841   0.00000  Uiso   1.00
H358   H     0.01547   0.96192   0.97407   0.00000  Uiso   1.00
H359   H     0.78570   0.82586   0.76199   0.00000  Uiso   1.00
O360   O     0.56180   0.00215   0.74689   0.00000  Uiso   1.00
O361   O     0.08048   0.98168   0.71496   0.00000  Uiso   1.00
O362   O     0.77904   0.80317   0.43672   0.00000  Uiso   1.00
N363   N     0.63228   0.98501   0.56417   0.00000  Uiso   1.00
N364   N     0.00190   0.97043   0.54143   0.00000  Uiso   1.00
N365   N     0.78711   0.84322   0.34315   0.00000  Uiso   1.00
N366   N     0.63228   0.97723   0.86404   0.00000  Uiso   1.00
N367   N     0.00190   0.96265   0.84130   0.00000  Uiso   1.00
N368   N     0.78711   0.83544   0.64301   0.00000  Uiso   1.00
C369   C     0.94294   0.68357   0.70652   0.00000  Uiso   1.00
C370   C     0.99111   0.69584   0.80947   0.00000  Uiso   1.00
C371   C     0.03161   0.71050   0.72899   0.00000  Uiso   1.00
C372   C     0.07216   0.72002   0.84697   0.00000  Uiso   1.00
C373   C     0.14695   0.73984   0.97770   0.00000  Uiso   1.00
C374   C     0.88924   0.69183   0.80321   0.00000  Uiso   1.00
C375   C     0.84409   0.70310   0.71746   0.00000  Uiso   1.00
C376   C     0.79889   0.70924   0.83018   0.00000  Uiso   1.00
C377   C     0.71551   0.72281   0.95115   0.00000  Uiso   1.00
C378   C     0.94845   0.65677   0.74856   0.00000  Uiso   1.00
C379   C     0.95307   0.63857   0.61686   0.00000  Uiso   1.00
C380   C     0.95770   0.61519   0.68357   0.00000  Uiso   1.00
C381   C     0.96624   0.57433   0.71970   0.00000  Uiso   1.00
C382   C     0.94293   0.67442   0.05916   0.00000  Uiso   1.00
C383   C     0.99111   0.69087   0.00101   0.00000  Uiso   1.00
C384   C     0.03161   0.70038   0.11914   0.00000  Uiso   1.00
C385   C     0.07217   0.71504   0.03886   0.00000  Uiso   1.00
C386   C     0.88924   0.68686   0.99474   0.00000  Uiso   1.00
C387   C     0.84409   0.69298   0.10761   0.00000  Uiso   1.00
C388   C     0.79889   0.70426   0.02206   0.00000  Uiso   1.00
C389   C     0.94845   0.65180   0.94010   0.00000  Uiso   1.00
C390   C     0.95307   0.62845   0.00702   0.00000  Uiso   1.00
C391   C     0.95769   0.61021   0.87546   0.00000  Uiso   1.00
H392   H     0.94293   0.68744   0.55741   0.00000  Uiso   1.00
H393   H     0.03160   0.71434   0.58076   0.00000  Uiso   1.00
H394   H     0.84410   0.70694   0.56923   0.00000  Uiso   1.00
H395   H     0.95307   0.64242   0.46865   0.00000  Uiso   1.00
H396   H     0.12988   0.74198   0.69113   0.00000  Uiso   1.00
H397   H     0.73454   0.72638   0.66680   0.00000  Uiso   1.00
H398   H     0.96430   0.59032   0.45472   0.00000  Uiso   1.00
H399   H     0.94293   0.67055   0.20829   0.00000  Uiso   1.00
H400   H     0.03160   0.69653   0.26736   0.00000  Uiso   1.00
H401   H     0.84410   0.68913   0.25583   0.00000  Uiso   1.00
H402   H     0.95306   0.62461   0.15525   0.00000  Uiso   1.00
H403   H     0.12988   0.72753   0.24841   0.00000  Uiso   1.00
H404   H     0.73453   0.71192   0.22407   0.00000  Uiso   1.00
H405   H     0.96430   0.57586   0.01199   0.00000  Uiso   1.00
O406   O     0.18820   0.75215   0.99689   0.00000  Uiso   1.00
O407   O     0.66952   0.73168   0.96496   0.00000  Uiso   1.00
O408   O     0.97096   0.55317   0.68672   0.00000  Uiso   1.00
N409   N     0.11772   0.73501   0.81417   0.00000  Uiso   1.00
N410   N     0.74810   0.72043   0.79143   0.00000  Uiso   1.00
N411   N     0.96289   0.59322   0.59315   0.00000  Uiso   1.00
N412   N     0.11772   0.72723   0.11404   0.00000  Uiso   1.00
N413   N     0.74810   0.71265   0.09130   0.00000  Uiso   1.00
N414   N     0.96289   0.58544   0.89301   0.00000  Uiso   1.00
C415   C     0.94294   0.18357   0.20652   0.00000  Uiso   1.00
C416   C     0.99111   0.19584   0.30947   0.00000  Uiso   1.00
C417   C     0.03161   0.21050   0.22899   0.00000  Uiso   1.00
C418   C     0.07216   0.22002   0.34697   0.00000  Uiso   1.00
C419   C     0.14695   0.23984   0.47770   0.00000  Uiso   1.00
C420   C     0.88924   0.19183   0.30321   0.00000  Uiso   1.00
C421   C     0.84409   0.20310   0.21746   0.00000  Uiso   1.00
C422   C     0.79889   0.20924   0.33018   0.00000  Uiso   1.00
C423   C     0.71551   0.22281   0.45115   0.00000  Uiso   1.00
C424   C     0.94845   0.15677   0.24856   0.00000  Uiso   1.00
C425   C     0.95307   0.13857   0.11686   0.00000  Uiso   1.00
C426   C     0.95770   0.11519   0.18357   0.00000  Uiso   1.00
C427   C     0.96624   0.07433   0.21970   0.00000  Uiso   1.00
C428   C     0.94293   0.17442   0.55916   0.00000  Uiso   1.00
C429   C     0.99111   0.19087   0.50101   0.00000  Uiso   1.00
C430   C     0.03161   0.20038   0.61914   0.00000  Uiso   1.00
C431   C     0.07217   0.21504   0.53886   0.00000  Uiso   1.00
C432   C     0.88924   0.18686   0.49474   0.00000  Uiso   1.00
C433   C     0.84409   0.19298   0.60761   0.00000  Uiso   1.00
C434   C     0.79889   0.20426   0.52206   0.00000  Uiso   1.00
C435   C     0.94845   0.15180   0.44010   0.00000  Uiso   1.00
C436   C     0.95307   0.12845   0.50702   0.00000  Uiso   1.00
C437   C     0.95769   0.11021   0.37546   0.00000  Uiso   1.00
H438   H     0.94293   0.18744   0.05741   0.00000  Uiso   1.00
H439   H     0.03160   0.21434   0.08076   0.00000  Uiso   1.00
H440   H     0.84410   0.20694   0.06923   0.00000  Uiso   1.00
H441   H     0.95307   0.14242   0.96865   0.00000  Uiso   1.00
H442   H     0.12988   0.24198   0.19113   0.00000  Uiso   1.00
H443   H     0.73454   0.22638   0.16680   0.00000  Uiso   1.00
H444   H     0.96430   0.09032   0.95472   0.00000  Uiso   1.00
H445   H     0.94293   0.17055   0.70829   0.00000  Uiso   1.00
H446   H     0.03160   0.19653   0.76736   0.00000  Uiso   1.00
H447   H     0.84410   0.18913   0.75583   0.00000  Uiso   1.00
H448   H     0.95306   0.12461   0.65525   0.00000  Uiso   1.00
H449   H     0.12988   0.22753   0.74841   0.00000  Uiso   1.00
H450   H     0.73453   0.21192   0.72407   0.00000  Uiso   1.00
H451   H     0.96430   0.07586   0.51199   0.00000  Uiso   1.00
O452   O     0.18820   0.25215   0.49689   0.00000  Uiso   1.00
O453   O     0.66952   0.23168   0.46496   0.00000  Uiso   1.00
O454   O     0.97096   0.05317   0.18672   0.00000  Uiso   1.00
N455   N     0.11772   0.23501   0.31417   0.00000  Uiso   1.00
N456   N     0.74810   0.22043   0.29143   0.00000  Uiso   1.00
N457   N     0.96289   0.09322   0.09315   0.00000  Uiso   1.00
N458   N     0.11772   0.22723   0.61404   0.00000  Uiso   1.00
N459   N     0.74810   0.21265   0.59130   0.00000  Uiso   1.00
N460   N     0.96289   0.08544   0.39301   0.00000  Uiso   1.00
C461   C     0.44294   0.68357   0.20652   0.00000  Uiso   1.00
C462   C     0.49111   0.69584   0.30947   0.00000  Uiso   1.00
C463   C     0.53161   0.71050   0.22899   0.00000  Uiso   1.00
C464   C     0.57216   0.72002   0.34697   0.00000  Uiso   1.00
C465   C     0.64695   0.73984   0.47770   0.00000  Uiso   1.00
C466   C     0.38924   0.69183   0.30321   0.00000  Uiso   1.00
C467   C     0.34409   0.70310   0.21746   0.00000  Uiso   1.00
C468   C     0.29889   0.70924   0.33018   0.00000  Uiso   1.00
C469   C     0.21551   0.72281   0.45115   0.00000  Uiso   1.00
C470   C     0.44845   0.65677   0.24856   0.00000  Uiso   1.00
C471   C     0.45307   0.63857   0.11686   0.00000  Uiso   1.00
C472   C     0.45770   0.61519   0.18357   0.00000  Uiso   1.00
C473   C     0.46624   0.57433   0.21970   0.00000  Uiso   1.00
C474   C     0.44293   0.67442   0.55916   0.00000  Uiso   1.00
C475   C     0.49111   0.69087   0.50101   0.00000  Uiso   1.00
C476   C     0.53161   0.70038   0.61914   0.00000  Uiso   1.00
C477   C     0.57217   0.71504   0.53886   0.00000  Uiso   1.00
C478   C     0.38924   0.68686   0.49474   0.00000  Uiso   1.00
C479   C     0.34409   0.69298   0.60761   0.00000  Uiso   1.00
C480   C     0.29889   0.70426   0.52206   0.00000  Uiso   1.00
C481   C     0.44845   0.65180   0.44010   0.00000  Uiso   1.00
C482   C     0.45307   0.62845   0.50702   0.00000  Uiso   1.00
C483   C     0.45769   0.61021   0.37546   0.00000  Uiso   1.00
H484   H     0.44293   0.68744   0.05741   0.00000  Uiso   1.00
H485   H     0.53160   0.71434   0.08076   0.00000  Uiso   1.00
H486   H     0.34410   0.70694   0.06923   0.00000  Uiso   1.00
H487   H     0.45307   0.64242   0.96865   0.00000  Uiso   1.00
H488   H     0.62988   0.74198   0.19113   0.00000  Uiso   1.00
H489   H     0.23454   0.72638   0.16680   0.00000  Uiso   1.00
H490   H     0.46430   0.59032   0.95472   0.00000  Uiso   1.00
H491   H     0.44293   0.67055   0.70829   0.00000  Uiso   1.00
H492   H     0.53160   0.69653   0.76736   0.00000  Uiso   1.00
H493   H     0.34410   0.68913   0.75583   0.00000  Uiso   1.00
H494   H     0.45306   0.62461   0.65525   0.00000  Uiso   1.00
H495   H     0.62988   0.72753   0.74841   0.00000  Uiso   1.00
H496   H     0.23453   0.71192   0.72407   0.00000  Uiso   1.00
H497   H     0.46430   0.57586   0.51199   0.00000  Uiso   1.00
O498   O     0.68820   0.75215   0.49689   0.00000  Uiso   1.00
O499   O     0.16952   0.73168   0.46496   0.00000  Uiso   1.00
O500   O     0.47096   0.55317   0.18672   0.00000  Uiso   1.00
N501   N     0.61772   0.73501   0.31417   0.00000  Uiso   1.00
N502   N     0.24810   0.72043   0.29143   0.00000  Uiso   1.00
N503   N     0.46289   0.59322   0.09315   0.00000  Uiso   1.00
N504   N     0.61772   0.72723   0.61404   0.00000  Uiso   1.00
N505   N     0.24810   0.71265   0.59130   0.00000  Uiso   1.00
N506   N     0.46289   0.58544   0.39301   0.00000  Uiso   1.00
C507   C     0.44294   0.18357   0.70652   0.00000  Uiso   1.00
C508   C     0.49111   0.19584   0.80947   0.00000  Uiso   1.00
C509   C     0.53161   0.21050   0.72899   0.00000  Uiso   1.00
C510   C     0.57216   0.22002   0.84697   0.00000  Uiso   1.00
C511   C     0.64695   0.23984   0.97770   0.00000  Uiso   1.00
C512   C     0.38924   0.19183   0.80321   0.00000  Uiso   1.00
C513   C     0.34409   0.20310   0.71746   0.00000  Uiso   1.00
C514   C     0.29889   0.20924   0.83018   0.00000  Uiso   1.00
C515   C     0.21551   0.22281   0.95115   0.00000  Uiso   1.00
C516   C     0.44845   0.15677   0.74856   0.00000  Uiso   1.00
C517   C     0.45307   0.13857   0.61686   0.00000  Uiso   1.00
C518   C     0.45770   0.11519   0.68357   0.00000  Uiso   1.00
C519   C     0.46624   0.07433   0.71970   0.00000  Uiso   1.00
C520   C     0.44293   0.17442   0.05916   0.00000  Uiso   1.00
C521   C     0.49111   0.19087   0.00101   0.00000  Uiso   1.00
C522   C     0.53161   0.20038   0.11914   0.00000  Uiso   1.00
C523   C     0.57217   0.21504   0.03886   0.00000  Uiso   1.00
C524   C     0.38924   0.18686   0.99474   0.00000  Uiso   1.00
C525   C     0.34409   0.19298   0.10761   0.00000  Uiso   1.00
C526   C     0.29889   0.20426   0.02206   0.00000  Uiso   1.00
C527   C     0.44845   0.15180   0.94010   0.00000  Uiso   1.00
C528   C     0.45307   0.12845   0.00702   0.00000  Uiso   1.00
C529   C     0.45769   0.11021   0.87546   0.00000  Uiso   1.00
H530   H     0.44293   0.18744   0.55741   0.00000  Uiso   1.00
H531   H     0.53160   0.21434   0.58076   0.00000  Uiso   1.00
H532   H     0.34410   0.20694   0.56923   0.00000  Uiso   1.00
H533   H     0.45307   0.14242   0.46865   0.00000  Uiso   1.00
H534   H     0.62988   0.24198   0.69113   0.00000  Uiso   1.00
H535   H     0.23454   0.22638   0.66680   0.00000  Uiso   1.00
H536   H     0.46430   0.09032   0.45472   0.00000  Uiso   1.00
H537   H     0.44293   0.17055   0.20829   0.00000  Uiso   1.00
H538   H     0.53160   0.19653   0.26736   0.00000  Uiso   1.00
H539   H     0.34410   0.18913   0.25583   0.00000  Uiso   1.00
H540   H     0.45306   0.12461   0.15525   0.00000  Uiso   1.00
H541   H     0.62988   0.22753   0.24841   0.00000  Uiso   1.00
H542   H     0.23453   0.21192   0.22407   0.00000  Uiso   1.00
H543   H     0.46430   0.07586   0.01199   0.00000  Uiso   1.00
O544   O     0.68820   0.25215   0.99689   0.00000  Uiso   1.00
O545   O     0.16952   0.23168   0.96496   0.00000  Uiso   1.00
O546   O     0.47096   0.05317   0.68672   0.00000  Uiso   1.00
N547   N     0.61772   0.23501   0.81417   0.00000  Uiso   1.00
N548   N     0.24810   0.22043   0.79143   0.00000  Uiso   1.00
N549   N     0.46289   0.09322   0.59315   0.00000  Uiso   1.00
N550   N     0.61772   0.22723   0.11404   0.00000  Uiso   1.00
N551   N     0.24810   0.21265   0.09130   0.00000  Uiso   1.00
N552   N     0.46289   0.08544   0.89301   0.00000  Uiso   1.00
C553   C     0.55706   0.81643   0.70652   0.00000  Uiso   1.00
C554   C     0.50889   0.80416   0.80947   0.00000  Uiso   1.00
C555   C     0.46839   0.78950   0.72899   0.00000  Uiso   1.00
C556   C     0.42784   0.77998   0.84697   0.00000  Uiso   1.00
C557   C     0.35305   0.76016   0.97770   0.00000  Uiso   1.00
C558   C     0.61076   0.80817   0.80321   0.00000  Uiso   1.00
C559   C     0.65591   0.79690   0.71746   0.00000  Uiso   1.00
C560   C     0.70111   0.79076   0.83018   0.00000  Uiso   1.00
C561   C     0.78449   0.77719   0.95115   0.00000  Uiso   1.00
C562   C     0.55155   0.84323   0.74856   0.00000  Uiso   1.00
C563   C     0.54693   0.86143   0.61686   0.00000  Uiso   1.00
C564   C     0.54230   0.88481   0.68357   0.00000  Uiso   1.00
C565   C     0.53376   0.92567   0.71970   0.00000  Uiso   1.00
C566   C     0.55707   0.82558   0.05916   0.00000  Uiso   1.00
C567   C     0.50889   0.80913   0.00101   0.00000  Uiso   1.00
C568   C     0.46839   0.79962   0.11914   0.00000  Uiso   1.00
C569   C     0.42783   0.78496   0.03886   0.00000  Uiso   1.00
C570   C     0.61076   0.81314   0.99474   0.00000  Uiso   1.00
C571   C     0.65591   0.80702   0.10761   0.00000  Uiso   1.00
C572   C     0.70111   0.79574   0.02206   0.00000  Uiso   1.00
C573   C     0.55155   0.84820   0.94010   0.00000  Uiso   1.00
C574   C     0.54693   0.87155   0.00702   0.00000  Uiso   1.00
C575   C     0.54231   0.88979   0.87546   0.00000  Uiso   1.00
H576   H     0.55707   0.81256   0.55741   0.00000  Uiso   1.00
H577   H     0.46840   0.78566   0.58076   0.00000  Uiso   1.00
H578   H     0.65590   0.79306   0.56923   0.00000  Uiso   1.00
H579   H     0.54693   0.85758   0.46865   0.00000  Uiso   1.00
H580   H     0.37012   0.75802   0.69113   0.00000  Uiso   1.00
H581   H     0.76546   0.77362   0.66680   0.00000  Uiso   1.00
H582   H     0.53570   0.90968   0.45472   0.00000  Uiso   1.00
H583   H     0.55707   0.82945   0.20829   0.00000  Uiso   1.00
H584   H     0.46840   0.80347   0.26736   0.00000  Uiso   1.00
H585   H     0.65590   0.81087   0.25583   0.00000  Uiso   1.00
H586   H     0.54694   0.87539   0.15525   0.00000  Uiso   1.00
H587   H     0.37012   0.77247   0.24841   0.00000  Uiso   1.00
H588   H     0.76547   0.78808   0.22407   0.00000  Uiso   1.00
H589   H     0.53570   0.92414   0.01199   0.00000  Uiso   1.00
O590   O     0.31180   0.74785   0.99689   0.00000  Uiso   1.00
O591   O     0.83048   0.76832   0.96496   0.00000  Uiso   1.00
O592   O     0.52904   0.94683   0.68672   0.00000  Uiso   1.00
N593   N     0.38228   0.76499   0.81417   0.00000  Uiso   1.00
N594   N     0.75190   0.77957   0.79143   0.00000  Uiso   1.00
N595   N     0.53711   0.90678   0.59315   0.00000  Uiso   1.00
N596   N     0.38228   0.77277   0.11404   0.00000  Uiso   1.00
N597   N     0.75190   0.78735   0.09130   0.00000  Uiso   1.00
N598   N     0.53711   0.91456   0.89301   0.00000  Uiso   1.00
C599   C     0.55706   0.31643   0.20652   0.00000  Uiso   1.00
C600   C     0.50889   0.30416   0.30947   0.00000  Uiso   1.00
C601   C     0.46839   0.28950   0.22899   0.00000  Uiso   1.00
C602   C     0.42784   0.27998   0.34697   0.00000  Uiso   1.00
C603   C     0.35305   0.26016   0.47770   0.00000  Uiso   1.00
C604   C     0.61076   0.30817   0.30321   0.00000  Uiso   1.00
C605   C     0.65591   0.29690   0.21746   0.00000  Uiso   1.00
C606   C     0.70111   0.29076   0.33018   0.00000  Uiso   1.00
C607   C     0.78449   0.27719   0.45115   0.00000  Uiso   1.00
C608   C     0.55155   0.34323   0.24856   0.00000  Uiso   1.00
C609   C     0.54693   0.36143   0.11686   0.00000  Uiso   1.00
C610   C     0.54230   0.38481   0.18357   0.00000  Uiso   1.00
C611   C     0.53376   0.42567   0.21970   0.00000  Uiso   1.00
C612   C     0.55707   0.32558   0.55916   0.00000  Uiso   1.00
C613   C     0.50889   0.30913   0.50101   0.00000  Uiso   1.00
C614   C     0.46839   0.29962   0.61914   0.00000  Uiso   1.00
C615   C     0.42783   0.28496   0.53886   0.00000  Uiso   1.00
C616   C     0.61076   0.31314   0.49474   0.00000  Uiso   1.00
C617   C     0.65591   0.30702   0.60761   0.00000  Uiso   1.00
C618   C     0.70111   0.29574   0.52206   0.00000  Uiso   1.00
C619   C     0.55155   0.34820   0.44010   0.00000  Uiso   1.00
C620   C     0.54693   0.37155   0.50702   0.00000  Uiso   1.00
C621   C     0.54231   0.38979   0.37546   0.00000  Uiso   1.00
H622   H     0.55707   0.31256   0.05741   0.00000  Uiso   1.00
H623   H     0.46840   0.28566   0.08076   0.00000  Uiso   1.00
H624   H     0.65590   0.29306   0.06923   0.00000  Uiso   1.00
H625   H     0.54693   0.35758   0.96865   0.00000  Uiso   1.00
H626   H     0.37012   0.25802   0.19113   0.00000  Uiso   1.00
H627   H     0.76546   0.27362   0.16680   0.00000  Uiso   1.00
H628   H     0.53570   0.40968   0.95472   0.00000  Uiso   1.00
H629   H     0.55707   0.32945   0.70829   0.00000  Uiso   1.00
H630   H     0.46840   0.30347   0.76736   0.00000  Uiso   1.00
H631   H     0.65590   0.31087   0.75583   0.00000  Uiso   1.00
H632   H     0.54694   0.37539   0.65525   0.00000  Uiso   1.00
H633   H     0.37012   0.27247   0.74841   0.00000  Uiso   1.00
H634   H     0.76547   0.28808   0.72407   0.00000  Uiso   1.00
H635   H     0.53570   0.42414   0.51199   0.00000  Uiso   1.00
O636   O     0.31180   0.24785   0.49689   0.00000  Uiso   1.00
O637   O     0.83048   0.26832   0.46496   0.00000  Uiso   1.00
O638   O     0.52904   0.44683   0.18672   0.00000  Uiso   1.00
N639   N     0.38228   0.26499   0.31417   0.00000  Uiso   1.00
N640   N     0.75190   0.27957   0.29143   0.00000  Uiso   1.00
N641   N     0.53711   0.40678   0.09315   0.00000  Uiso   1.00
N642   N     0.38228   0.27277   0.61404   0.00000  Uiso   1.00
N643   N     0.75190   0.28735   0.59130   0.00000  Uiso   1.00
N644   N     0.53711   0.41456   0.39301   0.00000  Uiso   1.00
C645   C     0.05706   0.81643   0.20652   0.00000  Uiso   1.00
C646   C     0.00889   0.80416   0.30947   0.00000  Uiso   1.00
C647   C     0.96839   0.78950   0.22899   0.00000  Uiso   1.00
C648   C     0.92784   0.77998   0.34697   0.00000  Uiso   1.00
C649   C     0.85305   0.76016   0.47770   0.00000  Uiso   1.00
C650   C     0.11076   0.80817   0.30321   0.00000  Uiso   1.00
C651   C     0.15591   0.79690   0.21746   0.00000  Uiso   1.00
C652   C     0.20111   0.79076   0.33018   0.00000  Uiso   1.00
C653   C     0.28449   0.77719   0.45115   0.00000  Uiso   1.00
C654   C     0.05155   0.84323   0.24856   0.00000  Uiso   1.00
C655   C     0.04693   0.86143   0.11686   0.00000  Uiso   1.00
C656   C     0.04230   0.88481   0.18357   0.00000  Uiso   1.00
C657   C     0.03376   0.92567   0.21970   0.00000  Uiso   1.00
C658   C     0.05707   0.82558   0.55916   0.00000  Uiso   1.00
C659   C     0.00889   0.80913   0.50101   0.00000  Uiso   1.00
C660   C     0.96839   0.79962   0.61914   0.00000  Uiso   1.00
C661   C     0.92783   0.78496   0.53886   0.00000  Uiso   1.00
C662   C     0.11076   0.81314   0.49474   0.00000  Uiso   1.00
C663   C     0.15591   0.80702   0.60761   0.00000  Uiso   1.00
C664   C     0.20111   0.79574   0.52206   0.00000  Uiso   1.00
C665   C     0.05155   0.84820   0.44010   0.00000  Uiso   1.00
C666   C     0.04693   0.87155   0.50702   0.00000  Uiso   1.00
C667   C     0.04231   0.88979   0.37546   0.00000  Uiso   1.00
H668   H     0.05707   0.81256   0.05741   0.00000  Uiso   1.00
H669   H     0.96840   0.78566   0.08076   0.00000  Uiso   1.00
H670   H     0.15590   0.79306   0.06923   0.00000  Uiso   1.00
H671   H     0.04693   0.85758   0.96865   0.00000  Uiso   1.00
H672   H     0.87012   0.75802   0.19113   0.00000  Uiso   1.00
H673   H     0.26546   0.77362   0.16680   0.00000  Uiso   1.00
H674   H     0.03570   0.90968   0.95472   0.00000  Uiso   1.00
H675   H     0.05707   0.82945   0.70829   0.00000  Uiso   1.00
H676   H     0.96840   0.80347   0.76736   0.00000  Uiso   1.00
H677   H     0.15590   0.81087   0.75583   0.00000  Uiso   1.00
H678   H     0.04694   0.87539   0.65525   0.00000  Uiso   1.00
H679   H     0.87012   0.77247   0.74841   0.00000  Uiso   1.00
H680   H     0.26547   0.78808   0.72407   0.00000  Uiso   1.00
H681   H     0.03570   0.92414   0.51199   0.00000  Uiso   1.00
O682   O     0.81180   0.74785   0.49689   0.00000  Uiso   1.00
O683   O     0.33048   0.76832   0.46496   0.00000  Uiso   1.00
O684   O     0.02904   0.94683   0.18672   0.00000  Uiso   1.00
N685   N     0.88228   0.76499   0.31417   0.00000  Uiso   1.00
N686   N     0.25190   0.77957   0.29143   0.00000  Uiso   1.00
N687   N     0.03711   0.90678   0.09315   0.00000  Uiso   1.00
N688   N     0.88228   0.77277   0.61404   0.00000  Uiso   1.00
N689   N     0.25190   0.78735   0.59130   0.00000  Uiso   1.00
N690   N     0.03711   0.91456   0.39301   0.00000  Uiso   1.00
C691   C     0.05706   0.31643   0.70652   0.00000  Uiso   1.00
C692   C     0.00889   0.30416   0.80947   0.00000  Uiso   1.00
C693   C     0.96839   0.28950   0.72899   0.00000  Uiso   1.00
C694   C     0.92784   0.27998   0.84697   0.00000  Uiso   1.00
C695   C     0.85305   0.26016   0.97770   0.00000  Uiso   1.00
C696   C     0.11076   0.30817   0.80321   0.00000  Uiso   1.00
C697   C     0.15591   0.29690   0.71746   0.00000  Uiso   1.00
C698   C     0.20111   0.29076   0.83018   0.00000  Uiso   1.00
C699   C     0.28449   0.27719   0.95115   0.00000  Uiso   1.00
C700   C     0.05155   0.34323   0.74856   0.00000  Uiso   1.00
C701   C     0.04693   0.36143   0.61686   0.00000  Uiso   1.00
C702   C     0.04230   0.38481   0.68357   0.00000  Uiso   1.00
C703   C     0.03376   0.42567   0.71970   0.00000  Uiso   1.00
C704   C     0.05707   0.32558   0.05916   0.00000  Uiso   1.00
C705   C     0.00889   0.30913   0.00101   0.00000  Uiso   1.00
C706   C     0.96839   0.29962   0.11914   0.00000  Uiso   1.00
C707   C     0.92783   0.28496   0.03886   0.00000  Uiso   1.00
C708   C     0.11076   0.31314   0.99474   0.00000  Uiso   1.00
C709   C     0.15591   0.30702   0.10761   0.00000  Uiso   1.00
C710   C     0.20111   0.29574   0.02206   0.00000  Uiso   1.00
C711   C     0.05155   0.34820   0.94010   0.00000  Uiso   1.00
C712   C     0.04693   0.37155   0.00702   0.00000  Uiso   1.00
C713   C     0.04231   0.38979   0.87546   0.00000  Uiso   1.00
H714   H     0.05707   0.31256   0.55741   0.00000  Uiso   1.00
H715   H     0.96840   0.28566   0.58076   0.00000  Uiso   1.00
H716   H     0.15590   0.29306   0.56923   0.00000  Uiso   1.00
H717   H     0.04693   0.35758   0.46865   0.00000  Uiso   1.00
H718   H     0.87012   0.25802   0.69113   0.00000  Uiso   1.00
H719   H     0.26546   0.27362   0.66680   0.00000  Uiso   1.00
H720   H     0.03570   0.40968   0.45472   0.00000  Uiso   1.00
H721   H     0.05707   0.32945   0.20829   0.00000  Uiso   1.00
H722   H     0.96840   0.30347   0.26736   0.00000  Uiso   1.00
H723   H     0.15590   0.31087   0.25583   0.00000  Uiso   1.00
H724   H     0.04694   0.37539   0.15525   0.00000  Uiso   1.00
H725   H     0.87012   0.27247   0.24841   0.00000  Uiso   1.00
H726   H     0.26547   0.28808   0.22407   0.00000  Uiso   1.00
H727   H     0.03570   0.42414   0.01199   0.00000  Uiso   1.00
O728   O     0.81180   0.24785   0.99689   0.00000  Uiso   1.00
O729   O     0.33048   0.26832   0.96496   0.00000  Uiso   1.00
O730   O     0.02904   0.44683   0.68672   0.00000  Uiso   1.00
N731   N     0.88228   0.26499   0.81417   0.00000  Uiso   1.00
N732   N     0.25190   0.27957   0.79143   0.00000  Uiso   1.00
N733   N     0.03711   0.40678   0.59315   0.00000  Uiso   1.00
N734   N     0.88228   0.27277   0.11404   0.00000  Uiso   1.00
N735   N     0.25190   0.28735   0.09130   0.00000  Uiso   1.00
N736   N     0.03711   0.41456   0.89301   0.00000  Uiso   1.00
