data_job_05890
_audit_creation_date              2018-12-19
_audit_creation_method            'Materials Studio'
_symmetry_space_group_name_H-M    'P1'
_symmetry_Int_Tables_number       1
_symmetry_cell_setting            triclinic
loop_
_symmetry_equiv_pos_as_xyz
  x,y,z
_cell_length_a                    12.4523
_cell_length_b                    12.4523
_cell_length_c                    61.5157
_cell_angle_alpha                 90.0000
_cell_angle_beta                  90.0000
_cell_angle_gamma                 90.0000
loop_
_atom_site_label
_atom_site_type_symbol
_atom_site_fract_x
_atom_site_fract_y
_atom_site_fract_z
_atom_site_U_iso_or_equiv
_atom_site_adp_type
_atom_site_occupancy
C1     C     0.62860   0.24072   0.19965   0.00000  Uiso   1.00
C2     C     0.55360   0.20685   0.18130   0.00000  Uiso   1.00
C3     C     0.44234   0.20329   0.18240   0.00000  Uiso   1.00
C4     C     0.38823   0.17008   0.16385   0.00000  Uiso   1.00
C5     C     0.26336   0.12179   0.13823   0.00000  Uiso   1.00
C6     C     0.70544   0.14692   0.20313   0.00000  Uiso   1.00
C7     C     0.72185   0.09298   0.22259   0.00000  Uiso   1.00
C8     C     0.79557   0.00933   0.22241   0.00000  Uiso   1.00
C9     C     0.90650   0.86805   0.23069   0.00000  Uiso   1.00
C10    C     0.69650   0.33232   0.19061   0.00000  Uiso   1.00
C11    C     0.70543   0.43426   0.19955   0.00000  Uiso   1.00
C12    C     0.77165   0.50670   0.18884   0.00000  Uiso   1.00
C13    C     0.86869   0.65327   0.17769   0.00000  Uiso   1.00
C14    C     0.73035   0.18810   0.16474   0.00000  Uiso   1.00
C15    C     0.60886   0.17827   0.16233   0.00000  Uiso   1.00
C16    C     0.55491   0.14506   0.14377   0.00000  Uiso   1.00
C17    C     0.44359   0.14145   0.14485   0.00000  Uiso   1.00
C18    C     0.76070   0.11834   0.18417   0.00000  Uiso   1.00
C19    C     0.83442   0.03476   0.18396   0.00000  Uiso   1.00
C20    C     0.85094   0.98070   0.20342   0.00000  Uiso   1.00
C21    C     0.75176   0.30374   0.17165   0.00000  Uiso   1.00
C22    C     0.81799   0.37603   0.16092   0.00000  Uiso   1.00
C23    C     0.82701   0.47806   0.16984   0.00000  Uiso   1.00
H24    H     0.58558   0.26297   0.21442   0.00000  Uiso   1.00
H25    H     0.39960   0.22541   0.19708   0.00000  Uiso   1.00
H26    H     0.67908   0.11513   0.23726   0.00000  Uiso   1.00
H27    H     0.66265   0.45635   0.21423   0.00000  Uiso   1.00
H28    H     0.21779   0.17111   0.16950   0.00000  Uiso   1.00
H29    H     0.80710   0.93860   0.25422   0.00000  Uiso   1.00
H30    H     0.77246   0.65814   0.20565   0.00000  Uiso   1.00
H31    H     0.77338   0.16584   0.14998   0.00000  Uiso   1.00
H32    H     0.59770   0.12295   0.12910   0.00000  Uiso   1.00
H33    H     0.87718   0.01266   0.16928   0.00000  Uiso   1.00
H34    H     0.86075   0.35389   0.14625   0.00000  Uiso   1.00
H35    H     0.37857   0.08795   0.11432   0.00000  Uiso   1.00
H36    H     0.96789   0.85544   0.19905   0.00000  Uiso   1.00
H37    H     0.93324   0.57498   0.15047   0.00000  Uiso   1.00
O38    O     0.17922   0.10303   0.12934   0.00000  Uiso   1.00
O39    O     0.95240   0.79800   0.24050   0.00000  Uiso   1.00
O40    O     0.90695   0.74202   0.17677   0.00000  Uiso   1.00
N41    N     0.27973   0.15745   0.15938   0.00000  Uiso   1.00
N42    N     0.83070   0.94005   0.23859   0.00000  Uiso   1.00
N43    N     0.79834   0.61275   0.19318   0.00000  Uiso   1.00
N44    N     0.36625   0.11270   0.12969   0.00000  Uiso   1.00
N45    N     0.91721   0.89530   0.20890   0.00000  Uiso   1.00
N46    N     0.88485   0.56800   0.16349   0.00000  Uiso   1.00
C47    C     0.12860   0.74072   0.69965   0.00000  Uiso   1.00
C48    C     0.05360   0.70685   0.68130   0.00000  Uiso   1.00
C49    C     0.94234   0.70329   0.68240   0.00000  Uiso   1.00
C50    C     0.88823   0.67008   0.66385   0.00000  Uiso   1.00
C51    C     0.76336   0.62179   0.63823   0.00000  Uiso   1.00
C52    C     0.20544   0.64692   0.70313   0.00000  Uiso   1.00
C53    C     0.22185   0.59298   0.72259   0.00000  Uiso   1.00
C54    C     0.29557   0.50933   0.72241   0.00000  Uiso   1.00
C55    C     0.40650   0.36805   0.73069   0.00000  Uiso   1.00
C56    C     0.19650   0.83232   0.69061   0.00000  Uiso   1.00
C57    C     0.20543   0.93426   0.69955   0.00000  Uiso   1.00
C58    C     0.27165   0.00670   0.68884   0.00000  Uiso   1.00
C59    C     0.36869   0.15327   0.67769   0.00000  Uiso   1.00
C60    C     0.23035   0.68810   0.66474   0.00000  Uiso   1.00
C61    C     0.10886   0.67827   0.66233   0.00000  Uiso   1.00
C62    C     0.05491   0.64506   0.64377   0.00000  Uiso   1.00
C63    C     0.94359   0.64145   0.64485   0.00000  Uiso   1.00
C64    C     0.26070   0.61834   0.68417   0.00000  Uiso   1.00
C65    C     0.33442   0.53476   0.68396   0.00000  Uiso   1.00
C66    C     0.35094   0.48070   0.70342   0.00000  Uiso   1.00
C67    C     0.25176   0.80374   0.67165   0.00000  Uiso   1.00
C68    C     0.31799   0.87603   0.66092   0.00000  Uiso   1.00
C69    C     0.32701   0.97806   0.66984   0.00000  Uiso   1.00
H70    H     0.08558   0.76297   0.71442   0.00000  Uiso   1.00
H71    H     0.89960   0.72541   0.69708   0.00000  Uiso   1.00
H72    H     0.17908   0.61513   0.73726   0.00000  Uiso   1.00
H73    H     0.16265   0.95635   0.71423   0.00000  Uiso   1.00
H74    H     0.71779   0.67111   0.66950   0.00000  Uiso   1.00
H75    H     0.30710   0.43860   0.75422   0.00000  Uiso   1.00
H76    H     0.27246   0.15814   0.70565   0.00000  Uiso   1.00
H77    H     0.27338   0.66584   0.64998   0.00000  Uiso   1.00
H78    H     0.09770   0.62295   0.62910   0.00000  Uiso   1.00
H79    H     0.37718   0.51266   0.66928   0.00000  Uiso   1.00
H80    H     0.36075   0.85389   0.64625   0.00000  Uiso   1.00
H81    H     0.87857   0.58795   0.61432   0.00000  Uiso   1.00
H82    H     0.46789   0.35544   0.69905   0.00000  Uiso   1.00
H83    H     0.43324   0.07498   0.65047   0.00000  Uiso   1.00
O84    O     0.67922   0.60303   0.62934   0.00000  Uiso   1.00
O85    O     0.45240   0.29800   0.74050   0.00000  Uiso   1.00
O86    O     0.40695   0.24202   0.67677   0.00000  Uiso   1.00
N87    N     0.77973   0.65745   0.65938   0.00000  Uiso   1.00
N88    N     0.33070   0.44005   0.73859   0.00000  Uiso   1.00
N89    N     0.29834   0.11275   0.69318   0.00000  Uiso   1.00
N90    N     0.86625   0.61270   0.62969   0.00000  Uiso   1.00
N91    N     0.41721   0.39530   0.70890   0.00000  Uiso   1.00
N92    N     0.38485   0.06800   0.66349   0.00000  Uiso   1.00
C93    C     0.37140   0.75928   0.19965   0.00000  Uiso   1.00
C94    C     0.44640   0.79315   0.18130   0.00000  Uiso   1.00
C95    C     0.55766   0.79671   0.18240   0.00000  Uiso   1.00
C96    C     0.61177   0.82992   0.16385   0.00000  Uiso   1.00
C97    C     0.73664   0.87821   0.13823   0.00000  Uiso   1.00
C98    C     0.29456   0.85308   0.20313   0.00000  Uiso   1.00
C99    C     0.27815   0.90702   0.22259   0.00000  Uiso   1.00
C100   C     0.20443   0.99067   0.22241   0.00000  Uiso   1.00
C101   C     0.09350   0.13195   0.23069   0.00000  Uiso   1.00
C102   C     0.30350   0.66768   0.19061   0.00000  Uiso   1.00
C103   C     0.29457   0.56574   0.19955   0.00000  Uiso   1.00
C104   C     0.22835   0.49330   0.18884   0.00000  Uiso   1.00
C105   C     0.13131   0.34673   0.17769   0.00000  Uiso   1.00
C106   C     0.26965   0.81190   0.16474   0.00000  Uiso   1.00
C107   C     0.39114   0.82173   0.16233   0.00000  Uiso   1.00
C108   C     0.44509   0.85494   0.14377   0.00000  Uiso   1.00
C109   C     0.55641   0.85855   0.14485   0.00000  Uiso   1.00
C110   C     0.23930   0.88166   0.18417   0.00000  Uiso   1.00
C111   C     0.16558   0.96524   0.18396   0.00000  Uiso   1.00
C112   C     0.14906   0.01930   0.20342   0.00000  Uiso   1.00
C113   C     0.24824   0.69626   0.17165   0.00000  Uiso   1.00
C114   C     0.18201   0.62397   0.16092   0.00000  Uiso   1.00
C115   C     0.17299   0.52194   0.16984   0.00000  Uiso   1.00
H116   H     0.41442   0.73703   0.21442   0.00000  Uiso   1.00
H117   H     0.60040   0.77459   0.19708   0.00000  Uiso   1.00
H118   H     0.32092   0.88487   0.23726   0.00000  Uiso   1.00
H119   H     0.33735   0.54365   0.21423   0.00000  Uiso   1.00
H120   H     0.78221   0.82889   0.16950   0.00000  Uiso   1.00
H121   H     0.19290   0.06140   0.25422   0.00000  Uiso   1.00
H122   H     0.22754   0.34186   0.20565   0.00000  Uiso   1.00
H123   H     0.22662   0.83416   0.14998   0.00000  Uiso   1.00
H124   H     0.40230   0.87705   0.12910   0.00000  Uiso   1.00
H125   H     0.12282   0.98734   0.16928   0.00000  Uiso   1.00
H126   H     0.13925   0.64611   0.14625   0.00000  Uiso   1.00
H127   H     0.62143   0.91205   0.11432   0.00000  Uiso   1.00
H128   H     0.03211   0.14456   0.19905   0.00000  Uiso   1.00
H129   H     0.06676   0.42502   0.15047   0.00000  Uiso   1.00
O130   O     0.82078   0.89697   0.12934   0.00000  Uiso   1.00
O131   O     0.04760   0.20200   0.24050   0.00000  Uiso   1.00
O132   O     0.09305   0.25798   0.17677   0.00000  Uiso   1.00
N133   N     0.72027   0.84255   0.15938   0.00000  Uiso   1.00
N134   N     0.16930   0.05995   0.23859   0.00000  Uiso   1.00
N135   N     0.20166   0.38725   0.19318   0.00000  Uiso   1.00
N136   N     0.63375   0.88730   0.12969   0.00000  Uiso   1.00
N137   N     0.08279   0.10470   0.20890   0.00000  Uiso   1.00
N138   N     0.11515   0.43200   0.16349   0.00000  Uiso   1.00
C139   C     0.87140   0.25928   0.69965   0.00000  Uiso   1.00
C140   C     0.94640   0.29315   0.68130   0.00000  Uiso   1.00
C141   C     0.05766   0.29671   0.68240   0.00000  Uiso   1.00
C142   C     0.11177   0.32992   0.66385   0.00000  Uiso   1.00
C143   C     0.23664   0.37821   0.63823   0.00000  Uiso   1.00
C144   C     0.79456   0.35308   0.70313   0.00000  Uiso   1.00
C145   C     0.77815   0.40702   0.72259   0.00000  Uiso   1.00
C146   C     0.70443   0.49067   0.72241   0.00000  Uiso   1.00
C147   C     0.59350   0.63195   0.73069   0.00000  Uiso   1.00
C148   C     0.80350   0.16768   0.69061   0.00000  Uiso   1.00
C149   C     0.79457   0.06574   0.69955   0.00000  Uiso   1.00
C150   C     0.72835   0.99330   0.68884   0.00000  Uiso   1.00
C151   C     0.63131   0.84673   0.67769   0.00000  Uiso   1.00
C152   C     0.76965   0.31190   0.66474   0.00000  Uiso   1.00
C153   C     0.89114   0.32173   0.66233   0.00000  Uiso   1.00
C154   C     0.94509   0.35494   0.64377   0.00000  Uiso   1.00
C155   C     0.05641   0.35855   0.64485   0.00000  Uiso   1.00
C156   C     0.73930   0.38166   0.68417   0.00000  Uiso   1.00
C157   C     0.66558   0.46524   0.68396   0.00000  Uiso   1.00
C158   C     0.64906   0.51930   0.70342   0.00000  Uiso   1.00
C159   C     0.74824   0.19626   0.67165   0.00000  Uiso   1.00
C160   C     0.68201   0.12397   0.66092   0.00000  Uiso   1.00
C161   C     0.67299   0.02194   0.66984   0.00000  Uiso   1.00
H162   H     0.91442   0.23703   0.71442   0.00000  Uiso   1.00
H163   H     0.10040   0.27459   0.69708   0.00000  Uiso   1.00
H164   H     0.82092   0.38487   0.73726   0.00000  Uiso   1.00
H165   H     0.83735   0.04365   0.71423   0.00000  Uiso   1.00
H166   H     0.28221   0.32889   0.66950   0.00000  Uiso   1.00
H167   H     0.69290   0.56140   0.75422   0.00000  Uiso   1.00
H168   H     0.72754   0.84186   0.70565   0.00000  Uiso   1.00
H169   H     0.72662   0.33416   0.64998   0.00000  Uiso   1.00
H170   H     0.90230   0.37705   0.62910   0.00000  Uiso   1.00
H171   H     0.62282   0.48734   0.66928   0.00000  Uiso   1.00
H172   H     0.63925   0.14611   0.64625   0.00000  Uiso   1.00
H173   H     0.12143   0.41205   0.61432   0.00000  Uiso   1.00
H174   H     0.53211   0.64456   0.69905   0.00000  Uiso   1.00
H175   H     0.56676   0.92502   0.65047   0.00000  Uiso   1.00
O176   O     0.32078   0.39697   0.62934   0.00000  Uiso   1.00
O177   O     0.54760   0.70200   0.74050   0.00000  Uiso   1.00
O178   O     0.59305   0.75798   0.67677   0.00000  Uiso   1.00
N179   N     0.22027   0.34255   0.65938   0.00000  Uiso   1.00
N180   N     0.66930   0.55995   0.73859   0.00000  Uiso   1.00
N181   N     0.70166   0.88725   0.69318   0.00000  Uiso   1.00
N182   N     0.13375   0.38730   0.62969   0.00000  Uiso   1.00
N183   N     0.58279   0.60470   0.70890   0.00000  Uiso   1.00
N184   N     0.61515   0.93200   0.66349   0.00000  Uiso   1.00
C185   C     0.24072   0.37140   0.80035   0.00000  Uiso   1.00
C186   C     0.20685   0.44640   0.81870   0.00000  Uiso   1.00
C187   C     0.20329   0.55766   0.81760   0.00000  Uiso   1.00
C188   C     0.17008   0.61177   0.83615   0.00000  Uiso   1.00
C189   C     0.12179   0.73664   0.86177   0.00000  Uiso   1.00
C190   C     0.14692   0.29456   0.79687   0.00000  Uiso   1.00
C191   C     0.09298   0.27815   0.77741   0.00000  Uiso   1.00
C192   C     0.00933   0.20443   0.77759   0.00000  Uiso   1.00
C193   C     0.86805   0.09350   0.76931   0.00000  Uiso   1.00
C194   C     0.33232   0.30350   0.80939   0.00000  Uiso   1.00
C195   C     0.43426   0.29457   0.80045   0.00000  Uiso   1.00
C196   C     0.50670   0.22835   0.81116   0.00000  Uiso   1.00
C197   C     0.65327   0.13131   0.82231   0.00000  Uiso   1.00
C198   C     0.18810   0.26965   0.83526   0.00000  Uiso   1.00
C199   C     0.17827   0.39114   0.83767   0.00000  Uiso   1.00
C200   C     0.14506   0.44509   0.85623   0.00000  Uiso   1.00
C201   C     0.14145   0.55641   0.85515   0.00000  Uiso   1.00
C202   C     0.11834   0.23930   0.81583   0.00000  Uiso   1.00
C203   C     0.03476   0.16558   0.81604   0.00000  Uiso   1.00
C204   C     0.98070   0.14906   0.79658   0.00000  Uiso   1.00
C205   C     0.30374   0.24824   0.82835   0.00000  Uiso   1.00
C206   C     0.37603   0.18201   0.83908   0.00000  Uiso   1.00
C207   C     0.47806   0.17299   0.83016   0.00000  Uiso   1.00
H208   H     0.26297   0.41442   0.78558   0.00000  Uiso   1.00
H209   H     0.22541   0.60040   0.80292   0.00000  Uiso   1.00
H210   H     0.11513   0.32092   0.76274   0.00000  Uiso   1.00
H211   H     0.45635   0.33735   0.78577   0.00000  Uiso   1.00
H212   H     0.17111   0.78221   0.83050   0.00000  Uiso   1.00
H213   H     0.93860   0.19290   0.74578   0.00000  Uiso   1.00
H214   H     0.65814   0.22754   0.79435   0.00000  Uiso   1.00
H215   H     0.16584   0.22662   0.85002   0.00000  Uiso   1.00
H216   H     0.12295   0.40230   0.87090   0.00000  Uiso   1.00
H217   H     0.01266   0.12282   0.83072   0.00000  Uiso   1.00
H218   H     0.35389   0.13925   0.85375   0.00000  Uiso   1.00
H219   H     0.08795   0.62143   0.88568   0.00000  Uiso   1.00
H220   H     0.85544   0.03211   0.80095   0.00000  Uiso   1.00
H221   H     0.57498   0.06676   0.84953   0.00000  Uiso   1.00
O222   O     0.10303   0.82078   0.87066   0.00000  Uiso   1.00
O223   O     0.79800   0.04760   0.75950   0.00000  Uiso   1.00
O224   O     0.74202   0.09305   0.82323   0.00000  Uiso   1.00
N225   N     0.15745   0.72027   0.84062   0.00000  Uiso   1.00
N226   N     0.94005   0.16930   0.76141   0.00000  Uiso   1.00
N227   N     0.61275   0.20166   0.80682   0.00000  Uiso   1.00
N228   N     0.11270   0.63375   0.87031   0.00000  Uiso   1.00
N229   N     0.89530   0.08279   0.79110   0.00000  Uiso   1.00
N230   N     0.56800   0.11515   0.83651   0.00000  Uiso   1.00
C231   C     0.74072   0.87140   0.30035   0.00000  Uiso   1.00
C232   C     0.70685   0.94640   0.31870   0.00000  Uiso   1.00
C233   C     0.70329   0.05766   0.31760   0.00000  Uiso   1.00
C234   C     0.67008   0.11177   0.33615   0.00000  Uiso   1.00
C235   C     0.62179   0.23664   0.36177   0.00000  Uiso   1.00
C236   C     0.64692   0.79456   0.29687   0.00000  Uiso   1.00
C237   C     0.59298   0.77815   0.27741   0.00000  Uiso   1.00
C238   C     0.50933   0.70443   0.27759   0.00000  Uiso   1.00
C239   C     0.36805   0.59350   0.26931   0.00000  Uiso   1.00
C240   C     0.83232   0.80350   0.30939   0.00000  Uiso   1.00
C241   C     0.93426   0.79457   0.30045   0.00000  Uiso   1.00
C242   C     0.00670   0.72835   0.31116   0.00000  Uiso   1.00
C243   C     0.15327   0.63131   0.32231   0.00000  Uiso   1.00
C244   C     0.68810   0.76965   0.33526   0.00000  Uiso   1.00
C245   C     0.67827   0.89114   0.33767   0.00000  Uiso   1.00
C246   C     0.64506   0.94509   0.35623   0.00000  Uiso   1.00
C247   C     0.64145   0.05641   0.35515   0.00000  Uiso   1.00
C248   C     0.61834   0.73930   0.31583   0.00000  Uiso   1.00
C249   C     0.53476   0.66558   0.31604   0.00000  Uiso   1.00
C250   C     0.48070   0.64906   0.29658   0.00000  Uiso   1.00
C251   C     0.80374   0.74824   0.32835   0.00000  Uiso   1.00
C252   C     0.87603   0.68201   0.33908   0.00000  Uiso   1.00
C253   C     0.97806   0.67299   0.33016   0.00000  Uiso   1.00
H254   H     0.76297   0.91442   0.28558   0.00000  Uiso   1.00
H255   H     0.72541   0.10040   0.30292   0.00000  Uiso   1.00
H256   H     0.61513   0.82092   0.26274   0.00000  Uiso   1.00
H257   H     0.95635   0.83735   0.28577   0.00000  Uiso   1.00
H258   H     0.67111   0.28221   0.33050   0.00000  Uiso   1.00
H259   H     0.43860   0.69290   0.24578   0.00000  Uiso   1.00
H260   H     0.15814   0.72754   0.29435   0.00000  Uiso   1.00
H261   H     0.66584   0.72662   0.35002   0.00000  Uiso   1.00
H262   H     0.62295   0.90230   0.37090   0.00000  Uiso   1.00
H263   H     0.51266   0.62282   0.33072   0.00000  Uiso   1.00
H264   H     0.85389   0.63925   0.35375   0.00000  Uiso   1.00
H265   H     0.58795   0.12143   0.38568   0.00000  Uiso   1.00
H266   H     0.35544   0.53211   0.30095   0.00000  Uiso   1.00
H267   H     0.07498   0.56676   0.34953   0.00000  Uiso   1.00
O268   O     0.60303   0.32078   0.37066   0.00000  Uiso   1.00
O269   O     0.29800   0.54760   0.25950   0.00000  Uiso   1.00
O270   O     0.24202   0.59305   0.32323   0.00000  Uiso   1.00
N271   N     0.65745   0.22027   0.34062   0.00000  Uiso   1.00
N272   N     0.44005   0.66930   0.26141   0.00000  Uiso   1.00
N273   N     0.11275   0.70166   0.30682   0.00000  Uiso   1.00
N274   N     0.61270   0.13375   0.37031   0.00000  Uiso   1.00
N275   N     0.39530   0.58279   0.29110   0.00000  Uiso   1.00
N276   N     0.06800   0.61515   0.33651   0.00000  Uiso   1.00
C277   C     0.75928   0.62860   0.80035   0.00000  Uiso   1.00
C278   C     0.79315   0.55360   0.81870   0.00000  Uiso   1.00
C279   C     0.79671   0.44234   0.81760   0.00000  Uiso   1.00
C280   C     0.82992   0.38823   0.83615   0.00000  Uiso   1.00
C281   C     0.87821   0.26336   0.86177   0.00000  Uiso   1.00
C282   C     0.85308   0.70544   0.79687   0.00000  Uiso   1.00
C283   C     0.90702   0.72185   0.77741   0.00000  Uiso   1.00
C284   C     0.99067   0.79557   0.77759   0.00000  Uiso   1.00
C285   C     0.13195   0.90650   0.76931   0.00000  Uiso   1.00
C286   C     0.66768   0.69650   0.80939   0.00000  Uiso   1.00
C287   C     0.56574   0.70543   0.80045   0.00000  Uiso   1.00
C288   C     0.49330   0.77165   0.81116   0.00000  Uiso   1.00
C289   C     0.34673   0.86869   0.82231   0.00000  Uiso   1.00
C290   C     0.81190   0.73035   0.83526   0.00000  Uiso   1.00
C291   C     0.82173   0.60886   0.83767   0.00000  Uiso   1.00
C292   C     0.85494   0.55491   0.85623   0.00000  Uiso   1.00
C293   C     0.85855   0.44359   0.85515   0.00000  Uiso   1.00
C294   C     0.88166   0.76070   0.81583   0.00000  Uiso   1.00
C295   C     0.96524   0.83442   0.81604   0.00000  Uiso   1.00
C296   C     0.01930   0.85094   0.79658   0.00000  Uiso   1.00
C297   C     0.69626   0.75176   0.82835   0.00000  Uiso   1.00
C298   C     0.62397   0.81799   0.83908   0.00000  Uiso   1.00
C299   C     0.52194   0.82701   0.83016   0.00000  Uiso   1.00
H300   H     0.73703   0.58558   0.78558   0.00000  Uiso   1.00
H301   H     0.77459   0.39960   0.80292   0.00000  Uiso   1.00
H302   H     0.88487   0.67908   0.76274   0.00000  Uiso   1.00
H303   H     0.54365   0.66265   0.78577   0.00000  Uiso   1.00
H304   H     0.82889   0.21779   0.83050   0.00000  Uiso   1.00
H305   H     0.06140   0.80710   0.74578   0.00000  Uiso   1.00
H306   H     0.34186   0.77246   0.79435   0.00000  Uiso   1.00
H307   H     0.83416   0.77338   0.85002   0.00000  Uiso   1.00
H308   H     0.87705   0.59770   0.87090   0.00000  Uiso   1.00
H309   H     0.98734   0.87718   0.83072   0.00000  Uiso   1.00
H310   H     0.64611   0.86075   0.85375   0.00000  Uiso   1.00
H311   H     0.91205   0.37857   0.88568   0.00000  Uiso   1.00
H312   H     0.14456   0.96789   0.80095   0.00000  Uiso   1.00
H313   H     0.42502   0.93324   0.84953   0.00000  Uiso   1.00
O314   O     0.89697   0.17922   0.87066   0.00000  Uiso   1.00
O315   O     0.20200   0.95240   0.75950   0.00000  Uiso   1.00
O316   O     0.25798   0.90695   0.82323   0.00000  Uiso   1.00
N317   N     0.84255   0.27973   0.84062   0.00000  Uiso   1.00
N318   N     0.05995   0.83070   0.76141   0.00000  Uiso   1.00
N319   N     0.38725   0.79834   0.80682   0.00000  Uiso   1.00
N320   N     0.88730   0.36625   0.87031   0.00000  Uiso   1.00
N321   N     0.10470   0.91721   0.79110   0.00000  Uiso   1.00
N322   N     0.43200   0.88485   0.83651   0.00000  Uiso   1.00
C323   C     0.25928   0.12860   0.30035   0.00000  Uiso   1.00
C324   C     0.29315   0.05360   0.31870   0.00000  Uiso   1.00
C325   C     0.29671   0.94234   0.31760   0.00000  Uiso   1.00
C326   C     0.32992   0.88823   0.33615   0.00000  Uiso   1.00
C327   C     0.37821   0.76336   0.36177   0.00000  Uiso   1.00
C328   C     0.35308   0.20544   0.29687   0.00000  Uiso   1.00
C329   C     0.40702   0.22185   0.27741   0.00000  Uiso   1.00
C330   C     0.49067   0.29557   0.27759   0.00000  Uiso   1.00
C331   C     0.63195   0.40650   0.26931   0.00000  Uiso   1.00
C332   C     0.16768   0.19650   0.30939   0.00000  Uiso   1.00
C333   C     0.06574   0.20543   0.30045   0.00000  Uiso   1.00
C334   C     0.99330   0.27165   0.31116   0.00000  Uiso   1.00
C335   C     0.84673   0.36869   0.32231   0.00000  Uiso   1.00
C336   C     0.31190   0.23035   0.33526   0.00000  Uiso   1.00
C337   C     0.32173   0.10886   0.33767   0.00000  Uiso   1.00
C338   C     0.35494   0.05491   0.35623   0.00000  Uiso   1.00
C339   C     0.35855   0.94359   0.35515   0.00000  Uiso   1.00
C340   C     0.38166   0.26070   0.31583   0.00000  Uiso   1.00
C341   C     0.46524   0.33442   0.31604   0.00000  Uiso   1.00
C342   C     0.51930   0.35094   0.29658   0.00000  Uiso   1.00
C343   C     0.19626   0.25176   0.32835   0.00000  Uiso   1.00
C344   C     0.12397   0.31799   0.33908   0.00000  Uiso   1.00
C345   C     0.02194   0.32701   0.33016   0.00000  Uiso   1.00
H346   H     0.23703   0.08558   0.28558   0.00000  Uiso   1.00
H347   H     0.27459   0.89960   0.30292   0.00000  Uiso   1.00
H348   H     0.38487   0.17908   0.26274   0.00000  Uiso   1.00
H349   H     0.04365   0.16265   0.28577   0.00000  Uiso   1.00
H350   H     0.32889   0.71779   0.33050   0.00000  Uiso   1.00
H351   H     0.56140   0.30710   0.24578   0.00000  Uiso   1.00
H352   H     0.84186   0.27246   0.29435   0.00000  Uiso   1.00
H353   H     0.33416   0.27338   0.35002   0.00000  Uiso   1.00
H354   H     0.37705   0.09770   0.37090   0.00000  Uiso   1.00
H355   H     0.48734   0.37718   0.33072   0.00000  Uiso   1.00
H356   H     0.14611   0.36075   0.35375   0.00000  Uiso   1.00
H357   H     0.41205   0.87857   0.38568   0.00000  Uiso   1.00
H358   H     0.64456   0.46789   0.30095   0.00000  Uiso   1.00
H359   H     0.92502   0.43324   0.34953   0.00000  Uiso   1.00
O360   O     0.39697   0.67922   0.37066   0.00000  Uiso   1.00
O361   O     0.70200   0.45240   0.25950   0.00000  Uiso   1.00
O362   O     0.75798   0.40695   0.32323   0.00000  Uiso   1.00
N363   N     0.34255   0.77973   0.34062   0.00000  Uiso   1.00
N364   N     0.55995   0.33070   0.26141   0.00000  Uiso   1.00
N365   N     0.88725   0.29834   0.30682   0.00000  Uiso   1.00
N366   N     0.38730   0.86625   0.37031   0.00000  Uiso   1.00
N367   N     0.60470   0.41721   0.29110   0.00000  Uiso   1.00
N368   N     0.93200   0.38485   0.33651   0.00000  Uiso   1.00
C369   C     0.87140   0.24072   0.55035   0.00000  Uiso   1.00
C370   C     0.94640   0.20685   0.56870   0.00000  Uiso   1.00
C371   C     0.05766   0.20329   0.56760   0.00000  Uiso   1.00
C372   C     0.11177   0.17008   0.58615   0.00000  Uiso   1.00
C373   C     0.23664   0.12179   0.61177   0.00000  Uiso   1.00
C374   C     0.79456   0.14692   0.54687   0.00000  Uiso   1.00
C375   C     0.77815   0.09298   0.52741   0.00000  Uiso   1.00
C376   C     0.70443   0.00933   0.52759   0.00000  Uiso   1.00
C377   C     0.59350   0.86805   0.51931   0.00000  Uiso   1.00
C378   C     0.80350   0.33232   0.55939   0.00000  Uiso   1.00
C379   C     0.79457   0.43426   0.55045   0.00000  Uiso   1.00
C380   C     0.72835   0.50670   0.56116   0.00000  Uiso   1.00
C381   C     0.63131   0.65327   0.57231   0.00000  Uiso   1.00
C382   C     0.76965   0.18810   0.58526   0.00000  Uiso   1.00
C383   C     0.89114   0.17827   0.58767   0.00000  Uiso   1.00
C384   C     0.94509   0.14506   0.60623   0.00000  Uiso   1.00
C385   C     0.05641   0.14145   0.60515   0.00000  Uiso   1.00
C386   C     0.73930   0.11834   0.56583   0.00000  Uiso   1.00
C387   C     0.66558   0.03476   0.56604   0.00000  Uiso   1.00
C388   C     0.64906   0.98070   0.54658   0.00000  Uiso   1.00
C389   C     0.74824   0.30374   0.57835   0.00000  Uiso   1.00
C390   C     0.68201   0.37603   0.58908   0.00000  Uiso   1.00
C391   C     0.67299   0.47806   0.58016   0.00000  Uiso   1.00
H392   H     0.91442   0.26297   0.53558   0.00000  Uiso   1.00
H393   H     0.10040   0.22541   0.55292   0.00000  Uiso   1.00
H394   H     0.82092   0.11513   0.51274   0.00000  Uiso   1.00
H395   H     0.83735   0.45635   0.53577   0.00000  Uiso   1.00
H396   H     0.28221   0.17111   0.58050   0.00000  Uiso   1.00
H397   H     0.69290   0.93860   0.49578   0.00000  Uiso   1.00
H398   H     0.72754   0.65814   0.54435   0.00000  Uiso   1.00
H399   H     0.72662   0.16584   0.60002   0.00000  Uiso   1.00
H400   H     0.90230   0.12295   0.62090   0.00000  Uiso   1.00
H401   H     0.62282   0.01266   0.58072   0.00000  Uiso   1.00
H402   H     0.63925   0.35389   0.60375   0.00000  Uiso   1.00
H403   H     0.12143   0.08795   0.63568   0.00000  Uiso   1.00
H404   H     0.53211   0.85544   0.55095   0.00000  Uiso   1.00
H405   H     0.56676   0.57498   0.59953   0.00000  Uiso   1.00
O406   O     0.32078   0.10303   0.62066   0.00000  Uiso   1.00
O407   O     0.54760   0.79800   0.50950   0.00000  Uiso   1.00
O408   O     0.59305   0.74202   0.57323   0.00000  Uiso   1.00
N409   N     0.22027   0.15745   0.59062   0.00000  Uiso   1.00
N410   N     0.66930   0.94005   0.51141   0.00000  Uiso   1.00
N411   N     0.70166   0.61275   0.55682   0.00000  Uiso   1.00
N412   N     0.13375   0.11270   0.62031   0.00000  Uiso   1.00
N413   N     0.58279   0.89530   0.54110   0.00000  Uiso   1.00
N414   N     0.61515   0.56800   0.58651   0.00000  Uiso   1.00
C415   C     0.37140   0.74072   0.05035   0.00000  Uiso   1.00
C416   C     0.44640   0.70685   0.06870   0.00000  Uiso   1.00
C417   C     0.55766   0.70329   0.06760   0.00000  Uiso   1.00
C418   C     0.61177   0.67008   0.08615   0.00000  Uiso   1.00
C419   C     0.73664   0.62179   0.11177   0.00000  Uiso   1.00
C420   C     0.29456   0.64692   0.04687   0.00000  Uiso   1.00
C421   C     0.27815   0.59298   0.02741   0.00000  Uiso   1.00
C422   C     0.20443   0.50933   0.02759   0.00000  Uiso   1.00
C423   C     0.09350   0.36805   0.01931   0.00000  Uiso   1.00
C424   C     0.30350   0.83232   0.05939   0.00000  Uiso   1.00
C425   C     0.29457   0.93426   0.05045   0.00000  Uiso   1.00
C426   C     0.22835   0.00670   0.06116   0.00000  Uiso   1.00
C427   C     0.13131   0.15327   0.07231   0.00000  Uiso   1.00
C428   C     0.26965   0.68810   0.08526   0.00000  Uiso   1.00
C429   C     0.39114   0.67827   0.08767   0.00000  Uiso   1.00
C430   C     0.44509   0.64506   0.10623   0.00000  Uiso   1.00
C431   C     0.55641   0.64145   0.10515   0.00000  Uiso   1.00
C432   C     0.23930   0.61834   0.06583   0.00000  Uiso   1.00
C433   C     0.16558   0.53476   0.06604   0.00000  Uiso   1.00
C434   C     0.14906   0.48070   0.04658   0.00000  Uiso   1.00
C435   C     0.24824   0.80374   0.07835   0.00000  Uiso   1.00
C436   C     0.18201   0.87603   0.08908   0.00000  Uiso   1.00
C437   C     0.17299   0.97806   0.08016   0.00000  Uiso   1.00
H438   H     0.41442   0.76297   0.03558   0.00000  Uiso   1.00
H439   H     0.60040   0.72541   0.05292   0.00000  Uiso   1.00
H440   H     0.32092   0.61513   0.01274   0.00000  Uiso   1.00
H441   H     0.33735   0.95635   0.03577   0.00000  Uiso   1.00
H442   H     0.78221   0.67111   0.08050   0.00000  Uiso   1.00
H443   H     0.19290   0.43860   0.99578   0.00000  Uiso   1.00
H444   H     0.22754   0.15814   0.04435   0.00000  Uiso   1.00
H445   H     0.22662   0.66584   0.10002   0.00000  Uiso   1.00
H446   H     0.40230   0.62295   0.12090   0.00000  Uiso   1.00
H447   H     0.12282   0.51266   0.08072   0.00000  Uiso   1.00
H448   H     0.13925   0.85389   0.10375   0.00000  Uiso   1.00
H449   H     0.62143   0.58795   0.13568   0.00000  Uiso   1.00
H450   H     0.03211   0.35544   0.05095   0.00000  Uiso   1.00
H451   H     0.06676   0.07498   0.09953   0.00000  Uiso   1.00
O452   O     0.82078   0.60303   0.12066   0.00000  Uiso   1.00
O453   O     0.04760   0.29800   0.00950   0.00000  Uiso   1.00
O454   O     0.09305   0.24202   0.07323   0.00000  Uiso   1.00
N455   N     0.72027   0.65745   0.09062   0.00000  Uiso   1.00
N456   N     0.16930   0.44005   0.01141   0.00000  Uiso   1.00
N457   N     0.20166   0.11275   0.05682   0.00000  Uiso   1.00
N458   N     0.63375   0.61270   0.12031   0.00000  Uiso   1.00
N459   N     0.08279   0.39530   0.04110   0.00000  Uiso   1.00
N460   N     0.11515   0.06800   0.08651   0.00000  Uiso   1.00
C461   C     0.12860   0.75928   0.55035   0.00000  Uiso   1.00
C462   C     0.05360   0.79315   0.56870   0.00000  Uiso   1.00
C463   C     0.94234   0.79671   0.56760   0.00000  Uiso   1.00
C464   C     0.88823   0.82992   0.58615   0.00000  Uiso   1.00
C465   C     0.76336   0.87821   0.61177   0.00000  Uiso   1.00
C466   C     0.20544   0.85308   0.54687   0.00000  Uiso   1.00
C467   C     0.22185   0.90702   0.52741   0.00000  Uiso   1.00
C468   C     0.29557   0.99067   0.52759   0.00000  Uiso   1.00
C469   C     0.40650   0.13195   0.51931   0.00000  Uiso   1.00
C470   C     0.19650   0.66768   0.55939   0.00000  Uiso   1.00
C471   C     0.20543   0.56574   0.55045   0.00000  Uiso   1.00
C472   C     0.27165   0.49330   0.56116   0.00000  Uiso   1.00
C473   C     0.36869   0.34673   0.57231   0.00000  Uiso   1.00
C474   C     0.23035   0.81190   0.58526   0.00000  Uiso   1.00
C475   C     0.10886   0.82173   0.58767   0.00000  Uiso   1.00
C476   C     0.05491   0.85494   0.60623   0.00000  Uiso   1.00
C477   C     0.94359   0.85855   0.60515   0.00000  Uiso   1.00
C478   C     0.26070   0.88166   0.56583   0.00000  Uiso   1.00
C479   C     0.33442   0.96524   0.56604   0.00000  Uiso   1.00
C480   C     0.35094   0.01930   0.54658   0.00000  Uiso   1.00
C481   C     0.25176   0.69626   0.57835   0.00000  Uiso   1.00
C482   C     0.31799   0.62397   0.58908   0.00000  Uiso   1.00
C483   C     0.32701   0.52194   0.58016   0.00000  Uiso   1.00
H484   H     0.08558   0.73703   0.53558   0.00000  Uiso   1.00
H485   H     0.89960   0.77459   0.55292   0.00000  Uiso   1.00
H486   H     0.17908   0.88487   0.51274   0.00000  Uiso   1.00
H487   H     0.16265   0.54365   0.53577   0.00000  Uiso   1.00
H488   H     0.71779   0.82889   0.58050   0.00000  Uiso   1.00
H489   H     0.30710   0.06140   0.49578   0.00000  Uiso   1.00
H490   H     0.27246   0.34186   0.54435   0.00000  Uiso   1.00
H491   H     0.27338   0.83416   0.60002   0.00000  Uiso   1.00
H492   H     0.09770   0.87705   0.62090   0.00000  Uiso   1.00
H493   H     0.37718   0.98734   0.58072   0.00000  Uiso   1.00
H494   H     0.36075   0.64611   0.60375   0.00000  Uiso   1.00
H495   H     0.87857   0.91205   0.63568   0.00000  Uiso   1.00
H496   H     0.46789   0.14456   0.55095   0.00000  Uiso   1.00
H497   H     0.43324   0.42502   0.59953   0.00000  Uiso   1.00
O498   O     0.67922   0.89697   0.62066   0.00000  Uiso   1.00
O499   O     0.45240   0.20200   0.50950   0.00000  Uiso   1.00
O500   O     0.40695   0.25798   0.57323   0.00000  Uiso   1.00
N501   N     0.77973   0.84255   0.59062   0.00000  Uiso   1.00
N502   N     0.33070   0.05995   0.51141   0.00000  Uiso   1.00
N503   N     0.29834   0.38725   0.55682   0.00000  Uiso   1.00
N504   N     0.86625   0.88730   0.62031   0.00000  Uiso   1.00
N505   N     0.41721   0.10470   0.54110   0.00000  Uiso   1.00
N506   N     0.38485   0.43200   0.58651   0.00000  Uiso   1.00
C507   C     0.62860   0.25928   0.05035   0.00000  Uiso   1.00
C508   C     0.55360   0.29315   0.06870   0.00000  Uiso   1.00
C509   C     0.44234   0.29671   0.06760   0.00000  Uiso   1.00
C510   C     0.38823   0.32992   0.08615   0.00000  Uiso   1.00
C511   C     0.26336   0.37821   0.11177   0.00000  Uiso   1.00
C512   C     0.70544   0.35308   0.04687   0.00000  Uiso   1.00
C513   C     0.72185   0.40702   0.02741   0.00000  Uiso   1.00
C514   C     0.79557   0.49067   0.02759   0.00000  Uiso   1.00
C515   C     0.90650   0.63195   0.01931   0.00000  Uiso   1.00
C516   C     0.69650   0.16768   0.05939   0.00000  Uiso   1.00
C517   C     0.70543   0.06574   0.05045   0.00000  Uiso   1.00
C518   C     0.77165   0.99330   0.06116   0.00000  Uiso   1.00
C519   C     0.86869   0.84673   0.07231   0.00000  Uiso   1.00
C520   C     0.73035   0.31190   0.08526   0.00000  Uiso   1.00
C521   C     0.60886   0.32173   0.08767   0.00000  Uiso   1.00
C522   C     0.55491   0.35494   0.10623   0.00000  Uiso   1.00
C523   C     0.44359   0.35855   0.10515   0.00000  Uiso   1.00
C524   C     0.76070   0.38166   0.06583   0.00000  Uiso   1.00
C525   C     0.83442   0.46524   0.06604   0.00000  Uiso   1.00
C526   C     0.85094   0.51930   0.04658   0.00000  Uiso   1.00
C527   C     0.75176   0.19626   0.07835   0.00000  Uiso   1.00
C528   C     0.81799   0.12397   0.08908   0.00000  Uiso   1.00
C529   C     0.82701   0.02194   0.08016   0.00000  Uiso   1.00
H530   H     0.58558   0.23703   0.03558   0.00000  Uiso   1.00
H531   H     0.39960   0.27459   0.05292   0.00000  Uiso   1.00
H532   H     0.67908   0.38487   0.01274   0.00000  Uiso   1.00
H533   H     0.66265   0.04365   0.03577   0.00000  Uiso   1.00
H534   H     0.21779   0.32889   0.08050   0.00000  Uiso   1.00
H535   H     0.80710   0.56140   0.99578   0.00000  Uiso   1.00
H536   H     0.77246   0.84186   0.04435   0.00000  Uiso   1.00
H537   H     0.77338   0.33416   0.10002   0.00000  Uiso   1.00
H538   H     0.59770   0.37705   0.12090   0.00000  Uiso   1.00
H539   H     0.87718   0.48734   0.08072   0.00000  Uiso   1.00
H540   H     0.86075   0.14611   0.10375   0.00000  Uiso   1.00
H541   H     0.37857   0.41205   0.13568   0.00000  Uiso   1.00
H542   H     0.96789   0.64456   0.05095   0.00000  Uiso   1.00
H543   H     0.93324   0.92502   0.09953   0.00000  Uiso   1.00
O544   O     0.17922   0.39697   0.12066   0.00000  Uiso   1.00
O545   O     0.95240   0.70200   0.00950   0.00000  Uiso   1.00
O546   O     0.90695   0.75798   0.07323   0.00000  Uiso   1.00
N547   N     0.27973   0.34255   0.09062   0.00000  Uiso   1.00
N548   N     0.83070   0.55995   0.01141   0.00000  Uiso   1.00
N549   N     0.79834   0.88725   0.05682   0.00000  Uiso   1.00
N550   N     0.36625   0.38730   0.12031   0.00000  Uiso   1.00
N551   N     0.91721   0.60470   0.04110   0.00000  Uiso   1.00
N552   N     0.88485   0.93200   0.08651   0.00000  Uiso   1.00
C553   C     0.25928   0.37140   0.94965   0.00000  Uiso   1.00
C554   C     0.29315   0.44640   0.93130   0.00000  Uiso   1.00
C555   C     0.29671   0.55766   0.93240   0.00000  Uiso   1.00
C556   C     0.32992   0.61177   0.91385   0.00000  Uiso   1.00
C557   C     0.37821   0.73664   0.88823   0.00000  Uiso   1.00
C558   C     0.35308   0.29456   0.95313   0.00000  Uiso   1.00
C559   C     0.40702   0.27815   0.97259   0.00000  Uiso   1.00
C560   C     0.49067   0.20443   0.97241   0.00000  Uiso   1.00
C561   C     0.63195   0.09350   0.98069   0.00000  Uiso   1.00
C562   C     0.16768   0.30350   0.94061   0.00000  Uiso   1.00
C563   C     0.06574   0.29457   0.94955   0.00000  Uiso   1.00
C564   C     0.99330   0.22835   0.93884   0.00000  Uiso   1.00
C565   C     0.84673   0.13131   0.92769   0.00000  Uiso   1.00
C566   C     0.31190   0.26965   0.91474   0.00000  Uiso   1.00
C567   C     0.32173   0.39114   0.91233   0.00000  Uiso   1.00
C568   C     0.35494   0.44509   0.89377   0.00000  Uiso   1.00
C569   C     0.35855   0.55641   0.89485   0.00000  Uiso   1.00
C570   C     0.38166   0.23930   0.93417   0.00000  Uiso   1.00
C571   C     0.46524   0.16558   0.93396   0.00000  Uiso   1.00
C572   C     0.51930   0.14906   0.95342   0.00000  Uiso   1.00
C573   C     0.19626   0.24824   0.92165   0.00000  Uiso   1.00
C574   C     0.12397   0.18201   0.91092   0.00000  Uiso   1.00
C575   C     0.02194   0.17299   0.91984   0.00000  Uiso   1.00
H576   H     0.23703   0.41442   0.96442   0.00000  Uiso   1.00
H577   H     0.27459   0.60040   0.94708   0.00000  Uiso   1.00
H578   H     0.38487   0.32092   0.98726   0.00000  Uiso   1.00
H579   H     0.04365   0.33735   0.96423   0.00000  Uiso   1.00
H580   H     0.32889   0.78221   0.91950   0.00000  Uiso   1.00
H581   H     0.56140   0.19290   0.00422   0.00000  Uiso   1.00
H582   H     0.84186   0.22754   0.95565   0.00000  Uiso   1.00
H583   H     0.33416   0.22662   0.89998   0.00000  Uiso   1.00
H584   H     0.37705   0.40230   0.87910   0.00000  Uiso   1.00
H585   H     0.48734   0.12282   0.91928   0.00000  Uiso   1.00
H586   H     0.14611   0.13925   0.89625   0.00000  Uiso   1.00
H587   H     0.41205   0.62143   0.86432   0.00000  Uiso   1.00
H588   H     0.64456   0.03211   0.94905   0.00000  Uiso   1.00
H589   H     0.92502   0.06676   0.90047   0.00000  Uiso   1.00
O590   O     0.39697   0.82078   0.87934   0.00000  Uiso   1.00
O591   O     0.70200   0.04760   0.99050   0.00000  Uiso   1.00
O592   O     0.75798   0.09305   0.92677   0.00000  Uiso   1.00
N593   N     0.34255   0.72027   0.90938   0.00000  Uiso   1.00
N594   N     0.55995   0.16930   0.98859   0.00000  Uiso   1.00
N595   N     0.88725   0.20166   0.94318   0.00000  Uiso   1.00
N596   N     0.38730   0.63375   0.87969   0.00000  Uiso   1.00
N597   N     0.60470   0.08279   0.95890   0.00000  Uiso   1.00
N598   N     0.93200   0.11515   0.91349   0.00000  Uiso   1.00
C599   C     0.75928   0.87140   0.44965   0.00000  Uiso   1.00
C600   C     0.79315   0.94640   0.43130   0.00000  Uiso   1.00
C601   C     0.79671   0.05766   0.43240   0.00000  Uiso   1.00
C602   C     0.82992   0.11177   0.41385   0.00000  Uiso   1.00
C603   C     0.87821   0.23664   0.38823   0.00000  Uiso   1.00
C604   C     0.85308   0.79456   0.45313   0.00000  Uiso   1.00
C605   C     0.90702   0.77815   0.47259   0.00000  Uiso   1.00
C606   C     0.99067   0.70443   0.47241   0.00000  Uiso   1.00
C607   C     0.13195   0.59350   0.48069   0.00000  Uiso   1.00
C608   C     0.66768   0.80350   0.44061   0.00000  Uiso   1.00
C609   C     0.56574   0.79457   0.44955   0.00000  Uiso   1.00
C610   C     0.49330   0.72835   0.43884   0.00000  Uiso   1.00
C611   C     0.34673   0.63131   0.42769   0.00000  Uiso   1.00
C612   C     0.81190   0.76965   0.41474   0.00000  Uiso   1.00
C613   C     0.82173   0.89114   0.41233   0.00000  Uiso   1.00
C614   C     0.85494   0.94509   0.39377   0.00000  Uiso   1.00
C615   C     0.85855   0.05641   0.39485   0.00000  Uiso   1.00
C616   C     0.88166   0.73930   0.43417   0.00000  Uiso   1.00
C617   C     0.96524   0.66558   0.43396   0.00000  Uiso   1.00
C618   C     0.01930   0.64906   0.45342   0.00000  Uiso   1.00
C619   C     0.69626   0.74824   0.42165   0.00000  Uiso   1.00
C620   C     0.62397   0.68201   0.41092   0.00000  Uiso   1.00
C621   C     0.52194   0.67299   0.41984   0.00000  Uiso   1.00
H622   H     0.73703   0.91442   0.46442   0.00000  Uiso   1.00
H623   H     0.77459   0.10040   0.44708   0.00000  Uiso   1.00
H624   H     0.88487   0.82092   0.48726   0.00000  Uiso   1.00
H625   H     0.54365   0.83735   0.46423   0.00000  Uiso   1.00
H626   H     0.82889   0.28221   0.41950   0.00000  Uiso   1.00
H627   H     0.06140   0.69290   0.50422   0.00000  Uiso   1.00
H628   H     0.34186   0.72754   0.45565   0.00000  Uiso   1.00
H629   H     0.83416   0.72662   0.39998   0.00000  Uiso   1.00
H630   H     0.87705   0.90230   0.37910   0.00000  Uiso   1.00
H631   H     0.98734   0.62282   0.41928   0.00000  Uiso   1.00
H632   H     0.64611   0.63925   0.39625   0.00000  Uiso   1.00
H633   H     0.91205   0.12143   0.36432   0.00000  Uiso   1.00
H634   H     0.14456   0.53211   0.44905   0.00000  Uiso   1.00
H635   H     0.42502   0.56676   0.40047   0.00000  Uiso   1.00
O636   O     0.89697   0.32078   0.37934   0.00000  Uiso   1.00
O637   O     0.20200   0.54760   0.49050   0.00000  Uiso   1.00
O638   O     0.25798   0.59305   0.42677   0.00000  Uiso   1.00
N639   N     0.84255   0.22027   0.40938   0.00000  Uiso   1.00
N640   N     0.05995   0.66930   0.48859   0.00000  Uiso   1.00
N641   N     0.38725   0.70166   0.44318   0.00000  Uiso   1.00
N642   N     0.88730   0.13375   0.37969   0.00000  Uiso   1.00
N643   N     0.10470   0.58279   0.45890   0.00000  Uiso   1.00
N644   N     0.43200   0.61515   0.41349   0.00000  Uiso   1.00
C645   C     0.74072   0.62860   0.94965   0.00000  Uiso   1.00
C646   C     0.70685   0.55360   0.93130   0.00000  Uiso   1.00
C647   C     0.70329   0.44234   0.93240   0.00000  Uiso   1.00
C648   C     0.67008   0.38823   0.91385   0.00000  Uiso   1.00
C649   C     0.62179   0.26336   0.88823   0.00000  Uiso   1.00
C650   C     0.64692   0.70544   0.95313   0.00000  Uiso   1.00
C651   C     0.59298   0.72185   0.97259   0.00000  Uiso   1.00
C652   C     0.50933   0.79557   0.97241   0.00000  Uiso   1.00
C653   C     0.36805   0.90650   0.98069   0.00000  Uiso   1.00
C654   C     0.83232   0.69650   0.94061   0.00000  Uiso   1.00
C655   C     0.93426   0.70543   0.94955   0.00000  Uiso   1.00
C656   C     0.00670   0.77165   0.93884   0.00000  Uiso   1.00
C657   C     0.15327   0.86869   0.92769   0.00000  Uiso   1.00
C658   C     0.68810   0.73035   0.91474   0.00000  Uiso   1.00
C659   C     0.67827   0.60886   0.91233   0.00000  Uiso   1.00
C660   C     0.64506   0.55491   0.89377   0.00000  Uiso   1.00
C661   C     0.64145   0.44359   0.89485   0.00000  Uiso   1.00
C662   C     0.61834   0.76070   0.93417   0.00000  Uiso   1.00
C663   C     0.53476   0.83442   0.93396   0.00000  Uiso   1.00
C664   C     0.48070   0.85094   0.95342   0.00000  Uiso   1.00
C665   C     0.80374   0.75176   0.92165   0.00000  Uiso   1.00
C666   C     0.87603   0.81799   0.91092   0.00000  Uiso   1.00
C667   C     0.97806   0.82701   0.91984   0.00000  Uiso   1.00
H668   H     0.76297   0.58558   0.96442   0.00000  Uiso   1.00
H669   H     0.72541   0.39960   0.94708   0.00000  Uiso   1.00
H670   H     0.61513   0.67908   0.98726   0.00000  Uiso   1.00
H671   H     0.95635   0.66265   0.96423   0.00000  Uiso   1.00
H672   H     0.67111   0.21779   0.91950   0.00000  Uiso   1.00
H673   H     0.43860   0.80710   0.00422   0.00000  Uiso   1.00
H674   H     0.15814   0.77246   0.95565   0.00000  Uiso   1.00
H675   H     0.66584   0.77338   0.89998   0.00000  Uiso   1.00
H676   H     0.62295   0.59770   0.87910   0.00000  Uiso   1.00
H677   H     0.51266   0.87718   0.91928   0.00000  Uiso   1.00
H678   H     0.85389   0.86075   0.89625   0.00000  Uiso   1.00
H679   H     0.58795   0.37857   0.86432   0.00000  Uiso   1.00
H680   H     0.35544   0.96789   0.94905   0.00000  Uiso   1.00
H681   H     0.07498   0.93324   0.90047   0.00000  Uiso   1.00
O682   O     0.60303   0.17922   0.87934   0.00000  Uiso   1.00
O683   O     0.29800   0.95240   0.99050   0.00000  Uiso   1.00
O684   O     0.24202   0.90695   0.92677   0.00000  Uiso   1.00
N685   N     0.65745   0.27973   0.90938   0.00000  Uiso   1.00
N686   N     0.44005   0.83070   0.98859   0.00000  Uiso   1.00
N687   N     0.11275   0.79834   0.94318   0.00000  Uiso   1.00
N688   N     0.61270   0.36625   0.87969   0.00000  Uiso   1.00
N689   N     0.39530   0.91721   0.95890   0.00000  Uiso   1.00
N690   N     0.06800   0.88485   0.91349   0.00000  Uiso   1.00
C691   C     0.24072   0.12860   0.44965   0.00000  Uiso   1.00
C692   C     0.20685   0.05360   0.43130   0.00000  Uiso   1.00
C693   C     0.20329   0.94234   0.43240   0.00000  Uiso   1.00
C694   C     0.17008   0.88823   0.41385   0.00000  Uiso   1.00
C695   C     0.12179   0.76336   0.38823   0.00000  Uiso   1.00
C696   C     0.14692   0.20544   0.45313   0.00000  Uiso   1.00
C697   C     0.09298   0.22185   0.47259   0.00000  Uiso   1.00
C698   C     0.00933   0.29557   0.47241   0.00000  Uiso   1.00
C699   C     0.86805   0.40650   0.48069   0.00000  Uiso   1.00
C700   C     0.33232   0.19650   0.44061   0.00000  Uiso   1.00
C701   C     0.43426   0.20543   0.44955   0.00000  Uiso   1.00
C702   C     0.50670   0.27165   0.43884   0.00000  Uiso   1.00
C703   C     0.65327   0.36869   0.42769   0.00000  Uiso   1.00
C704   C     0.18810   0.23035   0.41474   0.00000  Uiso   1.00
C705   C     0.17827   0.10886   0.41233   0.00000  Uiso   1.00
C706   C     0.14506   0.05491   0.39377   0.00000  Uiso   1.00
C707   C     0.14145   0.94359   0.39485   0.00000  Uiso   1.00
C708   C     0.11834   0.26070   0.43417   0.00000  Uiso   1.00
C709   C     0.03476   0.33442   0.43396   0.00000  Uiso   1.00
C710   C     0.98070   0.35094   0.45342   0.00000  Uiso   1.00
C711   C     0.30374   0.25176   0.42165   0.00000  Uiso   1.00
C712   C     0.37603   0.31799   0.41092   0.00000  Uiso   1.00
C713   C     0.47806   0.32701   0.41984   0.00000  Uiso   1.00
H714   H     0.26297   0.08558   0.46442   0.00000  Uiso   1.00
H715   H     0.22541   0.89960   0.44708   0.00000  Uiso   1.00
H716   H     0.11513   0.17908   0.48726   0.00000  Uiso   1.00
H717   H     0.45635   0.16265   0.46423   0.00000  Uiso   1.00
H718   H     0.17111   0.71779   0.41950   0.00000  Uiso   1.00
H719   H     0.93860   0.30710   0.50422   0.00000  Uiso   1.00
H720   H     0.65814   0.27246   0.45565   0.00000  Uiso   1.00
H721   H     0.16584   0.27338   0.39998   0.00000  Uiso   1.00
H722   H     0.12295   0.09770   0.37910   0.00000  Uiso   1.00
H723   H     0.01266   0.37718   0.41928   0.00000  Uiso   1.00
H724   H     0.35389   0.36075   0.39625   0.00000  Uiso   1.00
H725   H     0.08795   0.87857   0.36432   0.00000  Uiso   1.00
H726   H     0.85544   0.46789   0.44905   0.00000  Uiso   1.00
H727   H     0.57498   0.43324   0.40047   0.00000  Uiso   1.00
O728   O     0.10303   0.67922   0.37934   0.00000  Uiso   1.00
O729   O     0.79800   0.45240   0.49050   0.00000  Uiso   1.00
O730   O     0.74202   0.40695   0.42677   0.00000  Uiso   1.00
N731   N     0.15745   0.77973   0.40938   0.00000  Uiso   1.00
N732   N     0.94005   0.33070   0.48859   0.00000  Uiso   1.00
N733   N     0.61275   0.29834   0.44318   0.00000  Uiso   1.00
N734   N     0.11270   0.86625   0.37969   0.00000  Uiso   1.00
N735   N     0.89530   0.41721   0.45890   0.00000  Uiso   1.00
N736   N     0.56800   0.38485   0.41349   0.00000  Uiso   1.00
