data_job_01463
_audit_creation_date              2018-12-19
_audit_creation_method            'Materials Studio'
_symmetry_space_group_name_H-M    'P1'
_symmetry_Int_Tables_number       1
_symmetry_cell_setting            triclinic
loop_
_symmetry_equiv_pos_as_xyz
  x,y,z
_cell_length_a                    32.3325
_cell_length_b                    32.3325
_cell_length_c                    12.0086
_cell_angle_alpha                 90.0000
_cell_angle_beta                  90.0000
_cell_angle_gamma                 90.0000
loop_
_atom_site_label
_atom_site_type_symbol
_atom_site_fract_x
_atom_site_fract_y
_atom_site_fract_z
_atom_site_U_iso_or_equiv
_atom_site_adp_type
_atom_site_occupancy
C1     C     0.35636   0.02231   0.39698   0.00000  Uiso   1.00
C2     C     0.38896   0.00119   0.32497   0.00000  Uiso   1.00
C3     C     0.40815   0.96380   0.34845   0.00000  Uiso   1.00
C4     C     0.43714   0.94970   0.27208   0.00000  Uiso   1.00
C5     C     0.48634   0.91348   0.17494   0.00000  Uiso   1.00
C6     C     0.37316   0.06536   0.42243   0.00000  Uiso   1.00
C7     C     0.37906   0.08192   0.52786   0.00000  Uiso   1.00
C8     C     0.39475   0.12184   0.53353   0.00000  Uiso   1.00
C9     C     0.41939   0.18526   0.58770   0.00000  Uiso   1.00
C10    C     0.31885   0.02879   0.32200   0.00000  Uiso   1.00
C11    C     0.27909   0.01463   0.34299   0.00000  Uiso   1.00
C12    C     0.24905   0.02377   0.26411   0.00000  Uiso   1.00
C13    C     0.18938   0.03042   0.16235   0.00000  Uiso   1.00
C14    C     0.37371   0.06375   0.21960   0.00000  Uiso   1.00
C15    C     0.39838   0.02370   0.22862   0.00000  Uiso   1.00
C16    C     0.42735   0.00965   0.15219   0.00000  Uiso   1.00
C17    C     0.44658   0.97225   0.17556   0.00000  Uiso   1.00
C18    C     0.38258   0.08787   0.32609   0.00000  Uiso   1.00
C19    C     0.39826   0.12777   0.33160   0.00000  Uiso   1.00
C20    C     0.40419   0.14439   0.43701   0.00000  Uiso   1.00
C21    C     0.32828   0.05130   0.22565   0.00000  Uiso   1.00
C22    C     0.29829   0.06047   0.14673   0.00000  Uiso   1.00
C23    C     0.25849   0.04632   0.16759   0.00000  Uiso   1.00
H24    H     0.34902   0.00479   0.47200   0.00000  Uiso   1.00
H25    H     0.40085   0.94639   0.42303   0.00000  Uiso   1.00
H26    H     0.37176   0.06450   0.60240   0.00000  Uiso   1.00
H27    H     0.27181   0.99721   0.41756   0.00000  Uiso   1.00
H28    H     0.46248   0.89158   0.32626   0.00000  Uiso   1.00
H29    H     0.40113   0.14062   0.70448   0.00000  Uiso   1.00
H30    H     0.19036   0.99873   0.31471   0.00000  Uiso   1.00
H31    H     0.38105   0.08128   0.14459   0.00000  Uiso   1.00
H32    H     0.43464   0.02707   0.07764   0.00000  Uiso   1.00
H33    H     0.40555   0.14518   0.25702   0.00000  Uiso   1.00
H34    H     0.30560   0.07789   0.07218   0.00000  Uiso   1.00
H35    H     0.48991   0.95707   0.04594   0.00000  Uiso   1.00
H36    H     0.42856   0.20611   0.42417   0.00000  Uiso   1.00
H37    H     0.21779   0.06421   0.03438   0.00000  Uiso   1.00
O38    O     0.51088   0.88729   0.14799   0.00000  Uiso   1.00
O39    O     0.43038   0.21402   0.64420   0.00000  Uiso   1.00
O40    O     0.15386   0.02786   0.13282   0.00000  Uiso   1.00
N41    N     0.46158   0.91443   0.26946   0.00000  Uiso   1.00
N42    N     0.40422   0.14726   0.62308   0.00000  Uiso   1.00
N43    N     0.20717   0.01461   0.25869   0.00000  Uiso   1.00
N44    N     0.47634   0.94966   0.11862   0.00000  Uiso   1.00
N45    N     0.41898   0.18250   0.47224   0.00000  Uiso   1.00
N46    N     0.22193   0.04985   0.10785   0.00000  Uiso   1.00
C47    C     0.85636   0.52231   0.89698   0.00000  Uiso   1.00
C48    C     0.88896   0.50119   0.82497   0.00000  Uiso   1.00
C49    C     0.90815   0.46380   0.84845   0.00000  Uiso   1.00
C50    C     0.93714   0.44970   0.77208   0.00000  Uiso   1.00
C51    C     0.98634   0.41348   0.67494   0.00000  Uiso   1.00
C52    C     0.87316   0.56536   0.92243   0.00000  Uiso   1.00
C53    C     0.87906   0.58192   0.02786   0.00000  Uiso   1.00
C54    C     0.89475   0.62184   0.03353   0.00000  Uiso   1.00
C55    C     0.91939   0.68526   0.08770   0.00000  Uiso   1.00
C56    C     0.81885   0.52879   0.82200   0.00000  Uiso   1.00
C57    C     0.77909   0.51463   0.84299   0.00000  Uiso   1.00
C58    C     0.74905   0.52377   0.76411   0.00000  Uiso   1.00
C59    C     0.68938   0.53042   0.66235   0.00000  Uiso   1.00
C60    C     0.87371   0.56375   0.71960   0.00000  Uiso   1.00
C61    C     0.89838   0.52370   0.72862   0.00000  Uiso   1.00
C62    C     0.92735   0.50965   0.65219   0.00000  Uiso   1.00
C63    C     0.94658   0.47225   0.67556   0.00000  Uiso   1.00
C64    C     0.88258   0.58787   0.82609   0.00000  Uiso   1.00
C65    C     0.89826   0.62777   0.83160   0.00000  Uiso   1.00
C66    C     0.90419   0.64439   0.93701   0.00000  Uiso   1.00
C67    C     0.82828   0.55130   0.72565   0.00000  Uiso   1.00
C68    C     0.79829   0.56047   0.64673   0.00000  Uiso   1.00
C69    C     0.75849   0.54632   0.66759   0.00000  Uiso   1.00
H70    H     0.84902   0.50479   0.97200   0.00000  Uiso   1.00
H71    H     0.90085   0.44639   0.92303   0.00000  Uiso   1.00
H72    H     0.87176   0.56450   0.10240   0.00000  Uiso   1.00
H73    H     0.77181   0.49721   0.91756   0.00000  Uiso   1.00
H74    H     0.96248   0.39158   0.82626   0.00000  Uiso   1.00
H75    H     0.90113   0.64062   0.20448   0.00000  Uiso   1.00
H76    H     0.69036   0.49873   0.81471   0.00000  Uiso   1.00
H77    H     0.88105   0.58128   0.64459   0.00000  Uiso   1.00
H78    H     0.93464   0.52707   0.57764   0.00000  Uiso   1.00
H79    H     0.90555   0.64518   0.75702   0.00000  Uiso   1.00
H80    H     0.80560   0.57789   0.57218   0.00000  Uiso   1.00
H81    H     0.98991   0.45707   0.54594   0.00000  Uiso   1.00
H82    H     0.92856   0.70611   0.92417   0.00000  Uiso   1.00
H83    H     0.71779   0.56421   0.53438   0.00000  Uiso   1.00
O84    O     0.01088   0.38729   0.64799   0.00000  Uiso   1.00
O85    O     0.93038   0.71402   0.14420   0.00000  Uiso   1.00
O86    O     0.65386   0.52786   0.63282   0.00000  Uiso   1.00
N87    N     0.96158   0.41443   0.76946   0.00000  Uiso   1.00
N88    N     0.90422   0.64726   0.12308   0.00000  Uiso   1.00
N89    N     0.70717   0.51461   0.75869   0.00000  Uiso   1.00
N90    N     0.97634   0.44966   0.61862   0.00000  Uiso   1.00
N91    N     0.91898   0.68250   0.97224   0.00000  Uiso   1.00
N92    N     0.72193   0.54985   0.60785   0.00000  Uiso   1.00
C93    C     0.14364   0.47769   0.89698   0.00000  Uiso   1.00
C94    C     0.11104   0.49881   0.82497   0.00000  Uiso   1.00
C95    C     0.09185   0.53620   0.84845   0.00000  Uiso   1.00
C96    C     0.06286   0.55030   0.77208   0.00000  Uiso   1.00
C97    C     0.01366   0.58652   0.67494   0.00000  Uiso   1.00
C98    C     0.12684   0.43464   0.92243   0.00000  Uiso   1.00
C99    C     0.12094   0.41808   0.02786   0.00000  Uiso   1.00
C100   C     0.10525   0.37816   0.03353   0.00000  Uiso   1.00
C101   C     0.08061   0.31474   0.08770   0.00000  Uiso   1.00
C102   C     0.18115   0.47121   0.82200   0.00000  Uiso   1.00
C103   C     0.22091   0.48537   0.84299   0.00000  Uiso   1.00
C104   C     0.25095   0.47623   0.76411   0.00000  Uiso   1.00
C105   C     0.31062   0.46958   0.66235   0.00000  Uiso   1.00
C106   C     0.12629   0.43625   0.71960   0.00000  Uiso   1.00
C107   C     0.10162   0.47630   0.72862   0.00000  Uiso   1.00
C108   C     0.07265   0.49035   0.65219   0.00000  Uiso   1.00
C109   C     0.05342   0.52775   0.67556   0.00000  Uiso   1.00
C110   C     0.11742   0.41213   0.82609   0.00000  Uiso   1.00
C111   C     0.10174   0.37223   0.83160   0.00000  Uiso   1.00
C112   C     0.09581   0.35561   0.93701   0.00000  Uiso   1.00
C113   C     0.17172   0.44870   0.72565   0.00000  Uiso   1.00
C114   C     0.20171   0.43953   0.64673   0.00000  Uiso   1.00
C115   C     0.24151   0.45368   0.66759   0.00000  Uiso   1.00
H116   H     0.15098   0.49521   0.97200   0.00000  Uiso   1.00
H117   H     0.09915   0.55361   0.92303   0.00000  Uiso   1.00
H118   H     0.12824   0.43550   0.10240   0.00000  Uiso   1.00
H119   H     0.22819   0.50279   0.91756   0.00000  Uiso   1.00
H120   H     0.03752   0.60842   0.82626   0.00000  Uiso   1.00
H121   H     0.09887   0.35938   0.20448   0.00000  Uiso   1.00
H122   H     0.30964   0.50127   0.81471   0.00000  Uiso   1.00
H123   H     0.11895   0.41872   0.64459   0.00000  Uiso   1.00
H124   H     0.06536   0.47293   0.57764   0.00000  Uiso   1.00
H125   H     0.09445   0.35482   0.75702   0.00000  Uiso   1.00
H126   H     0.19440   0.42211   0.57218   0.00000  Uiso   1.00
H127   H     0.01009   0.54293   0.54594   0.00000  Uiso   1.00
H128   H     0.07144   0.29389   0.92417   0.00000  Uiso   1.00
H129   H     0.28221   0.43579   0.53438   0.00000  Uiso   1.00
O130   O     0.98912   0.61271   0.64799   0.00000  Uiso   1.00
O131   O     0.06962   0.28598   0.14420   0.00000  Uiso   1.00
O132   O     0.34614   0.47214   0.63282   0.00000  Uiso   1.00
N133   N     0.03842   0.58557   0.76946   0.00000  Uiso   1.00
N134   N     0.09578   0.35274   0.12308   0.00000  Uiso   1.00
N135   N     0.29283   0.48539   0.75869   0.00000  Uiso   1.00
N136   N     0.02366   0.55034   0.61862   0.00000  Uiso   1.00
N137   N     0.08102   0.31750   0.97224   0.00000  Uiso   1.00
N138   N     0.27807   0.45015   0.60785   0.00000  Uiso   1.00
C139   C     0.64364   0.97769   0.39698   0.00000  Uiso   1.00
C140   C     0.61104   0.99881   0.32497   0.00000  Uiso   1.00
C141   C     0.59185   0.03620   0.34845   0.00000  Uiso   1.00
C142   C     0.56286   0.05030   0.27208   0.00000  Uiso   1.00
C143   C     0.51366   0.08652   0.17494   0.00000  Uiso   1.00
C144   C     0.62684   0.93464   0.42243   0.00000  Uiso   1.00
C145   C     0.62094   0.91808   0.52786   0.00000  Uiso   1.00
C146   C     0.60525   0.87816   0.53353   0.00000  Uiso   1.00
C147   C     0.58061   0.81474   0.58770   0.00000  Uiso   1.00
C148   C     0.68115   0.97121   0.32200   0.00000  Uiso   1.00
C149   C     0.72091   0.98537   0.34299   0.00000  Uiso   1.00
C150   C     0.75095   0.97623   0.26411   0.00000  Uiso   1.00
C151   C     0.81062   0.96958   0.16235   0.00000  Uiso   1.00
C152   C     0.62629   0.93625   0.21960   0.00000  Uiso   1.00
C153   C     0.60162   0.97630   0.22862   0.00000  Uiso   1.00
C154   C     0.57265   0.99035   0.15219   0.00000  Uiso   1.00
C155   C     0.55342   0.02775   0.17556   0.00000  Uiso   1.00
C156   C     0.61742   0.91213   0.32609   0.00000  Uiso   1.00
C157   C     0.60174   0.87223   0.33160   0.00000  Uiso   1.00
C158   C     0.59581   0.85561   0.43701   0.00000  Uiso   1.00
C159   C     0.67172   0.94870   0.22565   0.00000  Uiso   1.00
C160   C     0.70171   0.93953   0.14673   0.00000  Uiso   1.00
C161   C     0.74151   0.95368   0.16759   0.00000  Uiso   1.00
H162   H     0.65098   0.99521   0.47200   0.00000  Uiso   1.00
H163   H     0.59915   0.05361   0.42303   0.00000  Uiso   1.00
H164   H     0.62824   0.93550   0.60240   0.00000  Uiso   1.00
H165   H     0.72819   0.00279   0.41756   0.00000  Uiso   1.00
H166   H     0.53752   0.10842   0.32626   0.00000  Uiso   1.00
H167   H     0.59887   0.85938   0.70448   0.00000  Uiso   1.00
H168   H     0.80964   0.00127   0.31471   0.00000  Uiso   1.00
H169   H     0.61895   0.91872   0.14459   0.00000  Uiso   1.00
H170   H     0.56536   0.97293   0.07764   0.00000  Uiso   1.00
H171   H     0.59445   0.85482   0.25702   0.00000  Uiso   1.00
H172   H     0.69440   0.92211   0.07218   0.00000  Uiso   1.00
H173   H     0.51009   0.04293   0.04594   0.00000  Uiso   1.00
H174   H     0.57144   0.79389   0.42417   0.00000  Uiso   1.00
H175   H     0.78221   0.93579   0.03438   0.00000  Uiso   1.00
O176   O     0.48912   0.11271   0.14799   0.00000  Uiso   1.00
O177   O     0.56962   0.78598   0.64420   0.00000  Uiso   1.00
O178   O     0.84614   0.97214   0.13282   0.00000  Uiso   1.00
N179   N     0.53842   0.08557   0.26946   0.00000  Uiso   1.00
N180   N     0.59578   0.85274   0.62308   0.00000  Uiso   1.00
N181   N     0.79283   0.98539   0.25869   0.00000  Uiso   1.00
N182   N     0.52366   0.05034   0.11862   0.00000  Uiso   1.00
N183   N     0.58102   0.81750   0.47224   0.00000  Uiso   1.00
N184   N     0.77807   0.95015   0.10785   0.00000  Uiso   1.00
C185   C     0.97769   0.85636   0.64698   0.00000  Uiso   1.00
C186   C     0.99881   0.88896   0.57497   0.00000  Uiso   1.00
C187   C     0.03620   0.90815   0.59845   0.00000  Uiso   1.00
C188   C     0.05030   0.93714   0.52208   0.00000  Uiso   1.00
C189   C     0.08652   0.98634   0.42494   0.00000  Uiso   1.00
C190   C     0.93464   0.87316   0.67243   0.00000  Uiso   1.00
C191   C     0.91808   0.87906   0.77786   0.00000  Uiso   1.00
C192   C     0.87816   0.89475   0.78353   0.00000  Uiso   1.00
C193   C     0.81474   0.91939   0.83770   0.00000  Uiso   1.00
C194   C     0.97121   0.81885   0.57200   0.00000  Uiso   1.00
C195   C     0.98537   0.77909   0.59299   0.00000  Uiso   1.00
C196   C     0.97623   0.74905   0.51411   0.00000  Uiso   1.00
C197   C     0.96958   0.68938   0.41235   0.00000  Uiso   1.00
C198   C     0.93625   0.87371   0.46960   0.00000  Uiso   1.00
C199   C     0.97630   0.89838   0.47862   0.00000  Uiso   1.00
C200   C     0.99035   0.92735   0.40219   0.00000  Uiso   1.00
C201   C     0.02775   0.94658   0.42556   0.00000  Uiso   1.00
C202   C     0.91213   0.88258   0.57609   0.00000  Uiso   1.00
C203   C     0.87223   0.89826   0.58160   0.00000  Uiso   1.00
C204   C     0.85561   0.90419   0.68701   0.00000  Uiso   1.00
C205   C     0.94870   0.82828   0.47565   0.00000  Uiso   1.00
C206   C     0.93953   0.79829   0.39673   0.00000  Uiso   1.00
C207   C     0.95368   0.75849   0.41759   0.00000  Uiso   1.00
H208   H     0.99521   0.84902   0.72200   0.00000  Uiso   1.00
H209   H     0.05361   0.90085   0.67303   0.00000  Uiso   1.00
H210   H     0.93550   0.87176   0.85240   0.00000  Uiso   1.00
H211   H     0.00279   0.77181   0.66756   0.00000  Uiso   1.00
H212   H     0.10842   0.96248   0.57626   0.00000  Uiso   1.00
H213   H     0.85938   0.90113   0.95448   0.00000  Uiso   1.00
H214   H     0.00127   0.69036   0.56471   0.00000  Uiso   1.00
H215   H     0.91872   0.88105   0.39459   0.00000  Uiso   1.00
H216   H     0.97293   0.93464   0.32764   0.00000  Uiso   1.00
H217   H     0.85482   0.90555   0.50702   0.00000  Uiso   1.00
H218   H     0.92211   0.80560   0.32218   0.00000  Uiso   1.00
H219   H     0.04293   0.98991   0.29594   0.00000  Uiso   1.00
H220   H     0.79389   0.92856   0.67417   0.00000  Uiso   1.00
H221   H     0.93579   0.71779   0.28438   0.00000  Uiso   1.00
O222   O     0.11271   0.01088   0.39799   0.00000  Uiso   1.00
O223   O     0.78598   0.93038   0.89420   0.00000  Uiso   1.00
O224   O     0.97214   0.65386   0.38282   0.00000  Uiso   1.00
N225   N     0.08557   0.96158   0.51946   0.00000  Uiso   1.00
N226   N     0.85274   0.90422   0.87308   0.00000  Uiso   1.00
N227   N     0.98539   0.70717   0.50869   0.00000  Uiso   1.00
N228   N     0.05034   0.97634   0.36862   0.00000  Uiso   1.00
N229   N     0.81750   0.91898   0.72224   0.00000  Uiso   1.00
N230   N     0.95015   0.72193   0.35785   0.00000  Uiso   1.00
C231   C     0.47769   0.35636   0.14698   0.00000  Uiso   1.00
C232   C     0.49881   0.38896   0.07497   0.00000  Uiso   1.00
C233   C     0.53620   0.40815   0.09845   0.00000  Uiso   1.00
C234   C     0.55030   0.43714   0.02208   0.00000  Uiso   1.00
C235   C     0.58652   0.48634   0.92494   0.00000  Uiso   1.00
C236   C     0.43464   0.37316   0.17243   0.00000  Uiso   1.00
C237   C     0.41808   0.37906   0.27786   0.00000  Uiso   1.00
C238   C     0.37816   0.39475   0.28353   0.00000  Uiso   1.00
C239   C     0.31474   0.41939   0.33770   0.00000  Uiso   1.00
C240   C     0.47121   0.31885   0.07200   0.00000  Uiso   1.00
C241   C     0.48537   0.27909   0.09299   0.00000  Uiso   1.00
C242   C     0.47623   0.24905   0.01411   0.00000  Uiso   1.00
C243   C     0.46958   0.18938   0.91235   0.00000  Uiso   1.00
C244   C     0.43625   0.37371   0.96960   0.00000  Uiso   1.00
C245   C     0.47630   0.39838   0.97862   0.00000  Uiso   1.00
C246   C     0.49035   0.42735   0.90219   0.00000  Uiso   1.00
C247   C     0.52775   0.44658   0.92556   0.00000  Uiso   1.00
C248   C     0.41213   0.38258   0.07609   0.00000  Uiso   1.00
C249   C     0.37223   0.39826   0.08160   0.00000  Uiso   1.00
C250   C     0.35561   0.40419   0.18701   0.00000  Uiso   1.00
C251   C     0.44870   0.32828   0.97565   0.00000  Uiso   1.00
C252   C     0.43953   0.29829   0.89673   0.00000  Uiso   1.00
C253   C     0.45368   0.25849   0.91759   0.00000  Uiso   1.00
H254   H     0.49521   0.34902   0.22200   0.00000  Uiso   1.00
H255   H     0.55361   0.40085   0.17303   0.00000  Uiso   1.00
H256   H     0.43550   0.37176   0.35240   0.00000  Uiso   1.00
H257   H     0.50279   0.27181   0.16756   0.00000  Uiso   1.00
H258   H     0.60842   0.46248   0.07626   0.00000  Uiso   1.00
H259   H     0.35938   0.40113   0.45448   0.00000  Uiso   1.00
H260   H     0.50127   0.19036   0.06471   0.00000  Uiso   1.00
H261   H     0.41872   0.38105   0.89459   0.00000  Uiso   1.00
H262   H     0.47293   0.43464   0.82764   0.00000  Uiso   1.00
H263   H     0.35482   0.40555   0.00702   0.00000  Uiso   1.00
H264   H     0.42211   0.30560   0.82218   0.00000  Uiso   1.00
H265   H     0.54293   0.48991   0.79594   0.00000  Uiso   1.00
H266   H     0.29389   0.42856   0.17417   0.00000  Uiso   1.00
H267   H     0.43579   0.21779   0.78438   0.00000  Uiso   1.00
O268   O     0.61271   0.51088   0.89799   0.00000  Uiso   1.00
O269   O     0.28598   0.43038   0.39420   0.00000  Uiso   1.00
O270   O     0.47214   0.15386   0.88282   0.00000  Uiso   1.00
N271   N     0.58557   0.46158   0.01946   0.00000  Uiso   1.00
N272   N     0.35274   0.40422   0.37308   0.00000  Uiso   1.00
N273   N     0.48539   0.20717   0.00869   0.00000  Uiso   1.00
N274   N     0.55034   0.47634   0.86862   0.00000  Uiso   1.00
N275   N     0.31750   0.41898   0.22224   0.00000  Uiso   1.00
N276   N     0.45015   0.22193   0.85785   0.00000  Uiso   1.00
C277   C     0.52231   0.64364   0.14698   0.00000  Uiso   1.00
C278   C     0.50119   0.61104   0.07497   0.00000  Uiso   1.00
C279   C     0.46380   0.59185   0.09845   0.00000  Uiso   1.00
C280   C     0.44970   0.56286   0.02208   0.00000  Uiso   1.00
C281   C     0.41348   0.51366   0.92494   0.00000  Uiso   1.00
C282   C     0.56536   0.62684   0.17243   0.00000  Uiso   1.00
C283   C     0.58192   0.62094   0.27786   0.00000  Uiso   1.00
C284   C     0.62184   0.60525   0.28353   0.00000  Uiso   1.00
C285   C     0.68526   0.58061   0.33770   0.00000  Uiso   1.00
C286   C     0.52879   0.68115   0.07200   0.00000  Uiso   1.00
C287   C     0.51463   0.72091   0.09299   0.00000  Uiso   1.00
C288   C     0.52377   0.75095   0.01411   0.00000  Uiso   1.00
C289   C     0.53042   0.81062   0.91235   0.00000  Uiso   1.00
C290   C     0.56375   0.62629   0.96960   0.00000  Uiso   1.00
C291   C     0.52370   0.60162   0.97862   0.00000  Uiso   1.00
C292   C     0.50965   0.57265   0.90219   0.00000  Uiso   1.00
C293   C     0.47225   0.55342   0.92556   0.00000  Uiso   1.00
C294   C     0.58787   0.61742   0.07609   0.00000  Uiso   1.00
C295   C     0.62777   0.60174   0.08160   0.00000  Uiso   1.00
C296   C     0.64439   0.59581   0.18701   0.00000  Uiso   1.00
C297   C     0.55130   0.67172   0.97565   0.00000  Uiso   1.00
C298   C     0.56047   0.70171   0.89673   0.00000  Uiso   1.00
C299   C     0.54632   0.74151   0.91759   0.00000  Uiso   1.00
H300   H     0.50479   0.65098   0.22200   0.00000  Uiso   1.00
H301   H     0.44639   0.59915   0.17303   0.00000  Uiso   1.00
H302   H     0.56450   0.62824   0.35240   0.00000  Uiso   1.00
H303   H     0.49721   0.72819   0.16756   0.00000  Uiso   1.00
H304   H     0.39158   0.53752   0.07626   0.00000  Uiso   1.00
H305   H     0.64062   0.59887   0.45448   0.00000  Uiso   1.00
H306   H     0.49873   0.80964   0.06471   0.00000  Uiso   1.00
H307   H     0.58128   0.61895   0.89459   0.00000  Uiso   1.00
H308   H     0.52707   0.56536   0.82764   0.00000  Uiso   1.00
H309   H     0.64518   0.59445   0.00702   0.00000  Uiso   1.00
H310   H     0.57789   0.69440   0.82218   0.00000  Uiso   1.00
H311   H     0.45707   0.51009   0.79594   0.00000  Uiso   1.00
H312   H     0.70611   0.57144   0.17417   0.00000  Uiso   1.00
H313   H     0.56421   0.78221   0.78438   0.00000  Uiso   1.00
O314   O     0.38729   0.48912   0.89799   0.00000  Uiso   1.00
O315   O     0.71402   0.56962   0.39420   0.00000  Uiso   1.00
O316   O     0.52786   0.84614   0.88282   0.00000  Uiso   1.00
N317   N     0.41443   0.53842   0.01946   0.00000  Uiso   1.00
N318   N     0.64726   0.59578   0.37308   0.00000  Uiso   1.00
N319   N     0.51461   0.79283   0.00869   0.00000  Uiso   1.00
N320   N     0.44966   0.52366   0.86862   0.00000  Uiso   1.00
N321   N     0.68250   0.58102   0.22224   0.00000  Uiso   1.00
N322   N     0.54985   0.77807   0.85785   0.00000  Uiso   1.00
C323   C     0.02231   0.14364   0.64698   0.00000  Uiso   1.00
C324   C     0.00119   0.11104   0.57497   0.00000  Uiso   1.00
C325   C     0.96380   0.09185   0.59845   0.00000  Uiso   1.00
C326   C     0.94970   0.06286   0.52208   0.00000  Uiso   1.00
C327   C     0.91348   0.01366   0.42494   0.00000  Uiso   1.00
C328   C     0.06536   0.12684   0.67243   0.00000  Uiso   1.00
C329   C     0.08192   0.12094   0.77786   0.00000  Uiso   1.00
C330   C     0.12184   0.10525   0.78353   0.00000  Uiso   1.00
C331   C     0.18526   0.08061   0.83770   0.00000  Uiso   1.00
C332   C     0.02879   0.18115   0.57200   0.00000  Uiso   1.00
C333   C     0.01463   0.22091   0.59299   0.00000  Uiso   1.00
C334   C     0.02377   0.25095   0.51411   0.00000  Uiso   1.00
C335   C     0.03042   0.31062   0.41235   0.00000  Uiso   1.00
C336   C     0.06375   0.12629   0.46960   0.00000  Uiso   1.00
C337   C     0.02370   0.10162   0.47862   0.00000  Uiso   1.00
C338   C     0.00965   0.07265   0.40219   0.00000  Uiso   1.00
C339   C     0.97225   0.05342   0.42556   0.00000  Uiso   1.00
C340   C     0.08787   0.11742   0.57609   0.00000  Uiso   1.00
C341   C     0.12777   0.10174   0.58160   0.00000  Uiso   1.00
C342   C     0.14439   0.09581   0.68701   0.00000  Uiso   1.00
C343   C     0.05130   0.17172   0.47565   0.00000  Uiso   1.00
C344   C     0.06047   0.20171   0.39673   0.00000  Uiso   1.00
C345   C     0.04632   0.24151   0.41759   0.00000  Uiso   1.00
H346   H     0.00479   0.15098   0.72200   0.00000  Uiso   1.00
H347   H     0.94639   0.09915   0.67303   0.00000  Uiso   1.00
H348   H     0.06450   0.12824   0.85240   0.00000  Uiso   1.00
H349   H     0.99721   0.22819   0.66756   0.00000  Uiso   1.00
H350   H     0.89158   0.03752   0.57626   0.00000  Uiso   1.00
H351   H     0.14062   0.09887   0.95448   0.00000  Uiso   1.00
H352   H     0.99873   0.30964   0.56471   0.00000  Uiso   1.00
H353   H     0.08128   0.11895   0.39459   0.00000  Uiso   1.00
H354   H     0.02707   0.06536   0.32764   0.00000  Uiso   1.00
H355   H     0.14518   0.09445   0.50702   0.00000  Uiso   1.00
H356   H     0.07789   0.19440   0.32218   0.00000  Uiso   1.00
H357   H     0.95707   0.01009   0.29594   0.00000  Uiso   1.00
H358   H     0.20611   0.07144   0.67417   0.00000  Uiso   1.00
H359   H     0.06421   0.28221   0.28438   0.00000  Uiso   1.00
O360   O     0.88729   0.98912   0.39799   0.00000  Uiso   1.00
O361   O     0.21402   0.06962   0.89420   0.00000  Uiso   1.00
O362   O     0.02786   0.34614   0.38282   0.00000  Uiso   1.00
N363   N     0.91443   0.03842   0.51946   0.00000  Uiso   1.00
N364   N     0.14726   0.09578   0.87308   0.00000  Uiso   1.00
N365   N     0.01461   0.29283   0.50869   0.00000  Uiso   1.00
N366   N     0.94966   0.02366   0.36862   0.00000  Uiso   1.00
N367   N     0.18250   0.08102   0.72224   0.00000  Uiso   1.00
N368   N     0.04985   0.27807   0.35785   0.00000  Uiso   1.00
C369   C     0.35636   0.97769   0.89698   0.00000  Uiso   1.00
C370   C     0.38896   0.99881   0.82497   0.00000  Uiso   1.00
C371   C     0.40815   0.03620   0.84845   0.00000  Uiso   1.00
C372   C     0.43714   0.05030   0.77208   0.00000  Uiso   1.00
C373   C     0.48634   0.08652   0.67494   0.00000  Uiso   1.00
C374   C     0.37316   0.93464   0.92243   0.00000  Uiso   1.00
C375   C     0.37906   0.91808   0.02786   0.00000  Uiso   1.00
C376   C     0.39475   0.87816   0.03353   0.00000  Uiso   1.00
C377   C     0.41939   0.81474   0.08770   0.00000  Uiso   1.00
C378   C     0.31885   0.97121   0.82200   0.00000  Uiso   1.00
C379   C     0.27909   0.98537   0.84299   0.00000  Uiso   1.00
C380   C     0.24905   0.97623   0.76411   0.00000  Uiso   1.00
C381   C     0.18938   0.96958   0.66235   0.00000  Uiso   1.00
C382   C     0.37371   0.93625   0.71960   0.00000  Uiso   1.00
C383   C     0.39838   0.97630   0.72862   0.00000  Uiso   1.00
C384   C     0.42735   0.99035   0.65219   0.00000  Uiso   1.00
C385   C     0.44658   0.02775   0.67556   0.00000  Uiso   1.00
C386   C     0.38258   0.91213   0.82609   0.00000  Uiso   1.00
C387   C     0.39826   0.87223   0.83160   0.00000  Uiso   1.00
C388   C     0.40419   0.85561   0.93701   0.00000  Uiso   1.00
C389   C     0.32828   0.94870   0.72565   0.00000  Uiso   1.00
C390   C     0.29829   0.93953   0.64673   0.00000  Uiso   1.00
C391   C     0.25849   0.95368   0.66759   0.00000  Uiso   1.00
H392   H     0.34902   0.99521   0.97200   0.00000  Uiso   1.00
H393   H     0.40085   0.05361   0.92303   0.00000  Uiso   1.00
H394   H     0.37176   0.93550   0.10240   0.00000  Uiso   1.00
H395   H     0.27181   0.00279   0.91756   0.00000  Uiso   1.00
H396   H     0.46248   0.10842   0.82626   0.00000  Uiso   1.00
H397   H     0.40113   0.85938   0.20448   0.00000  Uiso   1.00
H398   H     0.19036   0.00127   0.81471   0.00000  Uiso   1.00
H399   H     0.38105   0.91872   0.64459   0.00000  Uiso   1.00
H400   H     0.43464   0.97293   0.57764   0.00000  Uiso   1.00
H401   H     0.40555   0.85482   0.75702   0.00000  Uiso   1.00
H402   H     0.30560   0.92211   0.57218   0.00000  Uiso   1.00
H403   H     0.48991   0.04293   0.54594   0.00000  Uiso   1.00
H404   H     0.42856   0.79389   0.92417   0.00000  Uiso   1.00
H405   H     0.21779   0.93579   0.53438   0.00000  Uiso   1.00
O406   O     0.51088   0.11271   0.64799   0.00000  Uiso   1.00
O407   O     0.43038   0.78598   0.14420   0.00000  Uiso   1.00
O408   O     0.15386   0.97214   0.63282   0.00000  Uiso   1.00
N409   N     0.46158   0.08557   0.76946   0.00000  Uiso   1.00
N410   N     0.40422   0.85274   0.12308   0.00000  Uiso   1.00
N411   N     0.20717   0.98539   0.75869   0.00000  Uiso   1.00
N412   N     0.47634   0.05034   0.61862   0.00000  Uiso   1.00
N413   N     0.41898   0.81750   0.97224   0.00000  Uiso   1.00
N414   N     0.22193   0.95015   0.60785   0.00000  Uiso   1.00
C415   C     0.85636   0.47769   0.39698   0.00000  Uiso   1.00
C416   C     0.88896   0.49881   0.32497   0.00000  Uiso   1.00
C417   C     0.90815   0.53620   0.34845   0.00000  Uiso   1.00
C418   C     0.93714   0.55030   0.27208   0.00000  Uiso   1.00
C419   C     0.98634   0.58652   0.17494   0.00000  Uiso   1.00
C420   C     0.87316   0.43464   0.42243   0.00000  Uiso   1.00
C421   C     0.87906   0.41808   0.52786   0.00000  Uiso   1.00
C422   C     0.89475   0.37816   0.53353   0.00000  Uiso   1.00
C423   C     0.91939   0.31474   0.58770   0.00000  Uiso   1.00
C424   C     0.81885   0.47121   0.32200   0.00000  Uiso   1.00
C425   C     0.77909   0.48537   0.34299   0.00000  Uiso   1.00
C426   C     0.74905   0.47623   0.26411   0.00000  Uiso   1.00
C427   C     0.68938   0.46958   0.16235   0.00000  Uiso   1.00
C428   C     0.87371   0.43625   0.21960   0.00000  Uiso   1.00
C429   C     0.89838   0.47630   0.22862   0.00000  Uiso   1.00
C430   C     0.92735   0.49035   0.15219   0.00000  Uiso   1.00
C431   C     0.94658   0.52775   0.17556   0.00000  Uiso   1.00
C432   C     0.88258   0.41213   0.32609   0.00000  Uiso   1.00
C433   C     0.89826   0.37223   0.33160   0.00000  Uiso   1.00
C434   C     0.90419   0.35561   0.43701   0.00000  Uiso   1.00
C435   C     0.82828   0.44870   0.22565   0.00000  Uiso   1.00
C436   C     0.79829   0.43953   0.14673   0.00000  Uiso   1.00
C437   C     0.75849   0.45368   0.16759   0.00000  Uiso   1.00
H438   H     0.84902   0.49521   0.47200   0.00000  Uiso   1.00
H439   H     0.90085   0.55361   0.42303   0.00000  Uiso   1.00
H440   H     0.87176   0.43550   0.60240   0.00000  Uiso   1.00
H441   H     0.77181   0.50279   0.41756   0.00000  Uiso   1.00
H442   H     0.96248   0.60842   0.32626   0.00000  Uiso   1.00
H443   H     0.90113   0.35938   0.70448   0.00000  Uiso   1.00
H444   H     0.69036   0.50127   0.31471   0.00000  Uiso   1.00
H445   H     0.88105   0.41872   0.14459   0.00000  Uiso   1.00
H446   H     0.93464   0.47293   0.07764   0.00000  Uiso   1.00
H447   H     0.90555   0.35482   0.25702   0.00000  Uiso   1.00
H448   H     0.80560   0.42211   0.07218   0.00000  Uiso   1.00
H449   H     0.98991   0.54293   0.04594   0.00000  Uiso   1.00
H450   H     0.92856   0.29389   0.42417   0.00000  Uiso   1.00
H451   H     0.71779   0.43579   0.03438   0.00000  Uiso   1.00
O452   O     0.01088   0.61271   0.14799   0.00000  Uiso   1.00
O453   O     0.93038   0.28598   0.64420   0.00000  Uiso   1.00
O454   O     0.65386   0.47214   0.13282   0.00000  Uiso   1.00
N455   N     0.96158   0.58557   0.26946   0.00000  Uiso   1.00
N456   N     0.90422   0.35274   0.62308   0.00000  Uiso   1.00
N457   N     0.70717   0.48539   0.25869   0.00000  Uiso   1.00
N458   N     0.97634   0.55034   0.11862   0.00000  Uiso   1.00
N459   N     0.91898   0.31750   0.47224   0.00000  Uiso   1.00
N460   N     0.72193   0.45015   0.10785   0.00000  Uiso   1.00
C461   C     0.14364   0.52231   0.39698   0.00000  Uiso   1.00
C462   C     0.11104   0.50119   0.32497   0.00000  Uiso   1.00
C463   C     0.09185   0.46380   0.34845   0.00000  Uiso   1.00
C464   C     0.06286   0.44970   0.27208   0.00000  Uiso   1.00
C465   C     0.01366   0.41348   0.17494   0.00000  Uiso   1.00
C466   C     0.12684   0.56536   0.42243   0.00000  Uiso   1.00
C467   C     0.12094   0.58192   0.52786   0.00000  Uiso   1.00
C468   C     0.10525   0.62184   0.53353   0.00000  Uiso   1.00
C469   C     0.08061   0.68526   0.58770   0.00000  Uiso   1.00
C470   C     0.18115   0.52879   0.32200   0.00000  Uiso   1.00
C471   C     0.22091   0.51463   0.34299   0.00000  Uiso   1.00
C472   C     0.25095   0.52377   0.26411   0.00000  Uiso   1.00
C473   C     0.31062   0.53042   0.16235   0.00000  Uiso   1.00
C474   C     0.12629   0.56375   0.21960   0.00000  Uiso   1.00
C475   C     0.10162   0.52370   0.22862   0.00000  Uiso   1.00
C476   C     0.07265   0.50965   0.15219   0.00000  Uiso   1.00
C477   C     0.05342   0.47225   0.17556   0.00000  Uiso   1.00
C478   C     0.11742   0.58787   0.32609   0.00000  Uiso   1.00
C479   C     0.10174   0.62777   0.33160   0.00000  Uiso   1.00
C480   C     0.09581   0.64439   0.43701   0.00000  Uiso   1.00
C481   C     0.17172   0.55130   0.22565   0.00000  Uiso   1.00
C482   C     0.20171   0.56047   0.14673   0.00000  Uiso   1.00
C483   C     0.24151   0.54632   0.16759   0.00000  Uiso   1.00
H484   H     0.15098   0.50479   0.47200   0.00000  Uiso   1.00
H485   H     0.09915   0.44639   0.42303   0.00000  Uiso   1.00
H486   H     0.12824   0.56450   0.60240   0.00000  Uiso   1.00
H487   H     0.22819   0.49721   0.41756   0.00000  Uiso   1.00
H488   H     0.03752   0.39158   0.32626   0.00000  Uiso   1.00
H489   H     0.09887   0.64062   0.70448   0.00000  Uiso   1.00
H490   H     0.30964   0.49873   0.31471   0.00000  Uiso   1.00
H491   H     0.11895   0.58128   0.14459   0.00000  Uiso   1.00
H492   H     0.06536   0.52707   0.07764   0.00000  Uiso   1.00
H493   H     0.09445   0.64518   0.25702   0.00000  Uiso   1.00
H494   H     0.19440   0.57789   0.07218   0.00000  Uiso   1.00
H495   H     0.01009   0.45707   0.04594   0.00000  Uiso   1.00
H496   H     0.07144   0.70611   0.42417   0.00000  Uiso   1.00
H497   H     0.28221   0.56421   0.03438   0.00000  Uiso   1.00
O498   O     0.98912   0.38729   0.14799   0.00000  Uiso   1.00
O499   O     0.06962   0.71402   0.64420   0.00000  Uiso   1.00
O500   O     0.34614   0.52786   0.13282   0.00000  Uiso   1.00
N501   N     0.03842   0.41443   0.26946   0.00000  Uiso   1.00
N502   N     0.09578   0.64726   0.62308   0.00000  Uiso   1.00
N503   N     0.29283   0.51461   0.25869   0.00000  Uiso   1.00
N504   N     0.02366   0.44966   0.11862   0.00000  Uiso   1.00
N505   N     0.08102   0.68250   0.47224   0.00000  Uiso   1.00
N506   N     0.27807   0.54985   0.10785   0.00000  Uiso   1.00
C507   C     0.64364   0.02231   0.89698   0.00000  Uiso   1.00
C508   C     0.61104   0.00119   0.82497   0.00000  Uiso   1.00
C509   C     0.59185   0.96380   0.84845   0.00000  Uiso   1.00
C510   C     0.56286   0.94970   0.77208   0.00000  Uiso   1.00
C511   C     0.51366   0.91348   0.67494   0.00000  Uiso   1.00
C512   C     0.62684   0.06536   0.92243   0.00000  Uiso   1.00
C513   C     0.62094   0.08192   0.02786   0.00000  Uiso   1.00
C514   C     0.60525   0.12184   0.03353   0.00000  Uiso   1.00
C515   C     0.58061   0.18526   0.08770   0.00000  Uiso   1.00
C516   C     0.68115   0.02879   0.82200   0.00000  Uiso   1.00
C517   C     0.72091   0.01463   0.84299   0.00000  Uiso   1.00
C518   C     0.75095   0.02377   0.76411   0.00000  Uiso   1.00
C519   C     0.81062   0.03042   0.66235   0.00000  Uiso   1.00
C520   C     0.62629   0.06375   0.71960   0.00000  Uiso   1.00
C521   C     0.60162   0.02370   0.72862   0.00000  Uiso   1.00
C522   C     0.57265   0.00965   0.65219   0.00000  Uiso   1.00
C523   C     0.55342   0.97225   0.67556   0.00000  Uiso   1.00
C524   C     0.61742   0.08787   0.82609   0.00000  Uiso   1.00
C525   C     0.60174   0.12777   0.83160   0.00000  Uiso   1.00
C526   C     0.59581   0.14439   0.93701   0.00000  Uiso   1.00
C527   C     0.67172   0.05130   0.72565   0.00000  Uiso   1.00
C528   C     0.70171   0.06047   0.64673   0.00000  Uiso   1.00
C529   C     0.74151   0.04632   0.66759   0.00000  Uiso   1.00
H530   H     0.65098   0.00479   0.97200   0.00000  Uiso   1.00
H531   H     0.59915   0.94639   0.92303   0.00000  Uiso   1.00
H532   H     0.62824   0.06450   0.10240   0.00000  Uiso   1.00
H533   H     0.72819   0.99721   0.91756   0.00000  Uiso   1.00
H534   H     0.53752   0.89158   0.82626   0.00000  Uiso   1.00
H535   H     0.59887   0.14062   0.20448   0.00000  Uiso   1.00
H536   H     0.80964   0.99873   0.81471   0.00000  Uiso   1.00
H537   H     0.61895   0.08128   0.64459   0.00000  Uiso   1.00
H538   H     0.56536   0.02707   0.57764   0.00000  Uiso   1.00
H539   H     0.59445   0.14518   0.75702   0.00000  Uiso   1.00
H540   H     0.69440   0.07789   0.57218   0.00000  Uiso   1.00
H541   H     0.51009   0.95707   0.54594   0.00000  Uiso   1.00
H542   H     0.57144   0.20611   0.92417   0.00000  Uiso   1.00
H543   H     0.78221   0.06421   0.53438   0.00000  Uiso   1.00
O544   O     0.48912   0.88729   0.64799   0.00000  Uiso   1.00
O545   O     0.56962   0.21402   0.14420   0.00000  Uiso   1.00
O546   O     0.84614   0.02786   0.63282   0.00000  Uiso   1.00
N547   N     0.53842   0.91443   0.76946   0.00000  Uiso   1.00
N548   N     0.59578   0.14726   0.12308   0.00000  Uiso   1.00
N549   N     0.79283   0.01461   0.75869   0.00000  Uiso   1.00
N550   N     0.52366   0.94966   0.61862   0.00000  Uiso   1.00
N551   N     0.58102   0.18250   0.97224   0.00000  Uiso   1.00
N552   N     0.77807   0.04985   0.60785   0.00000  Uiso   1.00
C553   C     0.97769   0.14364   0.14698   0.00000  Uiso   1.00
C554   C     0.99881   0.11104   0.07497   0.00000  Uiso   1.00
C555   C     0.03620   0.09185   0.09845   0.00000  Uiso   1.00
C556   C     0.05030   0.06286   0.02208   0.00000  Uiso   1.00
C557   C     0.08652   0.01366   0.92494   0.00000  Uiso   1.00
C558   C     0.93464   0.12684   0.17243   0.00000  Uiso   1.00
C559   C     0.91808   0.12094   0.27786   0.00000  Uiso   1.00
C560   C     0.87816   0.10525   0.28353   0.00000  Uiso   1.00
C561   C     0.81474   0.08061   0.33770   0.00000  Uiso   1.00
C562   C     0.97121   0.18115   0.07200   0.00000  Uiso   1.00
C563   C     0.98537   0.22091   0.09299   0.00000  Uiso   1.00
C564   C     0.97623   0.25095   0.01411   0.00000  Uiso   1.00
C565   C     0.96958   0.31062   0.91235   0.00000  Uiso   1.00
C566   C     0.93625   0.12629   0.96960   0.00000  Uiso   1.00
C567   C     0.97630   0.10162   0.97862   0.00000  Uiso   1.00
C568   C     0.99035   0.07265   0.90219   0.00000  Uiso   1.00
C569   C     0.02775   0.05342   0.92556   0.00000  Uiso   1.00
C570   C     0.91213   0.11742   0.07609   0.00000  Uiso   1.00
C571   C     0.87223   0.10174   0.08160   0.00000  Uiso   1.00
C572   C     0.85561   0.09581   0.18701   0.00000  Uiso   1.00
C573   C     0.94870   0.17172   0.97565   0.00000  Uiso   1.00
C574   C     0.93953   0.20171   0.89673   0.00000  Uiso   1.00
C575   C     0.95368   0.24151   0.91759   0.00000  Uiso   1.00
H576   H     0.99521   0.15098   0.22200   0.00000  Uiso   1.00
H577   H     0.05361   0.09915   0.17303   0.00000  Uiso   1.00
H578   H     0.93550   0.12824   0.35240   0.00000  Uiso   1.00
H579   H     0.00279   0.22819   0.16756   0.00000  Uiso   1.00
H580   H     0.10842   0.03752   0.07626   0.00000  Uiso   1.00
H581   H     0.85938   0.09887   0.45448   0.00000  Uiso   1.00
H582   H     0.00127   0.30964   0.06471   0.00000  Uiso   1.00
H583   H     0.91872   0.11895   0.89459   0.00000  Uiso   1.00
H584   H     0.97293   0.06536   0.82764   0.00000  Uiso   1.00
H585   H     0.85482   0.09445   0.00702   0.00000  Uiso   1.00
H586   H     0.92211   0.19440   0.82218   0.00000  Uiso   1.00
H587   H     0.04293   0.01009   0.79594   0.00000  Uiso   1.00
H588   H     0.79389   0.07144   0.17417   0.00000  Uiso   1.00
H589   H     0.93579   0.28221   0.78438   0.00000  Uiso   1.00
O590   O     0.11271   0.98912   0.89799   0.00000  Uiso   1.00
O591   O     0.78598   0.06962   0.39420   0.00000  Uiso   1.00
O592   O     0.97214   0.34614   0.88282   0.00000  Uiso   1.00
N593   N     0.08557   0.03842   0.01946   0.00000  Uiso   1.00
N594   N     0.85274   0.09578   0.37308   0.00000  Uiso   1.00
N595   N     0.98539   0.29283   0.00869   0.00000  Uiso   1.00
N596   N     0.05034   0.02366   0.86862   0.00000  Uiso   1.00
N597   N     0.81750   0.08102   0.22224   0.00000  Uiso   1.00
N598   N     0.95015   0.27807   0.85785   0.00000  Uiso   1.00
C599   C     0.47769   0.64364   0.64698   0.00000  Uiso   1.00
C600   C     0.49881   0.61104   0.57497   0.00000  Uiso   1.00
C601   C     0.53620   0.59185   0.59845   0.00000  Uiso   1.00
C602   C     0.55030   0.56286   0.52208   0.00000  Uiso   1.00
C603   C     0.58652   0.51366   0.42494   0.00000  Uiso   1.00
C604   C     0.43464   0.62684   0.67243   0.00000  Uiso   1.00
C605   C     0.41808   0.62094   0.77786   0.00000  Uiso   1.00
C606   C     0.37816   0.60525   0.78353   0.00000  Uiso   1.00
C607   C     0.31474   0.58061   0.83770   0.00000  Uiso   1.00
C608   C     0.47121   0.68115   0.57200   0.00000  Uiso   1.00
C609   C     0.48537   0.72091   0.59299   0.00000  Uiso   1.00
C610   C     0.47623   0.75095   0.51411   0.00000  Uiso   1.00
C611   C     0.46958   0.81062   0.41235   0.00000  Uiso   1.00
C612   C     0.43625   0.62629   0.46960   0.00000  Uiso   1.00
C613   C     0.47630   0.60162   0.47862   0.00000  Uiso   1.00
C614   C     0.49035   0.57265   0.40219   0.00000  Uiso   1.00
C615   C     0.52775   0.55342   0.42556   0.00000  Uiso   1.00
C616   C     0.41213   0.61742   0.57609   0.00000  Uiso   1.00
C617   C     0.37223   0.60174   0.58160   0.00000  Uiso   1.00
C618   C     0.35561   0.59581   0.68701   0.00000  Uiso   1.00
C619   C     0.44870   0.67172   0.47565   0.00000  Uiso   1.00
C620   C     0.43953   0.70171   0.39673   0.00000  Uiso   1.00
C621   C     0.45368   0.74151   0.41759   0.00000  Uiso   1.00
H622   H     0.49521   0.65098   0.72200   0.00000  Uiso   1.00
H623   H     0.55361   0.59915   0.67303   0.00000  Uiso   1.00
H624   H     0.43550   0.62824   0.85240   0.00000  Uiso   1.00
H625   H     0.50279   0.72819   0.66756   0.00000  Uiso   1.00
H626   H     0.60842   0.53752   0.57626   0.00000  Uiso   1.00
H627   H     0.35938   0.59887   0.95448   0.00000  Uiso   1.00
H628   H     0.50127   0.80964   0.56471   0.00000  Uiso   1.00
H629   H     0.41872   0.61895   0.39459   0.00000  Uiso   1.00
H630   H     0.47293   0.56536   0.32764   0.00000  Uiso   1.00
H631   H     0.35482   0.59445   0.50702   0.00000  Uiso   1.00
H632   H     0.42211   0.69440   0.32218   0.00000  Uiso   1.00
H633   H     0.54293   0.51009   0.29594   0.00000  Uiso   1.00
H634   H     0.29389   0.57144   0.67417   0.00000  Uiso   1.00
H635   H     0.43579   0.78221   0.28438   0.00000  Uiso   1.00
O636   O     0.61271   0.48912   0.39799   0.00000  Uiso   1.00
O637   O     0.28598   0.56962   0.89420   0.00000  Uiso   1.00
O638   O     0.47214   0.84614   0.38282   0.00000  Uiso   1.00
N639   N     0.58557   0.53842   0.51946   0.00000  Uiso   1.00
N640   N     0.35274   0.59578   0.87308   0.00000  Uiso   1.00
N641   N     0.48539   0.79283   0.50869   0.00000  Uiso   1.00
N642   N     0.55034   0.52366   0.36862   0.00000  Uiso   1.00
N643   N     0.31750   0.58102   0.72224   0.00000  Uiso   1.00
N644   N     0.45015   0.77807   0.35785   0.00000  Uiso   1.00
C645   C     0.52231   0.35636   0.64698   0.00000  Uiso   1.00
C646   C     0.50119   0.38896   0.57497   0.00000  Uiso   1.00
C647   C     0.46380   0.40815   0.59845   0.00000  Uiso   1.00
C648   C     0.44970   0.43714   0.52208   0.00000  Uiso   1.00
C649   C     0.41348   0.48634   0.42494   0.00000  Uiso   1.00
C650   C     0.56536   0.37316   0.67243   0.00000  Uiso   1.00
C651   C     0.58192   0.37906   0.77786   0.00000  Uiso   1.00
C652   C     0.62184   0.39475   0.78353   0.00000  Uiso   1.00
C653   C     0.68526   0.41939   0.83770   0.00000  Uiso   1.00
C654   C     0.52879   0.31885   0.57200   0.00000  Uiso   1.00
C655   C     0.51463   0.27909   0.59299   0.00000  Uiso   1.00
C656   C     0.52377   0.24905   0.51411   0.00000  Uiso   1.00
C657   C     0.53042   0.18938   0.41235   0.00000  Uiso   1.00
C658   C     0.56375   0.37371   0.46960   0.00000  Uiso   1.00
C659   C     0.52370   0.39838   0.47862   0.00000  Uiso   1.00
C660   C     0.50965   0.42735   0.40219   0.00000  Uiso   1.00
C661   C     0.47225   0.44658   0.42556   0.00000  Uiso   1.00
C662   C     0.58787   0.38258   0.57609   0.00000  Uiso   1.00
C663   C     0.62777   0.39826   0.58160   0.00000  Uiso   1.00
C664   C     0.64439   0.40419   0.68701   0.00000  Uiso   1.00
C665   C     0.55130   0.32828   0.47565   0.00000  Uiso   1.00
C666   C     0.56047   0.29829   0.39673   0.00000  Uiso   1.00
C667   C     0.54632   0.25849   0.41759   0.00000  Uiso   1.00
H668   H     0.50479   0.34902   0.72200   0.00000  Uiso   1.00
H669   H     0.44639   0.40085   0.67303   0.00000  Uiso   1.00
H670   H     0.56450   0.37176   0.85240   0.00000  Uiso   1.00
H671   H     0.49721   0.27181   0.66756   0.00000  Uiso   1.00
H672   H     0.39158   0.46248   0.57626   0.00000  Uiso   1.00
H673   H     0.64062   0.40113   0.95448   0.00000  Uiso   1.00
H674   H     0.49873   0.19036   0.56471   0.00000  Uiso   1.00
H675   H     0.58128   0.38105   0.39459   0.00000  Uiso   1.00
H676   H     0.52707   0.43464   0.32764   0.00000  Uiso   1.00
H677   H     0.64518   0.40555   0.50702   0.00000  Uiso   1.00
H678   H     0.57789   0.30560   0.32218   0.00000  Uiso   1.00
H679   H     0.45707   0.48991   0.29594   0.00000  Uiso   1.00
H680   H     0.70611   0.42856   0.67417   0.00000  Uiso   1.00
H681   H     0.56421   0.21779   0.28438   0.00000  Uiso   1.00
O682   O     0.38729   0.51088   0.39799   0.00000  Uiso   1.00
O683   O     0.71402   0.43038   0.89420   0.00000  Uiso   1.00
O684   O     0.52786   0.15386   0.38282   0.00000  Uiso   1.00
N685   N     0.41443   0.46158   0.51946   0.00000  Uiso   1.00
N686   N     0.64726   0.40422   0.87308   0.00000  Uiso   1.00
N687   N     0.51461   0.20717   0.50869   0.00000  Uiso   1.00
N688   N     0.44966   0.47634   0.36862   0.00000  Uiso   1.00
N689   N     0.68250   0.41898   0.72224   0.00000  Uiso   1.00
N690   N     0.54985   0.22193   0.35785   0.00000  Uiso   1.00
C691   C     0.02231   0.85636   0.14698   0.00000  Uiso   1.00
C692   C     0.00119   0.88896   0.07497   0.00000  Uiso   1.00
C693   C     0.96380   0.90815   0.09845   0.00000  Uiso   1.00
C694   C     0.94970   0.93714   0.02208   0.00000  Uiso   1.00
C695   C     0.91348   0.98634   0.92494   0.00000  Uiso   1.00
C696   C     0.06536   0.87316   0.17243   0.00000  Uiso   1.00
C697   C     0.08192   0.87906   0.27786   0.00000  Uiso   1.00
C698   C     0.12184   0.89475   0.28353   0.00000  Uiso   1.00
C699   C     0.18526   0.91939   0.33770   0.00000  Uiso   1.00
C700   C     0.02879   0.81885   0.07200   0.00000  Uiso   1.00
C701   C     0.01463   0.77909   0.09299   0.00000  Uiso   1.00
C702   C     0.02377   0.74905   0.01411   0.00000  Uiso   1.00
C703   C     0.03042   0.68938   0.91235   0.00000  Uiso   1.00
C704   C     0.06375   0.87371   0.96960   0.00000  Uiso   1.00
C705   C     0.02370   0.89838   0.97862   0.00000  Uiso   1.00
C706   C     0.00965   0.92735   0.90219   0.00000  Uiso   1.00
C707   C     0.97225   0.94658   0.92556   0.00000  Uiso   1.00
C708   C     0.08787   0.88258   0.07609   0.00000  Uiso   1.00
C709   C     0.12777   0.89826   0.08160   0.00000  Uiso   1.00
C710   C     0.14439   0.90419   0.18701   0.00000  Uiso   1.00
C711   C     0.05130   0.82828   0.97565   0.00000  Uiso   1.00
C712   C     0.06047   0.79829   0.89673   0.00000  Uiso   1.00
C713   C     0.04632   0.75849   0.91759   0.00000  Uiso   1.00
H714   H     0.00479   0.84902   0.22200   0.00000  Uiso   1.00
H715   H     0.94639   0.90085   0.17303   0.00000  Uiso   1.00
H716   H     0.06450   0.87176   0.35240   0.00000  Uiso   1.00
H717   H     0.99721   0.77181   0.16756   0.00000  Uiso   1.00
H718   H     0.89158   0.96248   0.07626   0.00000  Uiso   1.00
H719   H     0.14062   0.90113   0.45448   0.00000  Uiso   1.00
H720   H     0.99873   0.69036   0.06471   0.00000  Uiso   1.00
H721   H     0.08128   0.88105   0.89459   0.00000  Uiso   1.00
H722   H     0.02707   0.93464   0.82764   0.00000  Uiso   1.00
H723   H     0.14518   0.90555   0.00702   0.00000  Uiso   1.00
H724   H     0.07789   0.80560   0.82218   0.00000  Uiso   1.00
H725   H     0.95707   0.98991   0.79594   0.00000  Uiso   1.00
H726   H     0.20611   0.92856   0.17417   0.00000  Uiso   1.00
H727   H     0.06421   0.71779   0.78438   0.00000  Uiso   1.00
O728   O     0.88729   0.01088   0.89799   0.00000  Uiso   1.00
O729   O     0.21402   0.93038   0.39420   0.00000  Uiso   1.00
O730   O     0.02786   0.65386   0.88282   0.00000  Uiso   1.00
N731   N     0.91443   0.96158   0.01946   0.00000  Uiso   1.00
N732   N     0.14726   0.90422   0.37308   0.00000  Uiso   1.00
N733   N     0.01461   0.70717   0.00869   0.00000  Uiso   1.00
N734   N     0.94966   0.97634   0.86862   0.00000  Uiso   1.00
N735   N     0.18250   0.91898   0.22224   0.00000  Uiso   1.00
N736   N     0.04985   0.72193   0.85785   0.00000  Uiso   1.00
