data_job_04542
_audit_creation_date              2018-12-19
_audit_creation_method            'Materials Studio'
_symmetry_space_group_name_H-M    'P1'
_symmetry_Int_Tables_number       1
_symmetry_cell_setting            triclinic
loop_
_symmetry_equiv_pos_as_xyz
  x,y,z
_cell_length_a                    24.6821
_cell_length_b                    16.7530
_cell_length_c                    22.0007
_cell_angle_alpha                 90.0000
_cell_angle_beta                  90.0000
_cell_angle_gamma                 90.0000
loop_
_atom_site_label
_atom_site_type_symbol
_atom_site_fract_x
_atom_site_fract_y
_atom_site_fract_z
_atom_site_U_iso_or_equiv
_atom_site_adp_type
_atom_site_occupancy
C1     C     0.16875   0.28642   0.67798   0.00000  Uiso   1.00
C2     C     0.21123   0.27639   0.62823   0.00000  Uiso   1.00
C3     C     0.26437   0.30325   0.63087   0.00000  Uiso   1.00
C4     C     0.29686   0.28821   0.58065   0.00000  Uiso   1.00
C5     C     0.36585   0.27884   0.51115   0.00000  Uiso   1.00
C6     C     0.12105   0.32926   0.64838   0.00000  Uiso   1.00
C7     C     0.09835   0.40055   0.66797   0.00000  Uiso   1.00
C8     C     0.05493   0.43001   0.63471   0.00000  Uiso   1.00
C9     C     0.98388   0.50267   0.59652   0.00000  Uiso   1.00
C10    C     0.14876   0.20257   0.69298   0.00000  Uiso   1.00
C11    C     0.14936   0.16736   0.75007   0.00000  Uiso   1.00
C12    C     0.12926   0.09015   0.75437   0.00000  Uiso   1.00
C13    C     0.10125   0.96612   0.78542   0.00000  Uiso   1.00
C14    C     0.13197   0.21194   0.58409   0.00000  Uiso   1.00
C15    C     0.19125   0.23595   0.57723   0.00000  Uiso   1.00
C16    C     0.22367   0.22086   0.52699   0.00000  Uiso   1.00
C17    C     0.27685   0.24769   0.52956   0.00000  Uiso   1.00
C18    C     0.10107   0.28881   0.59738   0.00000  Uiso   1.00
C19    C     0.05766   0.31816   0.56409   0.00000  Uiso   1.00
C20    C     0.03491   0.38949   0.58362   0.00000  Uiso   1.00
C21    C     0.12879   0.16212   0.64198   0.00000  Uiso   1.00
C22    C     0.10867   0.08496   0.64619   0.00000  Uiso   1.00
C23    C     0.10925   0.04963   0.70328   0.00000  Uiso   1.00
H24    H     0.18430   0.31791   0.71768   0.00000  Uiso   1.00
H25    H     0.27981   0.33456   0.67034   0.00000  Uiso   1.00
H26    H     0.11382   0.43184   0.70744   0.00000  Uiso   1.00
H27    H     0.16483   0.19868   0.78953   0.00000  Uiso   1.00
H28    H     0.37688   0.33521   0.59536   0.00000  Uiso   1.00
H29    H     0.02688   0.54031   0.67359   0.00000  Uiso   1.00
H30    H     0.13443   0.04864   0.84669   0.00000  Uiso   1.00
H31    H     0.11641   0.18045   0.54438   0.00000  Uiso   1.00
H32    H     0.20820   0.18956   0.48753   0.00000  Uiso   1.00
H33    H     0.04221   0.28684   0.52463   0.00000  Uiso   1.00
H34    H     0.09322   0.05368   0.60672   0.00000  Uiso   1.00
H35    H     0.31876   0.21752   0.44699   0.00000  Uiso   1.00
H36    H     0.96875   0.42262   0.52522   0.00000  Uiso   1.00
H37    H     0.07631   0.93096   0.69831   0.00000  Uiso   1.00
O38    O     0.40942   0.28486   0.48690   0.00000  Uiso   1.00
O39    O     0.95022   0.55394   0.58954   0.00000  Uiso   1.00
O40    O     0.09133   0.90888   0.81664   0.00000  Uiso   1.00
N41    N     0.35061   0.30624   0.56825   0.00000  Uiso   1.00
N42    N     0.02338   0.49801   0.64138   0.00000  Uiso   1.00
N43    N     0.12392   0.03835   0.80322   0.00000  Uiso   1.00
N44    N     0.31934   0.24292   0.48841   0.00000  Uiso   1.00
N45    N     0.99211   0.43469   0.56154   0.00000  Uiso   1.00
N46    N     0.09265   0.97503   0.72338   0.00000  Uiso   1.00
C47    C     0.32904   0.54799   0.32112   0.00000  Uiso   1.00
C48    C     0.28764   0.53674   0.37185   0.00000  Uiso   1.00
C49    C     0.23432   0.56295   0.37078   0.00000  Uiso   1.00
C50    C     0.20294   0.54680   0.42169   0.00000  Uiso   1.00
C51    C     0.13543   0.53559   0.49285   0.00000  Uiso   1.00
C52    C     0.37709   0.59104   0.34984   0.00000  Uiso   1.00
C53    C     0.39896   0.66289   0.33026   0.00000  Uiso   1.00
C54    C     0.44288   0.69245   0.36264   0.00000  Uiso   1.00
C55    C     0.51426   0.76550   0.39960   0.00000  Uiso   1.00
C56    C     0.34920   0.46462   0.30494   0.00000  Uiso   1.00
C57    C     0.34765   0.43018   0.24759   0.00000  Uiso   1.00
C58    C     0.36811   0.35330   0.24217   0.00000  Uiso   1.00
C59    C     0.39619   0.23007   0.20941   0.00000  Uiso   1.00
C60    C     0.36815   0.47272   0.41344   0.00000  Uiso   1.00
C61    C     0.30889   0.49586   0.42200   0.00000  Uiso   1.00
C62    C     0.27758   0.47967   0.47293   0.00000  Uiso   1.00
C63    C     0.22421   0.50584   0.47193   0.00000  Uiso   1.00
C64    C     0.39833   0.55016   0.39999   0.00000  Uiso   1.00
C65    C     0.44223   0.57961   0.43240   0.00000  Uiso   1.00
C66    C     0.46416   0.65149   0.41287   0.00000  Uiso   1.00
C67    C     0.37044   0.42373   0.35509   0.00000  Uiso   1.00
C68    C     0.39091   0.34690   0.34974   0.00000  Uiso   1.00
C69    C     0.38939   0.31234   0.29240   0.00000  Uiso   1.00
H70    H     0.31251   0.57982   0.28208   0.00000  Uiso   1.00
H71    H     0.21789   0.59459   0.33197   0.00000  Uiso   1.00
H72    H     0.38252   0.69451   0.29145   0.00000  Uiso   1.00
H73    H     0.33121   0.46183   0.20880   0.00000  Uiso   1.00
H74    H     0.12237   0.59296   0.40940   0.00000  Uiso   1.00
H75    H     0.46950   0.80363   0.32394   0.00000  Uiso   1.00
H76    H     0.36131   0.31299   0.14967   0.00000  Uiso   1.00
H77    H     0.38469   0.44089   0.45249   0.00000  Uiso   1.00
H78    H     0.29403   0.44803   0.51173   0.00000  Uiso   1.00
H79    H     0.45866   0.54795   0.47120   0.00000  Uiso   1.00
H80    H     0.40735   0.31527   0.38856   0.00000  Uiso   1.00
H81    H     0.18416   0.47401   0.55530   0.00000  Uiso   1.00
H82    H     0.53130   0.68468   0.46984   0.00000  Uiso   1.00
H83    H     0.42310   0.19403   0.29557   0.00000  Uiso   1.00
O84    O     0.09233   0.54071   0.51825   0.00000  Uiso   1.00
O85    O     0.54776   0.81710   0.40613   0.00000  Uiso   1.00
O86    O     0.40581   0.17339   0.17748   0.00000  Uiso   1.00
N87    N     0.14935   0.56397   0.43560   0.00000  Uiso   1.00
N88    N     0.47389   0.76094   0.35571   0.00000  Uiso   1.00
N89    N     0.37275   0.30224   0.19277   0.00000  Uiso   1.00
N90    N     0.18260   0.49996   0.51411   0.00000  Uiso   1.00
N91    N     0.50714   0.69693   0.43422   0.00000  Uiso   1.00
N92    N     0.40600   0.23823   0.27128   0.00000  Uiso   1.00
C93    C     0.33125   0.71358   0.17798   0.00000  Uiso   1.00
C94    C     0.28877   0.72361   0.12823   0.00000  Uiso   1.00
C95    C     0.23563   0.69675   0.13087   0.00000  Uiso   1.00
C96    C     0.20314   0.71179   0.08065   0.00000  Uiso   1.00
C97    C     0.13415   0.72116   0.01115   0.00000  Uiso   1.00
C98    C     0.37895   0.67074   0.14838   0.00000  Uiso   1.00
C99    C     0.40165   0.59945   0.16797   0.00000  Uiso   1.00
C100   C     0.44507   0.56999   0.13471   0.00000  Uiso   1.00
C101   C     0.51612   0.49733   0.09652   0.00000  Uiso   1.00
C102   C     0.35124   0.79743   0.19298   0.00000  Uiso   1.00
C103   C     0.35064   0.83264   0.25007   0.00000  Uiso   1.00
C104   C     0.37074   0.90985   0.25437   0.00000  Uiso   1.00
C105   C     0.39875   0.03388   0.28542   0.00000  Uiso   1.00
C106   C     0.36803   0.78806   0.08409   0.00000  Uiso   1.00
C107   C     0.30875   0.76405   0.07723   0.00000  Uiso   1.00
C108   C     0.27633   0.77914   0.02699   0.00000  Uiso   1.00
C109   C     0.22315   0.75231   0.02956   0.00000  Uiso   1.00
C110   C     0.39893   0.71119   0.09738   0.00000  Uiso   1.00
C111   C     0.44234   0.68184   0.06409   0.00000  Uiso   1.00
C112   C     0.46509   0.61051   0.08362   0.00000  Uiso   1.00
C113   C     0.37121   0.83788   0.14198   0.00000  Uiso   1.00
C114   C     0.39133   0.91504   0.14619   0.00000  Uiso   1.00
C115   C     0.39075   0.95037   0.20328   0.00000  Uiso   1.00
H116   H     0.31570   0.68209   0.21768   0.00000  Uiso   1.00
H117   H     0.22019   0.66544   0.17034   0.00000  Uiso   1.00
H118   H     0.38618   0.56816   0.20744   0.00000  Uiso   1.00
H119   H     0.33517   0.80132   0.28953   0.00000  Uiso   1.00
H120   H     0.12312   0.66479   0.09536   0.00000  Uiso   1.00
H121   H     0.47312   0.45969   0.17359   0.00000  Uiso   1.00
H122   H     0.36557   0.95136   0.34669   0.00000  Uiso   1.00
H123   H     0.38359   0.81955   0.04438   0.00000  Uiso   1.00
H124   H     0.29180   0.81044   0.98753   0.00000  Uiso   1.00
H125   H     0.45779   0.71316   0.02463   0.00000  Uiso   1.00
H126   H     0.40678   0.94632   0.10672   0.00000  Uiso   1.00
H127   H     0.18124   0.78248   0.94699   0.00000  Uiso   1.00
H128   H     0.53125   0.57738   0.02522   0.00000  Uiso   1.00
H129   H     0.42369   0.06904   0.19831   0.00000  Uiso   1.00
O130   O     0.09058   0.71514   0.98690   0.00000  Uiso   1.00
O131   O     0.54978   0.44606   0.08954   0.00000  Uiso   1.00
O132   O     0.40867   0.09112   0.31664   0.00000  Uiso   1.00
N133   N     0.14939   0.69376   0.06825   0.00000  Uiso   1.00
N134   N     0.47662   0.50199   0.14138   0.00000  Uiso   1.00
N135   N     0.37608   0.96165   0.30322   0.00000  Uiso   1.00
N136   N     0.18066   0.75708   0.98841   0.00000  Uiso   1.00
N137   N     0.50789   0.56531   0.06154   0.00000  Uiso   1.00
N138   N     0.40735   0.02497   0.22338   0.00000  Uiso   1.00
C139   C     0.17096   0.45201   0.82112   0.00000  Uiso   1.00
C140   C     0.21236   0.46326   0.87185   0.00000  Uiso   1.00
C141   C     0.26568   0.43705   0.87078   0.00000  Uiso   1.00
C142   C     0.29706   0.45320   0.92169   0.00000  Uiso   1.00
C143   C     0.36457   0.46441   0.99285   0.00000  Uiso   1.00
C144   C     0.12291   0.40896   0.84984   0.00000  Uiso   1.00
C145   C     0.10104   0.33711   0.83026   0.00000  Uiso   1.00
C146   C     0.05712   0.30755   0.86264   0.00000  Uiso   1.00
C147   C     0.98574   0.23450   0.89960   0.00000  Uiso   1.00
C148   C     0.15080   0.53538   0.80494   0.00000  Uiso   1.00
C149   C     0.15235   0.56982   0.74759   0.00000  Uiso   1.00
C150   C     0.13189   0.64670   0.74217   0.00000  Uiso   1.00
C151   C     0.10381   0.76993   0.70941   0.00000  Uiso   1.00
C152   C     0.13185   0.52728   0.91344   0.00000  Uiso   1.00
C153   C     0.19111   0.50414   0.92200   0.00000  Uiso   1.00
C154   C     0.22242   0.52033   0.97293   0.00000  Uiso   1.00
C155   C     0.27579   0.49416   0.97193   0.00000  Uiso   1.00
C156   C     0.10167   0.44984   0.89999   0.00000  Uiso   1.00
C157   C     0.05777   0.42039   0.93240   0.00000  Uiso   1.00
C158   C     0.03584   0.34851   0.91287   0.00000  Uiso   1.00
C159   C     0.12956   0.57627   0.85509   0.00000  Uiso   1.00
C160   C     0.10909   0.65310   0.84974   0.00000  Uiso   1.00
C161   C     0.11061   0.68766   0.79240   0.00000  Uiso   1.00
H162   H     0.18749   0.42018   0.78208   0.00000  Uiso   1.00
H163   H     0.28211   0.40541   0.83197   0.00000  Uiso   1.00
H164   H     0.11748   0.30549   0.79145   0.00000  Uiso   1.00
H165   H     0.16879   0.53817   0.70880   0.00000  Uiso   1.00
H166   H     0.37763   0.40704   0.90940   0.00000  Uiso   1.00
H167   H     0.03050   0.19637   0.82394   0.00000  Uiso   1.00
H168   H     0.13869   0.68701   0.64967   0.00000  Uiso   1.00
H169   H     0.11531   0.55911   0.95249   0.00000  Uiso   1.00
H170   H     0.20597   0.55197   0.01173   0.00000  Uiso   1.00
H171   H     0.04134   0.45205   0.97120   0.00000  Uiso   1.00
H172   H     0.09265   0.68473   0.88856   0.00000  Uiso   1.00
H173   H     0.31584   0.52599   0.05530   0.00000  Uiso   1.00
H174   H     0.96870   0.31532   0.96984   0.00000  Uiso   1.00
H175   H     0.07690   0.80597   0.79557   0.00000  Uiso   1.00
O176   O     0.40767   0.45929   0.01825   0.00000  Uiso   1.00
O177   O     0.95224   0.18290   0.90613   0.00000  Uiso   1.00
O178   O     0.09419   0.82661   0.67748   0.00000  Uiso   1.00
N179   N     0.35065   0.43603   0.93560   0.00000  Uiso   1.00
N180   N     0.02611   0.23906   0.85571   0.00000  Uiso   1.00
N181   N     0.12725   0.69776   0.69277   0.00000  Uiso   1.00
N182   N     0.31740   0.50004   0.01411   0.00000  Uiso   1.00
N183   N     0.99286   0.30307   0.93422   0.00000  Uiso   1.00
N184   N     0.09400   0.76177   0.77128   0.00000  Uiso   1.00
C185   C     0.83125   0.78642   0.82202   0.00000  Uiso   1.00
C186   C     0.78877   0.77639   0.87177   0.00000  Uiso   1.00
C187   C     0.73563   0.80325   0.86913   0.00000  Uiso   1.00
C188   C     0.70314   0.78821   0.91935   0.00000  Uiso   1.00
C189   C     0.63415   0.77884   0.98885   0.00000  Uiso   1.00
C190   C     0.87895   0.82926   0.85162   0.00000  Uiso   1.00
C191   C     0.90165   0.90055   0.83203   0.00000  Uiso   1.00
C192   C     0.94507   0.93001   0.86529   0.00000  Uiso   1.00
C193   C     0.01612   0.00267   0.90348   0.00000  Uiso   1.00
C194   C     0.85124   0.70257   0.80702   0.00000  Uiso   1.00
C195   C     0.85064   0.66736   0.74993   0.00000  Uiso   1.00
C196   C     0.87074   0.59015   0.74563   0.00000  Uiso   1.00
C197   C     0.89875   0.46612   0.71458   0.00000  Uiso   1.00
C198   C     0.86803   0.71194   0.91591   0.00000  Uiso   1.00
C199   C     0.80875   0.73595   0.92277   0.00000  Uiso   1.00
C200   C     0.77633   0.72086   0.97301   0.00000  Uiso   1.00
C201   C     0.72315   0.74769   0.97044   0.00000  Uiso   1.00
C202   C     0.89893   0.78881   0.90262   0.00000  Uiso   1.00
C203   C     0.94234   0.81816   0.93591   0.00000  Uiso   1.00
C204   C     0.96509   0.88949   0.91638   0.00000  Uiso   1.00
C205   C     0.87121   0.66212   0.85802   0.00000  Uiso   1.00
C206   C     0.89133   0.58496   0.85381   0.00000  Uiso   1.00
C207   C     0.89075   0.54963   0.79672   0.00000  Uiso   1.00
H208   H     0.81570   0.81791   0.78232   0.00000  Uiso   1.00
H209   H     0.72019   0.83456   0.82966   0.00000  Uiso   1.00
H210   H     0.88618   0.93184   0.79256   0.00000  Uiso   1.00
H211   H     0.83517   0.69868   0.71047   0.00000  Uiso   1.00
H212   H     0.62312   0.83521   0.90464   0.00000  Uiso   1.00
H213   H     0.97312   0.04031   0.82641   0.00000  Uiso   1.00
H214   H     0.86557   0.54864   0.65331   0.00000  Uiso   1.00
H215   H     0.88359   0.68045   0.95562   0.00000  Uiso   1.00
H216   H     0.79180   0.68956   0.01247   0.00000  Uiso   1.00
H217   H     0.95779   0.78684   0.97537   0.00000  Uiso   1.00
H218   H     0.90678   0.55368   0.89328   0.00000  Uiso   1.00
H219   H     0.68124   0.71752   0.05301   0.00000  Uiso   1.00
H220   H     0.03125   0.92262   0.97478   0.00000  Uiso   1.00
H221   H     0.92369   0.43096   0.80169   0.00000  Uiso   1.00
O222   O     0.59058   0.78486   0.01310   0.00000  Uiso   1.00
O223   O     0.04978   0.05394   0.91046   0.00000  Uiso   1.00
O224   O     0.90867   0.40888   0.68336   0.00000  Uiso   1.00
N225   N     0.64939   0.80624   0.93175   0.00000  Uiso   1.00
N226   N     0.97662   0.99801   0.85862   0.00000  Uiso   1.00
N227   N     0.87608   0.53835   0.69678   0.00000  Uiso   1.00
N228   N     0.68066   0.74292   0.01159   0.00000  Uiso   1.00
N229   N     0.00789   0.93469   0.93846   0.00000  Uiso   1.00
N230   N     0.90735   0.47503   0.77662   0.00000  Uiso   1.00
C231   C     0.67096   0.04799   0.17888   0.00000  Uiso   1.00
C232   C     0.71236   0.03674   0.12815   0.00000  Uiso   1.00
C233   C     0.76568   0.06295   0.12922   0.00000  Uiso   1.00
C234   C     0.79706   0.04680   0.07831   0.00000  Uiso   1.00
C235   C     0.86457   0.03559   0.00715   0.00000  Uiso   1.00
C236   C     0.62291   0.09104   0.15016   0.00000  Uiso   1.00
C237   C     0.60104   0.16289   0.16974   0.00000  Uiso   1.00
C238   C     0.55712   0.19245   0.13736   0.00000  Uiso   1.00
C239   C     0.48574   0.26550   0.10040   0.00000  Uiso   1.00
C240   C     0.65080   0.96462   0.19506   0.00000  Uiso   1.00
C241   C     0.65235   0.93018   0.25241   0.00000  Uiso   1.00
C242   C     0.63189   0.85330   0.25783   0.00000  Uiso   1.00
C243   C     0.60381   0.73007   0.29059   0.00000  Uiso   1.00
C244   C     0.63185   0.97272   0.08656   0.00000  Uiso   1.00
C245   C     0.69111   0.99586   0.07800   0.00000  Uiso   1.00
C246   C     0.72242   0.97967   0.02707   0.00000  Uiso   1.00
C247   C     0.77579   0.00584   0.02807   0.00000  Uiso   1.00
C248   C     0.60167   0.05016   0.10001   0.00000  Uiso   1.00
C249   C     0.55777   0.07961   0.06760   0.00000  Uiso   1.00
C250   C     0.53584   0.15149   0.08713   0.00000  Uiso   1.00
C251   C     0.62956   0.92373   0.14491   0.00000  Uiso   1.00
C252   C     0.60909   0.84690   0.15026   0.00000  Uiso   1.00
C253   C     0.61061   0.81234   0.20760   0.00000  Uiso   1.00
H254   H     0.68749   0.07982   0.21792   0.00000  Uiso   1.00
H255   H     0.78211   0.09459   0.16803   0.00000  Uiso   1.00
H256   H     0.61748   0.19451   0.20855   0.00000  Uiso   1.00
H257   H     0.66879   0.96183   0.29120   0.00000  Uiso   1.00
H258   H     0.87763   0.09296   0.09060   0.00000  Uiso   1.00
H259   H     0.53050   0.30363   0.17606   0.00000  Uiso   1.00
H260   H     0.63869   0.81299   0.35033   0.00000  Uiso   1.00
H261   H     0.61531   0.94089   0.04751   0.00000  Uiso   1.00
H262   H     0.70597   0.94803   0.98827   0.00000  Uiso   1.00
H263   H     0.54134   0.04795   0.02880   0.00000  Uiso   1.00
H264   H     0.59265   0.81527   0.11144   0.00000  Uiso   1.00
H265   H     0.81584   0.97401   0.94470   0.00000  Uiso   1.00
H266   H     0.46870   0.18468   0.03016   0.00000  Uiso   1.00
H267   H     0.57690   0.69403   0.20443   0.00000  Uiso   1.00
O268   O     0.90767   0.04071   0.98175   0.00000  Uiso   1.00
O269   O     0.45224   0.31710   0.09387   0.00000  Uiso   1.00
O270   O     0.59419   0.67339   0.32252   0.00000  Uiso   1.00
N271   N     0.85065   0.06397   0.06440   0.00000  Uiso   1.00
N272   N     0.52611   0.26094   0.14429   0.00000  Uiso   1.00
N273   N     0.62725   0.80224   0.30723   0.00000  Uiso   1.00
N274   N     0.81740   0.99996   0.98589   0.00000  Uiso   1.00
N275   N     0.49286   0.19693   0.06578   0.00000  Uiso   1.00
N276   N     0.59400   0.73823   0.22872   0.00000  Uiso   1.00
C277   C     0.66875   0.21358   0.32202   0.00000  Uiso   1.00
C278   C     0.71123   0.22361   0.37177   0.00000  Uiso   1.00
C279   C     0.76437   0.19675   0.36913   0.00000  Uiso   1.00
C280   C     0.79686   0.21179   0.41935   0.00000  Uiso   1.00
C281   C     0.86585   0.22116   0.48885   0.00000  Uiso   1.00
C282   C     0.62105   0.17074   0.35162   0.00000  Uiso   1.00
C283   C     0.59835   0.09945   0.33203   0.00000  Uiso   1.00
C284   C     0.55493   0.06999   0.36529   0.00000  Uiso   1.00
C285   C     0.48388   0.99733   0.40348   0.00000  Uiso   1.00
C286   C     0.64876   0.29743   0.30702   0.00000  Uiso   1.00
C287   C     0.64936   0.33264   0.24993   0.00000  Uiso   1.00
C288   C     0.62926   0.40985   0.24563   0.00000  Uiso   1.00
C289   C     0.60125   0.53388   0.21458   0.00000  Uiso   1.00
C290   C     0.63197   0.28806   0.41591   0.00000  Uiso   1.00
C291   C     0.69125   0.26405   0.42277   0.00000  Uiso   1.00
C292   C     0.72367   0.27914   0.47301   0.00000  Uiso   1.00
C293   C     0.77685   0.25231   0.47044   0.00000  Uiso   1.00
C294   C     0.60107   0.21119   0.40262   0.00000  Uiso   1.00
C295   C     0.55766   0.18184   0.43591   0.00000  Uiso   1.00
C296   C     0.53491   0.11051   0.41638   0.00000  Uiso   1.00
C297   C     0.62879   0.33788   0.35802   0.00000  Uiso   1.00
C298   C     0.60867   0.41504   0.35381   0.00000  Uiso   1.00
C299   C     0.60925   0.45037   0.29672   0.00000  Uiso   1.00
H300   H     0.68430   0.18209   0.28232   0.00000  Uiso   1.00
H301   H     0.77981   0.16544   0.32966   0.00000  Uiso   1.00
H302   H     0.61382   0.06816   0.29256   0.00000  Uiso   1.00
H303   H     0.66483   0.30132   0.21047   0.00000  Uiso   1.00
H304   H     0.87688   0.16479   0.40464   0.00000  Uiso   1.00
H305   H     0.52688   0.95969   0.32641   0.00000  Uiso   1.00
H306   H     0.63443   0.45136   0.15331   0.00000  Uiso   1.00
H307   H     0.61641   0.31955   0.45562   0.00000  Uiso   1.00
H308   H     0.70820   0.31044   0.51247   0.00000  Uiso   1.00
H309   H     0.54221   0.21316   0.47537   0.00000  Uiso   1.00
H310   H     0.59322   0.44632   0.39328   0.00000  Uiso   1.00
H311   H     0.81876   0.28248   0.55301   0.00000  Uiso   1.00
H312   H     0.46875   0.07738   0.47478   0.00000  Uiso   1.00
H313   H     0.57631   0.56904   0.30169   0.00000  Uiso   1.00
O314   O     0.90942   0.21514   0.51310   0.00000  Uiso   1.00
O315   O     0.45022   0.94606   0.41046   0.00000  Uiso   1.00
O316   O     0.59133   0.59112   0.18336   0.00000  Uiso   1.00
N317   N     0.85061   0.19376   0.43175   0.00000  Uiso   1.00
N318   N     0.52338   0.00199   0.35862   0.00000  Uiso   1.00
N319   N     0.62392   0.46165   0.19678   0.00000  Uiso   1.00
N320   N     0.81934   0.25708   0.51159   0.00000  Uiso   1.00
N321   N     0.49211   0.06531   0.43846   0.00000  Uiso   1.00
N322   N     0.59265   0.52497   0.27662   0.00000  Uiso   1.00
C323   C     0.82904   0.95201   0.67888   0.00000  Uiso   1.00
C324   C     0.78764   0.96326   0.62815   0.00000  Uiso   1.00
C325   C     0.73432   0.93705   0.62922   0.00000  Uiso   1.00
C326   C     0.70294   0.95320   0.57831   0.00000  Uiso   1.00
C327   C     0.63543   0.96441   0.50715   0.00000  Uiso   1.00
C328   C     0.87709   0.90896   0.65016   0.00000  Uiso   1.00
C329   C     0.89896   0.83711   0.66974   0.00000  Uiso   1.00
C330   C     0.94288   0.80755   0.63736   0.00000  Uiso   1.00
C331   C     0.01426   0.73450   0.60040   0.00000  Uiso   1.00
C332   C     0.84920   0.03538   0.69506   0.00000  Uiso   1.00
C333   C     0.84765   0.06982   0.75241   0.00000  Uiso   1.00
C334   C     0.86811   0.14670   0.75783   0.00000  Uiso   1.00
C335   C     0.89619   0.26993   0.79059   0.00000  Uiso   1.00
C336   C     0.86815   0.02728   0.58656   0.00000  Uiso   1.00
C337   C     0.80889   0.00414   0.57800   0.00000  Uiso   1.00
C338   C     0.77758   0.02033   0.52707   0.00000  Uiso   1.00
C339   C     0.72421   0.99416   0.52807   0.00000  Uiso   1.00
C340   C     0.89833   0.94984   0.60001   0.00000  Uiso   1.00
C341   C     0.94223   0.92039   0.56760   0.00000  Uiso   1.00
C342   C     0.96416   0.84851   0.58713   0.00000  Uiso   1.00
C343   C     0.87044   0.07627   0.64491   0.00000  Uiso   1.00
C344   C     0.89091   0.15310   0.65026   0.00000  Uiso   1.00
C345   C     0.88939   0.18766   0.70760   0.00000  Uiso   1.00
H346   H     0.81251   0.92018   0.71792   0.00000  Uiso   1.00
H347   H     0.71789   0.90541   0.66803   0.00000  Uiso   1.00
H348   H     0.88252   0.80549   0.70855   0.00000  Uiso   1.00
H349   H     0.83121   0.03817   0.79120   0.00000  Uiso   1.00
H350   H     0.62237   0.90704   0.59060   0.00000  Uiso   1.00
H351   H     0.96950   0.69637   0.67606   0.00000  Uiso   1.00
H352   H     0.86131   0.18701   0.85033   0.00000  Uiso   1.00
H353   H     0.88469   0.05911   0.54751   0.00000  Uiso   1.00
H354   H     0.79403   0.05197   0.48827   0.00000  Uiso   1.00
H355   H     0.95866   0.95205   0.52880   0.00000  Uiso   1.00
H356   H     0.90735   0.18473   0.61144   0.00000  Uiso   1.00
H357   H     0.68416   0.02599   0.44470   0.00000  Uiso   1.00
H358   H     0.03130   0.81532   0.53016   0.00000  Uiso   1.00
H359   H     0.92310   0.30597   0.70443   0.00000  Uiso   1.00
O360   O     0.59233   0.95929   0.48175   0.00000  Uiso   1.00
O361   O     0.04776   0.68290   0.59387   0.00000  Uiso   1.00
O362   O     0.90581   0.32661   0.82252   0.00000  Uiso   1.00
N363   N     0.64935   0.93603   0.56440   0.00000  Uiso   1.00
N364   N     0.97389   0.73906   0.64429   0.00000  Uiso   1.00
N365   N     0.87275   0.19776   0.80723   0.00000  Uiso   1.00
N366   N     0.68260   0.00004   0.48589   0.00000  Uiso   1.00
N367   N     0.00714   0.80307   0.56578   0.00000  Uiso   1.00
N368   N     0.90600   0.26177   0.72872   0.00000  Uiso   1.00
C369   C     0.83125   0.71358   0.32202   0.00000  Uiso   1.00
C370   C     0.78877   0.72361   0.37177   0.00000  Uiso   1.00
C371   C     0.73563   0.69675   0.36913   0.00000  Uiso   1.00
C372   C     0.70314   0.71179   0.41935   0.00000  Uiso   1.00
C373   C     0.63415   0.72116   0.48885   0.00000  Uiso   1.00
C374   C     0.87895   0.67074   0.35162   0.00000  Uiso   1.00
C375   C     0.90165   0.59945   0.33203   0.00000  Uiso   1.00
C376   C     0.94507   0.56999   0.36529   0.00000  Uiso   1.00
C377   C     0.01612   0.49733   0.40348   0.00000  Uiso   1.00
C378   C     0.85124   0.79743   0.30702   0.00000  Uiso   1.00
C379   C     0.85064   0.83264   0.24993   0.00000  Uiso   1.00
C380   C     0.87074   0.90985   0.24563   0.00000  Uiso   1.00
C381   C     0.89875   0.03388   0.21458   0.00000  Uiso   1.00
C382   C     0.86803   0.78806   0.41591   0.00000  Uiso   1.00
C383   C     0.80875   0.76405   0.42277   0.00000  Uiso   1.00
C384   C     0.77633   0.77914   0.47301   0.00000  Uiso   1.00
C385   C     0.72315   0.75231   0.47044   0.00000  Uiso   1.00
C386   C     0.89893   0.71119   0.40262   0.00000  Uiso   1.00
C387   C     0.94234   0.68184   0.43591   0.00000  Uiso   1.00
C388   C     0.96509   0.61051   0.41638   0.00000  Uiso   1.00
C389   C     0.87121   0.83788   0.35802   0.00000  Uiso   1.00
C390   C     0.89133   0.91504   0.35381   0.00000  Uiso   1.00
C391   C     0.89075   0.95037   0.29672   0.00000  Uiso   1.00
H392   H     0.81570   0.68209   0.28232   0.00000  Uiso   1.00
H393   H     0.72019   0.66544   0.32966   0.00000  Uiso   1.00
H394   H     0.88618   0.56816   0.29256   0.00000  Uiso   1.00
H395   H     0.83517   0.80132   0.21047   0.00000  Uiso   1.00
H396   H     0.62312   0.66479   0.40464   0.00000  Uiso   1.00
H397   H     0.97312   0.45969   0.32641   0.00000  Uiso   1.00
H398   H     0.86557   0.95136   0.15331   0.00000  Uiso   1.00
H399   H     0.88359   0.81955   0.45562   0.00000  Uiso   1.00
H400   H     0.79180   0.81044   0.51247   0.00000  Uiso   1.00
H401   H     0.95779   0.71316   0.47537   0.00000  Uiso   1.00
H402   H     0.90678   0.94632   0.39328   0.00000  Uiso   1.00
H403   H     0.68124   0.78248   0.55301   0.00000  Uiso   1.00
H404   H     0.03125   0.57738   0.47478   0.00000  Uiso   1.00
H405   H     0.92369   0.06904   0.30169   0.00000  Uiso   1.00
O406   O     0.59058   0.71514   0.51310   0.00000  Uiso   1.00
O407   O     0.04978   0.44606   0.41046   0.00000  Uiso   1.00
O408   O     0.90867   0.09112   0.18336   0.00000  Uiso   1.00
N409   N     0.64939   0.69376   0.43175   0.00000  Uiso   1.00
N410   N     0.97662   0.50199   0.35862   0.00000  Uiso   1.00
N411   N     0.87608   0.96165   0.19678   0.00000  Uiso   1.00
N412   N     0.68066   0.75708   0.51159   0.00000  Uiso   1.00
N413   N     0.00789   0.56531   0.43846   0.00000  Uiso   1.00
N414   N     0.90735   0.02497   0.27662   0.00000  Uiso   1.00
C415   C     0.67096   0.45201   0.67888   0.00000  Uiso   1.00
C416   C     0.71236   0.46326   0.62815   0.00000  Uiso   1.00
C417   C     0.76568   0.43705   0.62922   0.00000  Uiso   1.00
C418   C     0.79706   0.45320   0.57831   0.00000  Uiso   1.00
C419   C     0.86457   0.46441   0.50715   0.00000  Uiso   1.00
C420   C     0.62291   0.40896   0.65016   0.00000  Uiso   1.00
C421   C     0.60104   0.33711   0.66974   0.00000  Uiso   1.00
C422   C     0.55712   0.30755   0.63736   0.00000  Uiso   1.00
C423   C     0.48574   0.23450   0.60040   0.00000  Uiso   1.00
C424   C     0.65080   0.53538   0.69506   0.00000  Uiso   1.00
C425   C     0.65235   0.56982   0.75241   0.00000  Uiso   1.00
C426   C     0.63189   0.64670   0.75783   0.00000  Uiso   1.00
C427   C     0.60381   0.76993   0.79059   0.00000  Uiso   1.00
C428   C     0.63185   0.52728   0.58656   0.00000  Uiso   1.00
C429   C     0.69111   0.50414   0.57800   0.00000  Uiso   1.00
C430   C     0.72242   0.52033   0.52707   0.00000  Uiso   1.00
C431   C     0.77579   0.49416   0.52807   0.00000  Uiso   1.00
C432   C     0.60167   0.44984   0.60001   0.00000  Uiso   1.00
C433   C     0.55777   0.42039   0.56760   0.00000  Uiso   1.00
C434   C     0.53584   0.34851   0.58713   0.00000  Uiso   1.00
C435   C     0.62956   0.57627   0.64491   0.00000  Uiso   1.00
C436   C     0.60909   0.65310   0.65026   0.00000  Uiso   1.00
C437   C     0.61061   0.68766   0.70760   0.00000  Uiso   1.00
H438   H     0.68749   0.42018   0.71792   0.00000  Uiso   1.00
H439   H     0.78211   0.40541   0.66803   0.00000  Uiso   1.00
H440   H     0.61748   0.30549   0.70855   0.00000  Uiso   1.00
H441   H     0.66879   0.53817   0.79120   0.00000  Uiso   1.00
H442   H     0.87763   0.40704   0.59060   0.00000  Uiso   1.00
H443   H     0.53050   0.19637   0.67606   0.00000  Uiso   1.00
H444   H     0.63869   0.68701   0.85033   0.00000  Uiso   1.00
H445   H     0.61531   0.55911   0.54751   0.00000  Uiso   1.00
H446   H     0.70597   0.55197   0.48827   0.00000  Uiso   1.00
H447   H     0.54134   0.45205   0.52880   0.00000  Uiso   1.00
H448   H     0.59265   0.68473   0.61144   0.00000  Uiso   1.00
H449   H     0.81584   0.52599   0.44470   0.00000  Uiso   1.00
H450   H     0.46870   0.31532   0.53016   0.00000  Uiso   1.00
H451   H     0.57690   0.80597   0.70443   0.00000  Uiso   1.00
O452   O     0.90767   0.45929   0.48175   0.00000  Uiso   1.00
O453   O     0.45224   0.18290   0.59387   0.00000  Uiso   1.00
O454   O     0.59419   0.82661   0.82252   0.00000  Uiso   1.00
N455   N     0.85065   0.43603   0.56440   0.00000  Uiso   1.00
N456   N     0.52611   0.23906   0.64429   0.00000  Uiso   1.00
N457   N     0.62725   0.69776   0.80723   0.00000  Uiso   1.00
N458   N     0.81740   0.50004   0.48589   0.00000  Uiso   1.00
N459   N     0.49286   0.30307   0.56578   0.00000  Uiso   1.00
N460   N     0.59400   0.76177   0.72872   0.00000  Uiso   1.00
C461   C     0.66875   0.28642   0.82202   0.00000  Uiso   1.00
C462   C     0.71123   0.27639   0.87177   0.00000  Uiso   1.00
C463   C     0.76437   0.30325   0.86913   0.00000  Uiso   1.00
C464   C     0.79686   0.28821   0.91935   0.00000  Uiso   1.00
C465   C     0.86585   0.27884   0.98885   0.00000  Uiso   1.00
C466   C     0.62105   0.32926   0.85162   0.00000  Uiso   1.00
C467   C     0.59835   0.40055   0.83203   0.00000  Uiso   1.00
C468   C     0.55493   0.43001   0.86529   0.00000  Uiso   1.00
C469   C     0.48388   0.50267   0.90348   0.00000  Uiso   1.00
C470   C     0.64876   0.20257   0.80702   0.00000  Uiso   1.00
C471   C     0.64936   0.16736   0.74993   0.00000  Uiso   1.00
C472   C     0.62926   0.09015   0.74563   0.00000  Uiso   1.00
C473   C     0.60125   0.96612   0.71458   0.00000  Uiso   1.00
C474   C     0.63197   0.21194   0.91591   0.00000  Uiso   1.00
C475   C     0.69125   0.23595   0.92277   0.00000  Uiso   1.00
C476   C     0.72367   0.22086   0.97301   0.00000  Uiso   1.00
C477   C     0.77685   0.24769   0.97044   0.00000  Uiso   1.00
C478   C     0.60107   0.28881   0.90262   0.00000  Uiso   1.00
C479   C     0.55766   0.31816   0.93591   0.00000  Uiso   1.00
C480   C     0.53491   0.38949   0.91638   0.00000  Uiso   1.00
C481   C     0.62879   0.16212   0.85802   0.00000  Uiso   1.00
C482   C     0.60867   0.08496   0.85381   0.00000  Uiso   1.00
C483   C     0.60925   0.04963   0.79672   0.00000  Uiso   1.00
H484   H     0.68430   0.31791   0.78232   0.00000  Uiso   1.00
H485   H     0.77981   0.33456   0.82966   0.00000  Uiso   1.00
H486   H     0.61382   0.43184   0.79256   0.00000  Uiso   1.00
H487   H     0.66483   0.19868   0.71047   0.00000  Uiso   1.00
H488   H     0.87688   0.33521   0.90464   0.00000  Uiso   1.00
H489   H     0.52688   0.54031   0.82641   0.00000  Uiso   1.00
H490   H     0.63443   0.04864   0.65331   0.00000  Uiso   1.00
H491   H     0.61641   0.18045   0.95562   0.00000  Uiso   1.00
H492   H     0.70820   0.18956   0.01247   0.00000  Uiso   1.00
H493   H     0.54221   0.28684   0.97537   0.00000  Uiso   1.00
H494   H     0.59322   0.05368   0.89328   0.00000  Uiso   1.00
H495   H     0.81876   0.21752   0.05301   0.00000  Uiso   1.00
H496   H     0.46875   0.42262   0.97478   0.00000  Uiso   1.00
H497   H     0.57631   0.93096   0.80169   0.00000  Uiso   1.00
O498   O     0.90942   0.28486   0.01310   0.00000  Uiso   1.00
O499   O     0.45022   0.55394   0.91046   0.00000  Uiso   1.00
O500   O     0.59133   0.90888   0.68336   0.00000  Uiso   1.00
N501   N     0.85061   0.30624   0.93175   0.00000  Uiso   1.00
N502   N     0.52338   0.49801   0.85862   0.00000  Uiso   1.00
N503   N     0.62392   0.03835   0.69678   0.00000  Uiso   1.00
N504   N     0.81934   0.24292   0.01159   0.00000  Uiso   1.00
N505   N     0.49211   0.43469   0.93846   0.00000  Uiso   1.00
N506   N     0.59265   0.97503   0.77662   0.00000  Uiso   1.00
C507   C     0.82904   0.54799   0.17888   0.00000  Uiso   1.00
C508   C     0.78764   0.53674   0.12815   0.00000  Uiso   1.00
C509   C     0.73432   0.56295   0.12922   0.00000  Uiso   1.00
C510   C     0.70294   0.54680   0.07831   0.00000  Uiso   1.00
C511   C     0.63543   0.53559   0.00715   0.00000  Uiso   1.00
C512   C     0.87709   0.59104   0.15016   0.00000  Uiso   1.00
C513   C     0.89896   0.66289   0.16974   0.00000  Uiso   1.00
C514   C     0.94288   0.69245   0.13736   0.00000  Uiso   1.00
C515   C     0.01426   0.76550   0.10040   0.00000  Uiso   1.00
C516   C     0.84920   0.46462   0.19506   0.00000  Uiso   1.00
C517   C     0.84765   0.43018   0.25241   0.00000  Uiso   1.00
C518   C     0.86811   0.35330   0.25783   0.00000  Uiso   1.00
C519   C     0.89619   0.23007   0.29059   0.00000  Uiso   1.00
C520   C     0.86815   0.47272   0.08656   0.00000  Uiso   1.00
C521   C     0.80889   0.49586   0.07800   0.00000  Uiso   1.00
C522   C     0.77758   0.47967   0.02707   0.00000  Uiso   1.00
C523   C     0.72421   0.50584   0.02807   0.00000  Uiso   1.00
C524   C     0.89833   0.55016   0.10001   0.00000  Uiso   1.00
C525   C     0.94223   0.57961   0.06760   0.00000  Uiso   1.00
C526   C     0.96416   0.65149   0.08713   0.00000  Uiso   1.00
C527   C     0.87044   0.42373   0.14491   0.00000  Uiso   1.00
C528   C     0.89091   0.34690   0.15026   0.00000  Uiso   1.00
C529   C     0.88939   0.31234   0.20760   0.00000  Uiso   1.00
H530   H     0.81251   0.57982   0.21792   0.00000  Uiso   1.00
H531   H     0.71789   0.59459   0.16803   0.00000  Uiso   1.00
H532   H     0.88252   0.69451   0.20855   0.00000  Uiso   1.00
H533   H     0.83121   0.46183   0.29120   0.00000  Uiso   1.00
H534   H     0.62237   0.59296   0.09060   0.00000  Uiso   1.00
H535   H     0.96950   0.80363   0.17606   0.00000  Uiso   1.00
H536   H     0.86131   0.31299   0.35033   0.00000  Uiso   1.00
H537   H     0.88469   0.44089   0.04751   0.00000  Uiso   1.00
H538   H     0.79403   0.44803   0.98827   0.00000  Uiso   1.00
H539   H     0.95866   0.54795   0.02880   0.00000  Uiso   1.00
H540   H     0.90735   0.31527   0.11144   0.00000  Uiso   1.00
H541   H     0.68416   0.47401   0.94470   0.00000  Uiso   1.00
H542   H     0.03130   0.68468   0.03016   0.00000  Uiso   1.00
H543   H     0.92310   0.19403   0.20443   0.00000  Uiso   1.00
O544   O     0.59233   0.54071   0.98175   0.00000  Uiso   1.00
O545   O     0.04776   0.81710   0.09387   0.00000  Uiso   1.00
O546   O     0.90581   0.17339   0.32252   0.00000  Uiso   1.00
N547   N     0.64935   0.56397   0.06440   0.00000  Uiso   1.00
N548   N     0.97389   0.76094   0.14429   0.00000  Uiso   1.00
N549   N     0.87275   0.30224   0.30723   0.00000  Uiso   1.00
N550   N     0.68260   0.49996   0.98589   0.00000  Uiso   1.00
N551   N     0.00714   0.69693   0.06578   0.00000  Uiso   1.00
N552   N     0.90600   0.23823   0.22872   0.00000  Uiso   1.00
C553   C     0.16875   0.21358   0.17798   0.00000  Uiso   1.00
C554   C     0.21123   0.22361   0.12823   0.00000  Uiso   1.00
C555   C     0.26437   0.19675   0.13087   0.00000  Uiso   1.00
C556   C     0.29686   0.21179   0.08065   0.00000  Uiso   1.00
C557   C     0.36585   0.22116   0.01115   0.00000  Uiso   1.00
C558   C     0.12105   0.17074   0.14838   0.00000  Uiso   1.00
C559   C     0.09835   0.09945   0.16797   0.00000  Uiso   1.00
C560   C     0.05493   0.06999   0.13471   0.00000  Uiso   1.00
C561   C     0.98388   0.99733   0.09652   0.00000  Uiso   1.00
C562   C     0.14876   0.29743   0.19298   0.00000  Uiso   1.00
C563   C     0.14936   0.33264   0.25007   0.00000  Uiso   1.00
C564   C     0.12926   0.40985   0.25437   0.00000  Uiso   1.00
C565   C     0.10125   0.53388   0.28542   0.00000  Uiso   1.00
C566   C     0.13197   0.28806   0.08409   0.00000  Uiso   1.00
C567   C     0.19125   0.26405   0.07723   0.00000  Uiso   1.00
C568   C     0.22367   0.27914   0.02699   0.00000  Uiso   1.00
C569   C     0.27685   0.25231   0.02956   0.00000  Uiso   1.00
C570   C     0.10107   0.21119   0.09738   0.00000  Uiso   1.00
C571   C     0.05766   0.18184   0.06409   0.00000  Uiso   1.00
C572   C     0.03491   0.11051   0.08362   0.00000  Uiso   1.00
C573   C     0.12879   0.33788   0.14198   0.00000  Uiso   1.00
C574   C     0.10867   0.41504   0.14619   0.00000  Uiso   1.00
C575   C     0.10925   0.45037   0.20328   0.00000  Uiso   1.00
H576   H     0.18430   0.18209   0.21768   0.00000  Uiso   1.00
H577   H     0.27981   0.16544   0.17034   0.00000  Uiso   1.00
H578   H     0.11382   0.06816   0.20744   0.00000  Uiso   1.00
H579   H     0.16483   0.30132   0.28953   0.00000  Uiso   1.00
H580   H     0.37688   0.16479   0.09536   0.00000  Uiso   1.00
H581   H     0.02688   0.95969   0.17359   0.00000  Uiso   1.00
H582   H     0.13443   0.45136   0.34669   0.00000  Uiso   1.00
H583   H     0.11641   0.31955   0.04438   0.00000  Uiso   1.00
H584   H     0.20820   0.31044   0.98753   0.00000  Uiso   1.00
H585   H     0.04221   0.21316   0.02463   0.00000  Uiso   1.00
H586   H     0.09322   0.44632   0.10672   0.00000  Uiso   1.00
H587   H     0.31876   0.28248   0.94699   0.00000  Uiso   1.00
H588   H     0.96875   0.07738   0.02522   0.00000  Uiso   1.00
H589   H     0.07631   0.56904   0.19831   0.00000  Uiso   1.00
O590   O     0.40942   0.21514   0.98690   0.00000  Uiso   1.00
O591   O     0.95022   0.94606   0.08954   0.00000  Uiso   1.00
O592   O     0.09133   0.59112   0.31664   0.00000  Uiso   1.00
N593   N     0.35061   0.19376   0.06825   0.00000  Uiso   1.00
N594   N     0.02338   0.00199   0.14138   0.00000  Uiso   1.00
N595   N     0.12392   0.46165   0.30322   0.00000  Uiso   1.00
N596   N     0.31934   0.25708   0.98841   0.00000  Uiso   1.00
N597   N     0.99211   0.06531   0.06154   0.00000  Uiso   1.00
N598   N     0.09265   0.52497   0.22338   0.00000  Uiso   1.00
C599   C     0.32904   0.95201   0.82112   0.00000  Uiso   1.00
C600   C     0.28764   0.96326   0.87185   0.00000  Uiso   1.00
C601   C     0.23432   0.93705   0.87078   0.00000  Uiso   1.00
C602   C     0.20294   0.95320   0.92169   0.00000  Uiso   1.00
C603   C     0.13543   0.96441   0.99285   0.00000  Uiso   1.00
C604   C     0.37709   0.90896   0.84984   0.00000  Uiso   1.00
C605   C     0.39896   0.83711   0.83026   0.00000  Uiso   1.00
C606   C     0.44288   0.80755   0.86264   0.00000  Uiso   1.00
C607   C     0.51426   0.73450   0.89960   0.00000  Uiso   1.00
C608   C     0.34920   0.03538   0.80494   0.00000  Uiso   1.00
C609   C     0.34765   0.06982   0.74759   0.00000  Uiso   1.00
C610   C     0.36811   0.14670   0.74217   0.00000  Uiso   1.00
C611   C     0.39619   0.26993   0.70941   0.00000  Uiso   1.00
C612   C     0.36815   0.02728   0.91344   0.00000  Uiso   1.00
C613   C     0.30889   0.00414   0.92200   0.00000  Uiso   1.00
C614   C     0.27758   0.02033   0.97293   0.00000  Uiso   1.00
C615   C     0.22421   0.99416   0.97193   0.00000  Uiso   1.00
C616   C     0.39833   0.94984   0.89999   0.00000  Uiso   1.00
C617   C     0.44223   0.92039   0.93240   0.00000  Uiso   1.00
C618   C     0.46416   0.84851   0.91287   0.00000  Uiso   1.00
C619   C     0.37044   0.07627   0.85509   0.00000  Uiso   1.00
C620   C     0.39091   0.15310   0.84974   0.00000  Uiso   1.00
C621   C     0.38939   0.18766   0.79240   0.00000  Uiso   1.00
H622   H     0.31251   0.92018   0.78208   0.00000  Uiso   1.00
H623   H     0.21789   0.90541   0.83197   0.00000  Uiso   1.00
H624   H     0.38252   0.80549   0.79145   0.00000  Uiso   1.00
H625   H     0.33121   0.03817   0.70880   0.00000  Uiso   1.00
H626   H     0.12237   0.90704   0.90940   0.00000  Uiso   1.00
H627   H     0.46950   0.69637   0.82394   0.00000  Uiso   1.00
H628   H     0.36131   0.18701   0.64967   0.00000  Uiso   1.00
H629   H     0.38469   0.05911   0.95249   0.00000  Uiso   1.00
H630   H     0.29403   0.05197   0.01173   0.00000  Uiso   1.00
H631   H     0.45866   0.95205   0.97120   0.00000  Uiso   1.00
H632   H     0.40735   0.18473   0.88856   0.00000  Uiso   1.00
H633   H     0.18416   0.02599   0.05530   0.00000  Uiso   1.00
H634   H     0.53130   0.81532   0.96984   0.00000  Uiso   1.00
H635   H     0.42310   0.30597   0.79557   0.00000  Uiso   1.00
O636   O     0.09233   0.95929   0.01825   0.00000  Uiso   1.00
O637   O     0.54776   0.68290   0.90613   0.00000  Uiso   1.00
O638   O     0.40581   0.32661   0.67748   0.00000  Uiso   1.00
N639   N     0.14935   0.93603   0.93560   0.00000  Uiso   1.00
N640   N     0.47389   0.73906   0.85571   0.00000  Uiso   1.00
N641   N     0.37275   0.19776   0.69277   0.00000  Uiso   1.00
N642   N     0.18260   0.00004   0.01411   0.00000  Uiso   1.00
N643   N     0.50714   0.80307   0.93422   0.00000  Uiso   1.00
N644   N     0.40600   0.26177   0.77128   0.00000  Uiso   1.00
C645   C     0.33125   0.78642   0.67798   0.00000  Uiso   1.00
C646   C     0.28877   0.77639   0.62823   0.00000  Uiso   1.00
C647   C     0.23563   0.80325   0.63087   0.00000  Uiso   1.00
C648   C     0.20314   0.78821   0.58065   0.00000  Uiso   1.00
C649   C     0.13415   0.77884   0.51115   0.00000  Uiso   1.00
C650   C     0.37895   0.82926   0.64838   0.00000  Uiso   1.00
C651   C     0.40165   0.90055   0.66797   0.00000  Uiso   1.00
C652   C     0.44507   0.93001   0.63471   0.00000  Uiso   1.00
C653   C     0.51612   0.00267   0.59652   0.00000  Uiso   1.00
C654   C     0.35124   0.70257   0.69298   0.00000  Uiso   1.00
C655   C     0.35064   0.66736   0.75007   0.00000  Uiso   1.00
C656   C     0.37074   0.59015   0.75437   0.00000  Uiso   1.00
C657   C     0.39875   0.46612   0.78542   0.00000  Uiso   1.00
C658   C     0.36803   0.71194   0.58409   0.00000  Uiso   1.00
C659   C     0.30875   0.73595   0.57723   0.00000  Uiso   1.00
C660   C     0.27633   0.72086   0.52699   0.00000  Uiso   1.00
C661   C     0.22315   0.74769   0.52956   0.00000  Uiso   1.00
C662   C     0.39893   0.78881   0.59738   0.00000  Uiso   1.00
C663   C     0.44234   0.81816   0.56409   0.00000  Uiso   1.00
C664   C     0.46509   0.88949   0.58362   0.00000  Uiso   1.00
C665   C     0.37121   0.66212   0.64198   0.00000  Uiso   1.00
C666   C     0.39133   0.58496   0.64619   0.00000  Uiso   1.00
C667   C     0.39075   0.54963   0.70328   0.00000  Uiso   1.00
H668   H     0.31570   0.81791   0.71768   0.00000  Uiso   1.00
H669   H     0.22019   0.83456   0.67034   0.00000  Uiso   1.00
H670   H     0.38618   0.93184   0.70744   0.00000  Uiso   1.00
H671   H     0.33517   0.69868   0.78953   0.00000  Uiso   1.00
H672   H     0.12312   0.83521   0.59536   0.00000  Uiso   1.00
H673   H     0.47312   0.04031   0.67359   0.00000  Uiso   1.00
H674   H     0.36557   0.54864   0.84669   0.00000  Uiso   1.00
H675   H     0.38359   0.68045   0.54438   0.00000  Uiso   1.00
H676   H     0.29180   0.68956   0.48753   0.00000  Uiso   1.00
H677   H     0.45779   0.78684   0.52463   0.00000  Uiso   1.00
H678   H     0.40678   0.55368   0.60672   0.00000  Uiso   1.00
H679   H     0.18124   0.71752   0.44699   0.00000  Uiso   1.00
H680   H     0.53125   0.92262   0.52522   0.00000  Uiso   1.00
H681   H     0.42369   0.43096   0.69831   0.00000  Uiso   1.00
O682   O     0.09058   0.78486   0.48690   0.00000  Uiso   1.00
O683   O     0.54978   0.05394   0.58954   0.00000  Uiso   1.00
O684   O     0.40867   0.40888   0.81664   0.00000  Uiso   1.00
N685   N     0.14939   0.80624   0.56825   0.00000  Uiso   1.00
N686   N     0.47662   0.99801   0.64138   0.00000  Uiso   1.00
N687   N     0.37608   0.53835   0.80322   0.00000  Uiso   1.00
N688   N     0.18066   0.74292   0.48841   0.00000  Uiso   1.00
N689   N     0.50789   0.93469   0.56154   0.00000  Uiso   1.00
N690   N     0.40735   0.47503   0.72338   0.00000  Uiso   1.00
C691   C     0.17096   0.04799   0.32112   0.00000  Uiso   1.00
C692   C     0.21236   0.03674   0.37185   0.00000  Uiso   1.00
C693   C     0.26568   0.06295   0.37078   0.00000  Uiso   1.00
C694   C     0.29706   0.04680   0.42169   0.00000  Uiso   1.00
C695   C     0.36457   0.03559   0.49285   0.00000  Uiso   1.00
C696   C     0.12291   0.09104   0.34984   0.00000  Uiso   1.00
C697   C     0.10104   0.16289   0.33026   0.00000  Uiso   1.00
C698   C     0.05712   0.19245   0.36264   0.00000  Uiso   1.00
C699   C     0.98574   0.26550   0.39960   0.00000  Uiso   1.00
C700   C     0.15080   0.96462   0.30494   0.00000  Uiso   1.00
C701   C     0.15235   0.93018   0.24759   0.00000  Uiso   1.00
C702   C     0.13189   0.85330   0.24217   0.00000  Uiso   1.00
C703   C     0.10381   0.73007   0.20941   0.00000  Uiso   1.00
C704   C     0.13185   0.97272   0.41344   0.00000  Uiso   1.00
C705   C     0.19111   0.99586   0.42200   0.00000  Uiso   1.00
C706   C     0.22242   0.97967   0.47293   0.00000  Uiso   1.00
C707   C     0.27579   0.00584   0.47193   0.00000  Uiso   1.00
C708   C     0.10167   0.05016   0.39999   0.00000  Uiso   1.00
C709   C     0.05777   0.07961   0.43240   0.00000  Uiso   1.00
C710   C     0.03584   0.15149   0.41287   0.00000  Uiso   1.00
C711   C     0.12956   0.92373   0.35509   0.00000  Uiso   1.00
C712   C     0.10909   0.84690   0.34974   0.00000  Uiso   1.00
C713   C     0.11061   0.81234   0.29240   0.00000  Uiso   1.00
H714   H     0.18749   0.07982   0.28208   0.00000  Uiso   1.00
H715   H     0.28211   0.09459   0.33197   0.00000  Uiso   1.00
H716   H     0.11748   0.19451   0.29145   0.00000  Uiso   1.00
H717   H     0.16879   0.96183   0.20880   0.00000  Uiso   1.00
H718   H     0.37763   0.09296   0.40940   0.00000  Uiso   1.00
H719   H     0.03050   0.30363   0.32394   0.00000  Uiso   1.00
H720   H     0.13869   0.81299   0.14967   0.00000  Uiso   1.00
H721   H     0.11531   0.94089   0.45249   0.00000  Uiso   1.00
H722   H     0.20597   0.94803   0.51173   0.00000  Uiso   1.00
H723   H     0.04134   0.04795   0.47120   0.00000  Uiso   1.00
H724   H     0.09265   0.81527   0.38856   0.00000  Uiso   1.00
H725   H     0.31584   0.97401   0.55530   0.00000  Uiso   1.00
H726   H     0.96870   0.18468   0.46984   0.00000  Uiso   1.00
H727   H     0.07690   0.69403   0.29557   0.00000  Uiso   1.00
O728   O     0.40767   0.04071   0.51825   0.00000  Uiso   1.00
O729   O     0.95224   0.31710   0.40613   0.00000  Uiso   1.00
O730   O     0.09419   0.67339   0.17748   0.00000  Uiso   1.00
N731   N     0.35065   0.06397   0.43560   0.00000  Uiso   1.00
N732   N     0.02611   0.26094   0.35571   0.00000  Uiso   1.00
N733   N     0.12725   0.80224   0.19277   0.00000  Uiso   1.00
N734   N     0.31740   0.99996   0.51411   0.00000  Uiso   1.00
N735   N     0.99286   0.19693   0.43422   0.00000  Uiso   1.00
N736   N     0.09400   0.73823   0.27128   0.00000  Uiso   1.00
