data_job_01997
_audit_creation_date              2018-12-19
_audit_creation_method            'Materials Studio'
_symmetry_space_group_name_H-M    'P1'
_symmetry_Int_Tables_number       1
_symmetry_cell_setting            triclinic
loop_
_symmetry_equiv_pos_as_xyz
  x,y,z
_cell_length_a                    28.5822
_cell_length_b                    20.0362
_cell_length_c                    19.5233
_cell_angle_alpha                 90.0000
_cell_angle_beta                  90.0000
_cell_angle_gamma                 90.0000
loop_
_atom_site_label
_atom_site_type_symbol
_atom_site_fract_x
_atom_site_fract_y
_atom_site_fract_z
_atom_site_U_iso_or_equiv
_atom_site_adp_type
_atom_site_occupancy
C1     C     0.68222   0.00455   0.83258   0.00000  Uiso   1.00
C2     C     0.67360   0.96065   0.77004   0.00000  Uiso   1.00
C3     C     0.70565   0.91698   0.74101   0.00000  Uiso   1.00
C4     C     0.69103   0.88130   0.68393   0.00000  Uiso   1.00
C5     C     0.68451   0.81197   0.59090   0.00000  Uiso   1.00
C6     C     0.67225   0.07592   0.80971   0.00000  Uiso   1.00
C7     C     0.70316   0.12916   0.81405   0.00000  Uiso   1.00
C8     C     0.68740   0.19052   0.79037   0.00000  Uiso   1.00
C9     C     0.67877   0.30016   0.75898   0.00000  Uiso   1.00
C10    C     0.64396   0.98687   0.88391   0.00000  Uiso   1.00
C11    C     0.65108   0.96527   0.95064   0.00000  Uiso   1.00
C12    C     0.61150   0.95167   0.98943   0.00000  Uiso   1.00
C13    C     0.55895   0.92306   0.07324   0.00000  Uiso   1.00
C14    C     0.59926   0.01883   0.78284   0.00000  Uiso   1.00
C15    C     0.62854   0.96841   0.74302   0.00000  Uiso   1.00
C16    C     0.61386   0.93278   0.68597   0.00000  Uiso   1.00
C17    C     0.64589   0.88906   0.65686   0.00000  Uiso   1.00
C18    C     0.62719   0.08368   0.78269   0.00000  Uiso   1.00
C19    C     0.61138   0.14497   0.75901   0.00000  Uiso   1.00
C20    C     0.64226   0.19829   0.76330   0.00000  Uiso   1.00
C21    C     0.59890   0.99463   0.85689   0.00000  Uiso   1.00
C22    C     0.55930   0.98106   0.89559   0.00000  Uiso   1.00
C23    C     0.56636   0.95944   0.96236   0.00000  Uiso   1.00
H24    H     0.71730   0.99851   0.85362   0.00000  Uiso   1.00
H25    H     0.74052   0.91099   0.76193   0.00000  Uiso   1.00
H26    H     0.73803   0.12315   0.83497   0.00000  Uiso   1.00
H27    H     0.68596   0.95927   0.97153   0.00000  Uiso   1.00
H28    H     0.74639   0.81740   0.64835   0.00000  Uiso   1.00
H29    H     0.74114   0.26474   0.80236   0.00000  Uiso   1.00
H30    H     0.63134   0.91918   0.09033   0.00000  Uiso   1.00
H31    H     0.56418   0.02487   0.76180   0.00000  Uiso   1.00
H32    H     0.57899   0.93879   0.66507   0.00000  Uiso   1.00
H33    H     0.57650   0.15095   0.73810   0.00000  Uiso   1.00
H34    H     0.52443   0.98707   0.87466   0.00000  Uiso   1.00
H35    H     0.61529   0.83997   0.56973   0.00000  Uiso   1.00
H36    H     0.61004   0.28731   0.72375   0.00000  Uiso   1.00
H37    H     0.50024   0.94175   0.01171   0.00000  Uiso   1.00
O38    O     0.69336   0.77160   0.54705   0.00000  Uiso   1.00
O39    O     0.68646   0.35850   0.74913   0.00000  Uiso   1.00
O40    O     0.54241   0.90513   0.12693   0.00000  Uiso   1.00
N41    N     0.71350   0.83451   0.64313   0.00000  Uiso   1.00
N42    N     0.70859   0.25275   0.78711   0.00000  Uiso   1.00
N43    N     0.60594   0.92970   0.05635   0.00000  Uiso   1.00
N44    N     0.64296   0.84666   0.60082   0.00000  Uiso   1.00
N45    N     0.63805   0.26489   0.74481   0.00000  Uiso   1.00
N46    N     0.53539   0.94184   0.01404   0.00000  Uiso   1.00
C47    C     0.68462   0.48881   0.50258   0.00000  Uiso   1.00
C48    C     0.67546   0.53340   0.56444   0.00000  Uiso   1.00
C49    C     0.70745   0.57677   0.59409   0.00000  Uiso   1.00
C50    C     0.69230   0.61320   0.65036   0.00000  Uiso   1.00
C51    C     0.68500   0.68344   0.74253   0.00000  Uiso   1.00
C52    C     0.67371   0.41782   0.52577   0.00000  Uiso   1.00
C53    C     0.70422   0.36401   0.52290   0.00000  Uiso   1.00
C54    C     0.68758   0.30314   0.54662   0.00000  Uiso   1.00
C55    C     0.67755   0.19393   0.57871   0.00000  Uiso   1.00
C56    C     0.64729   0.50669   0.44990   0.00000  Uiso   1.00
C57    C     0.65558   0.52758   0.38322   0.00000  Uiso   1.00
C58    C     0.61670   0.54152   0.34305   0.00000  Uiso   1.00
C59    C     0.56565   0.57029   0.25733   0.00000  Uiso   1.00
C60    C     0.60083   0.47639   0.54980   0.00000  Uiso   1.00
C61    C     0.62995   0.52665   0.59009   0.00000  Uiso   1.00
C62    C     0.61474   0.56303   0.64633   0.00000  Uiso   1.00
C63    C     0.64670   0.60645   0.67606   0.00000  Uiso   1.00
C64    C     0.62820   0.41107   0.55142   0.00000  Uiso   1.00
C65    C     0.61151   0.35027   0.57515   0.00000  Uiso   1.00
C66    C     0.64199   0.29638   0.57231   0.00000  Uiso   1.00
C67    C     0.60177   0.49995   0.47554   0.00000  Uiso   1.00
C68    C     0.56287   0.51385   0.43547   0.00000  Uiso   1.00
C69    C     0.57111   0.53476   0.36874   0.00000  Uiso   1.00
H70    H     0.72006   0.49405   0.48261   0.00000  Uiso   1.00
H71    H     0.74267   0.58197   0.57422   0.00000  Uiso   1.00
H72    H     0.73943   0.36924   0.50304   0.00000  Uiso   1.00
H73    H     0.69080   0.53279   0.36339   0.00000  Uiso   1.00
H74    H     0.74767   0.67645   0.68712   0.00000  Uiso   1.00
H75    H     0.74084   0.22789   0.53701   0.00000  Uiso   1.00
H76    H     0.63830   0.57277   0.24251   0.00000  Uiso   1.00
H77    H     0.56540   0.47114   0.56977   0.00000  Uiso   1.00
H78    H     0.57952   0.55780   0.66617   0.00000  Uiso   1.00
H79    H     0.57629   0.34507   0.59499   0.00000  Uiso   1.00
H80    H     0.52766   0.50862   0.45533   0.00000  Uiso   1.00
H81    H     0.61525   0.65683   0.76175   0.00000  Uiso   1.00
H82    H     0.60843   0.20827   0.61163   0.00000  Uiso   1.00
H83    H     0.50589   0.55316   0.31714   0.00000  Uiso   1.00
O84    O     0.69355   0.72404   0.78629   0.00000  Uiso   1.00
O85    O     0.68459   0.13555   0.58933   0.00000  Uiso   1.00
O86    O     0.55006   0.58803   0.20297   0.00000  Uiso   1.00
N87    N     0.71456   0.65995   0.69145   0.00000  Uiso   1.00
N88    N     0.70819   0.24057   0.55111   0.00000  Uiso   1.00
N89    N     0.61232   0.56299   0.27578   0.00000  Uiso   1.00
N90    N     0.64331   0.64939   0.73161   0.00000  Uiso   1.00
N91    N     0.63693   0.23002   0.59127   0.00000  Uiso   1.00
N92    N     0.54107   0.55244   0.31593   0.00000  Uiso   1.00
C93    C     0.81778   0.49545   0.33258   0.00000  Uiso   1.00
C94    C     0.82640   0.53935   0.27004   0.00000  Uiso   1.00
C95    C     0.79435   0.58302   0.24101   0.00000  Uiso   1.00
C96    C     0.80897   0.61870   0.18393   0.00000  Uiso   1.00
C97    C     0.81549   0.68803   0.09090   0.00000  Uiso   1.00
C98    C     0.82775   0.42408   0.30971   0.00000  Uiso   1.00
C99    C     0.79684   0.37084   0.31405   0.00000  Uiso   1.00
C100   C     0.81260   0.30948   0.29037   0.00000  Uiso   1.00
C101   C     0.82123   0.19984   0.25898   0.00000  Uiso   1.00
C102   C     0.85604   0.51313   0.38391   0.00000  Uiso   1.00
C103   C     0.84892   0.53473   0.45064   0.00000  Uiso   1.00
C104   C     0.88850   0.54833   0.48943   0.00000  Uiso   1.00
C105   C     0.94105   0.57694   0.57324   0.00000  Uiso   1.00
C106   C     0.90074   0.48117   0.28284   0.00000  Uiso   1.00
C107   C     0.87146   0.53159   0.24302   0.00000  Uiso   1.00
C108   C     0.88614   0.56722   0.18597   0.00000  Uiso   1.00
C109   C     0.85411   0.61094   0.15686   0.00000  Uiso   1.00
C110   C     0.87281   0.41632   0.28269   0.00000  Uiso   1.00
C111   C     0.88862   0.35503   0.25901   0.00000  Uiso   1.00
C112   C     0.85774   0.30171   0.26330   0.00000  Uiso   1.00
C113   C     0.90110   0.50537   0.35689   0.00000  Uiso   1.00
C114   C     0.94070   0.51894   0.39559   0.00000  Uiso   1.00
C115   C     0.93364   0.54056   0.46236   0.00000  Uiso   1.00
H116   H     0.78270   0.50149   0.35362   0.00000  Uiso   1.00
H117   H     0.75948   0.58901   0.26193   0.00000  Uiso   1.00
H118   H     0.76197   0.37685   0.33497   0.00000  Uiso   1.00
H119   H     0.81404   0.54073   0.47153   0.00000  Uiso   1.00
H120   H     0.75361   0.68260   0.14835   0.00000  Uiso   1.00
H121   H     0.75886   0.23526   0.30236   0.00000  Uiso   1.00
H122   H     0.86866   0.58082   0.59033   0.00000  Uiso   1.00
H123   H     0.93582   0.47513   0.26180   0.00000  Uiso   1.00
H124   H     0.92101   0.56121   0.16507   0.00000  Uiso   1.00
H125   H     0.92350   0.34905   0.23810   0.00000  Uiso   1.00
H126   H     0.97557   0.51293   0.37466   0.00000  Uiso   1.00
H127   H     0.88471   0.66003   0.06973   0.00000  Uiso   1.00
H128   H     0.88996   0.21269   0.22375   0.00000  Uiso   1.00
H129   H     0.99976   0.55825   0.51171   0.00000  Uiso   1.00
O130   O     0.80664   0.72840   0.04705   0.00000  Uiso   1.00
O131   O     0.81354   0.14150   0.24913   0.00000  Uiso   1.00
O132   O     0.95759   0.59487   0.62693   0.00000  Uiso   1.00
N133   N     0.78650   0.66549   0.14313   0.00000  Uiso   1.00
N134   N     0.79141   0.24725   0.28711   0.00000  Uiso   1.00
N135   N     0.89406   0.57030   0.55635   0.00000  Uiso   1.00
N136   N     0.85704   0.65334   0.10082   0.00000  Uiso   1.00
N137   N     0.86195   0.23511   0.24481   0.00000  Uiso   1.00
N138   N     0.96461   0.55816   0.51404   0.00000  Uiso   1.00
C139   C     0.81538   0.01119   0.00258   0.00000  Uiso   1.00
C140   C     0.82454   0.96660   0.06444   0.00000  Uiso   1.00
C141   C     0.79255   0.92323   0.09409   0.00000  Uiso   1.00
C142   C     0.80770   0.88680   0.15036   0.00000  Uiso   1.00
C143   C     0.81500   0.81656   0.24253   0.00000  Uiso   1.00
C144   C     0.82629   0.08218   0.02577   0.00000  Uiso   1.00
C145   C     0.79578   0.13599   0.02290   0.00000  Uiso   1.00
C146   C     0.81242   0.19686   0.04662   0.00000  Uiso   1.00
C147   C     0.82245   0.30607   0.07871   0.00000  Uiso   1.00
C148   C     0.85271   0.99331   0.94990   0.00000  Uiso   1.00
C149   C     0.84442   0.97242   0.88322   0.00000  Uiso   1.00
C150   C     0.88330   0.95848   0.84305   0.00000  Uiso   1.00
C151   C     0.93435   0.92971   0.75733   0.00000  Uiso   1.00
C152   C     0.89917   0.02361   0.04980   0.00000  Uiso   1.00
C153   C     0.87005   0.97335   0.09009   0.00000  Uiso   1.00
C154   C     0.88526   0.93697   0.14633   0.00000  Uiso   1.00
C155   C     0.85330   0.89355   0.17606   0.00000  Uiso   1.00
C156   C     0.87180   0.08893   0.05142   0.00000  Uiso   1.00
C157   C     0.88849   0.14973   0.07515   0.00000  Uiso   1.00
C158   C     0.85801   0.20362   0.07231   0.00000  Uiso   1.00
C159   C     0.89823   0.00005   0.97554   0.00000  Uiso   1.00
C160   C     0.93713   0.98615   0.93547   0.00000  Uiso   1.00
C161   C     0.92889   0.96524   0.86874   0.00000  Uiso   1.00
H162   H     0.77994   0.00595   0.98261   0.00000  Uiso   1.00
H163   H     0.75733   0.91803   0.07422   0.00000  Uiso   1.00
H164   H     0.76057   0.13076   0.00304   0.00000  Uiso   1.00
H165   H     0.80920   0.96721   0.86339   0.00000  Uiso   1.00
H166   H     0.75233   0.82355   0.18712   0.00000  Uiso   1.00
H167   H     0.75916   0.27211   0.03701   0.00000  Uiso   1.00
H168   H     0.86170   0.92723   0.74251   0.00000  Uiso   1.00
H169   H     0.93460   0.02886   0.06977   0.00000  Uiso   1.00
H170   H     0.92048   0.94220   0.16617   0.00000  Uiso   1.00
H171   H     0.92371   0.15493   0.09499   0.00000  Uiso   1.00
H172   H     0.97234   0.99138   0.95533   0.00000  Uiso   1.00
H173   H     0.88475   0.84317   0.26175   0.00000  Uiso   1.00
H174   H     0.89157   0.29173   0.11163   0.00000  Uiso   1.00
H175   H     0.99411   0.94684   0.81714   0.00000  Uiso   1.00
O176   O     0.80645   0.77596   0.28629   0.00000  Uiso   1.00
O177   O     0.81541   0.36445   0.08933   0.00000  Uiso   1.00
O178   O     0.94994   0.91197   0.70297   0.00000  Uiso   1.00
N179   N     0.78544   0.84005   0.19145   0.00000  Uiso   1.00
N180   N     0.79181   0.25943   0.05111   0.00000  Uiso   1.00
N181   N     0.88768   0.93701   0.77578   0.00000  Uiso   1.00
N182   N     0.85669   0.85061   0.23161   0.00000  Uiso   1.00
N183   N     0.86307   0.26998   0.09127   0.00000  Uiso   1.00
N184   N     0.95893   0.94756   0.81593   0.00000  Uiso   1.00
C185   C     0.31778   0.00455   0.66742   0.00000  Uiso   1.00
C186   C     0.32640   0.96065   0.72996   0.00000  Uiso   1.00
C187   C     0.29435   0.91698   0.75899   0.00000  Uiso   1.00
C188   C     0.30897   0.88130   0.81607   0.00000  Uiso   1.00
C189   C     0.31549   0.81197   0.90910   0.00000  Uiso   1.00
C190   C     0.32775   0.07592   0.69029   0.00000  Uiso   1.00
C191   C     0.29684   0.12916   0.68595   0.00000  Uiso   1.00
C192   C     0.31260   0.19052   0.70963   0.00000  Uiso   1.00
C193   C     0.32123   0.30016   0.74102   0.00000  Uiso   1.00
C194   C     0.35604   0.98687   0.61609   0.00000  Uiso   1.00
C195   C     0.34892   0.96527   0.54936   0.00000  Uiso   1.00
C196   C     0.38850   0.95167   0.51057   0.00000  Uiso   1.00
C197   C     0.44105   0.92306   0.42676   0.00000  Uiso   1.00
C198   C     0.40074   0.01883   0.71716   0.00000  Uiso   1.00
C199   C     0.37146   0.96841   0.75698   0.00000  Uiso   1.00
C200   C     0.38614   0.93278   0.81403   0.00000  Uiso   1.00
C201   C     0.35411   0.88906   0.84314   0.00000  Uiso   1.00
C202   C     0.37281   0.08368   0.71731   0.00000  Uiso   1.00
C203   C     0.38862   0.14497   0.74099   0.00000  Uiso   1.00
C204   C     0.35774   0.19829   0.73670   0.00000  Uiso   1.00
C205   C     0.40110   0.99463   0.64311   0.00000  Uiso   1.00
C206   C     0.44070   0.98106   0.60441   0.00000  Uiso   1.00
C207   C     0.43364   0.95944   0.53764   0.00000  Uiso   1.00
H208   H     0.28270   0.99851   0.64638   0.00000  Uiso   1.00
H209   H     0.25948   0.91099   0.73807   0.00000  Uiso   1.00
H210   H     0.26197   0.12315   0.66503   0.00000  Uiso   1.00
H211   H     0.31404   0.95927   0.52847   0.00000  Uiso   1.00
H212   H     0.25361   0.81740   0.85165   0.00000  Uiso   1.00
H213   H     0.25886   0.26474   0.69764   0.00000  Uiso   1.00
H214   H     0.36866   0.91918   0.40967   0.00000  Uiso   1.00
H215   H     0.43582   0.02487   0.73820   0.00000  Uiso   1.00
H216   H     0.42101   0.93879   0.83493   0.00000  Uiso   1.00
H217   H     0.42350   0.15095   0.76190   0.00000  Uiso   1.00
H218   H     0.47557   0.98707   0.62534   0.00000  Uiso   1.00
H219   H     0.38471   0.83997   0.93027   0.00000  Uiso   1.00
H220   H     0.38996   0.28731   0.77625   0.00000  Uiso   1.00
H221   H     0.49976   0.94175   0.48829   0.00000  Uiso   1.00
O222   O     0.30664   0.77160   0.95295   0.00000  Uiso   1.00
O223   O     0.31354   0.35850   0.75087   0.00000  Uiso   1.00
O224   O     0.45759   0.90513   0.37307   0.00000  Uiso   1.00
N225   N     0.28650   0.83451   0.85687   0.00000  Uiso   1.00
N226   N     0.29141   0.25275   0.71289   0.00000  Uiso   1.00
N227   N     0.39406   0.92970   0.44365   0.00000  Uiso   1.00
N228   N     0.35704   0.84666   0.89918   0.00000  Uiso   1.00
N229   N     0.36195   0.26489   0.75519   0.00000  Uiso   1.00
N230   N     0.46461   0.94184   0.48596   0.00000  Uiso   1.00
C231   C     0.31538   0.48881   0.99742   0.00000  Uiso   1.00
C232   C     0.32454   0.53340   0.93556   0.00000  Uiso   1.00
C233   C     0.29255   0.57677   0.90591   0.00000  Uiso   1.00
C234   C     0.30770   0.61320   0.84964   0.00000  Uiso   1.00
C235   C     0.31500   0.68344   0.75747   0.00000  Uiso   1.00
C236   C     0.32629   0.41782   0.97423   0.00000  Uiso   1.00
C237   C     0.29578   0.36401   0.97710   0.00000  Uiso   1.00
C238   C     0.31242   0.30314   0.95338   0.00000  Uiso   1.00
C239   C     0.32245   0.19393   0.92129   0.00000  Uiso   1.00
C240   C     0.35271   0.50669   0.05010   0.00000  Uiso   1.00
C241   C     0.34442   0.52758   0.11678   0.00000  Uiso   1.00
C242   C     0.38330   0.54152   0.15695   0.00000  Uiso   1.00
C243   C     0.43435   0.57029   0.24267   0.00000  Uiso   1.00
C244   C     0.39917   0.47639   0.95020   0.00000  Uiso   1.00
C245   C     0.37005   0.52665   0.90991   0.00000  Uiso   1.00
C246   C     0.38526   0.56303   0.85367   0.00000  Uiso   1.00
C247   C     0.35330   0.60645   0.82394   0.00000  Uiso   1.00
C248   C     0.37180   0.41107   0.94858   0.00000  Uiso   1.00
C249   C     0.38849   0.35027   0.92485   0.00000  Uiso   1.00
C250   C     0.35801   0.29638   0.92769   0.00000  Uiso   1.00
C251   C     0.39823   0.49995   0.02446   0.00000  Uiso   1.00
C252   C     0.43713   0.51385   0.06453   0.00000  Uiso   1.00
C253   C     0.42889   0.53476   0.13126   0.00000  Uiso   1.00
H254   H     0.27994   0.49405   0.01739   0.00000  Uiso   1.00
H255   H     0.25733   0.58197   0.92578   0.00000  Uiso   1.00
H256   H     0.26057   0.36924   0.99696   0.00000  Uiso   1.00
H257   H     0.30920   0.53279   0.13661   0.00000  Uiso   1.00
H258   H     0.25233   0.67645   0.81288   0.00000  Uiso   1.00
H259   H     0.25916   0.22789   0.96299   0.00000  Uiso   1.00
H260   H     0.36170   0.57277   0.25749   0.00000  Uiso   1.00
H261   H     0.43460   0.47114   0.93023   0.00000  Uiso   1.00
H262   H     0.42048   0.55780   0.83383   0.00000  Uiso   1.00
H263   H     0.42371   0.34507   0.90501   0.00000  Uiso   1.00
H264   H     0.47234   0.50862   0.04467   0.00000  Uiso   1.00
H265   H     0.38475   0.65683   0.73825   0.00000  Uiso   1.00
H266   H     0.39157   0.20827   0.88837   0.00000  Uiso   1.00
H267   H     0.49411   0.55316   0.18286   0.00000  Uiso   1.00
O268   O     0.30645   0.72404   0.71371   0.00000  Uiso   1.00
O269   O     0.31541   0.13555   0.91067   0.00000  Uiso   1.00
O270   O     0.44994   0.58803   0.29703   0.00000  Uiso   1.00
N271   N     0.28544   0.65995   0.80855   0.00000  Uiso   1.00
N272   N     0.29181   0.24057   0.94889   0.00000  Uiso   1.00
N273   N     0.38768   0.56299   0.22422   0.00000  Uiso   1.00
N274   N     0.35669   0.64939   0.76839   0.00000  Uiso   1.00
N275   N     0.36307   0.23002   0.90873   0.00000  Uiso   1.00
N276   N     0.45893   0.55244   0.18407   0.00000  Uiso   1.00
C277   C     0.18222   0.49545   0.16742   0.00000  Uiso   1.00
C278   C     0.17360   0.53935   0.22996   0.00000  Uiso   1.00
C279   C     0.20565   0.58302   0.25899   0.00000  Uiso   1.00
C280   C     0.19103   0.61870   0.31607   0.00000  Uiso   1.00
C281   C     0.18451   0.68803   0.40910   0.00000  Uiso   1.00
C282   C     0.17225   0.42408   0.19029   0.00000  Uiso   1.00
C283   C     0.20316   0.37084   0.18595   0.00000  Uiso   1.00
C284   C     0.18740   0.30948   0.20963   0.00000  Uiso   1.00
C285   C     0.17877   0.19984   0.24102   0.00000  Uiso   1.00
C286   C     0.14396   0.51313   0.11609   0.00000  Uiso   1.00
C287   C     0.15108   0.53473   0.04936   0.00000  Uiso   1.00
C288   C     0.11150   0.54833   0.01057   0.00000  Uiso   1.00
C289   C     0.05895   0.57694   0.92676   0.00000  Uiso   1.00
C290   C     0.09926   0.48117   0.21716   0.00000  Uiso   1.00
C291   C     0.12854   0.53159   0.25698   0.00000  Uiso   1.00
C292   C     0.11386   0.56722   0.31403   0.00000  Uiso   1.00
C293   C     0.14589   0.61094   0.34314   0.00000  Uiso   1.00
C294   C     0.12719   0.41632   0.21731   0.00000  Uiso   1.00
C295   C     0.11138   0.35503   0.24099   0.00000  Uiso   1.00
C296   C     0.14226   0.30171   0.23670   0.00000  Uiso   1.00
C297   C     0.09890   0.50537   0.14311   0.00000  Uiso   1.00
C298   C     0.05930   0.51894   0.10441   0.00000  Uiso   1.00
C299   C     0.06636   0.54056   0.03764   0.00000  Uiso   1.00
H300   H     0.21730   0.50149   0.14638   0.00000  Uiso   1.00
H301   H     0.24052   0.58901   0.23807   0.00000  Uiso   1.00
H302   H     0.23803   0.37685   0.16503   0.00000  Uiso   1.00
H303   H     0.18596   0.54073   0.02847   0.00000  Uiso   1.00
H304   H     0.24639   0.68260   0.35165   0.00000  Uiso   1.00
H305   H     0.24114   0.23526   0.19764   0.00000  Uiso   1.00
H306   H     0.13134   0.58082   0.90967   0.00000  Uiso   1.00
H307   H     0.06418   0.47513   0.23820   0.00000  Uiso   1.00
H308   H     0.07899   0.56121   0.33493   0.00000  Uiso   1.00
H309   H     0.07650   0.34905   0.26190   0.00000  Uiso   1.00
H310   H     0.02443   0.51293   0.12534   0.00000  Uiso   1.00
H311   H     0.11529   0.66003   0.43027   0.00000  Uiso   1.00
H312   H     0.11004   0.21269   0.27625   0.00000  Uiso   1.00
H313   H     0.00024   0.55825   0.98829   0.00000  Uiso   1.00
O314   O     0.19336   0.72840   0.45295   0.00000  Uiso   1.00
O315   O     0.18646   0.14150   0.25087   0.00000  Uiso   1.00
O316   O     0.04241   0.59487   0.87307   0.00000  Uiso   1.00
N317   N     0.21350   0.66549   0.35687   0.00000  Uiso   1.00
N318   N     0.20859   0.24725   0.21289   0.00000  Uiso   1.00
N319   N     0.10594   0.57030   0.94365   0.00000  Uiso   1.00
N320   N     0.14296   0.65334   0.39918   0.00000  Uiso   1.00
N321   N     0.13805   0.23511   0.25519   0.00000  Uiso   1.00
N322   N     0.03539   0.55816   0.98596   0.00000  Uiso   1.00
C323   C     0.18462   0.01119   0.49742   0.00000  Uiso   1.00
C324   C     0.17546   0.96660   0.43556   0.00000  Uiso   1.00
C325   C     0.20745   0.92323   0.40591   0.00000  Uiso   1.00
C326   C     0.19230   0.88680   0.34964   0.00000  Uiso   1.00
C327   C     0.18500   0.81656   0.25747   0.00000  Uiso   1.00
C328   C     0.17371   0.08218   0.47423   0.00000  Uiso   1.00
C329   C     0.20422   0.13599   0.47710   0.00000  Uiso   1.00
C330   C     0.18758   0.19686   0.45338   0.00000  Uiso   1.00
C331   C     0.17755   0.30607   0.42129   0.00000  Uiso   1.00
C332   C     0.14729   0.99331   0.55010   0.00000  Uiso   1.00
C333   C     0.15558   0.97242   0.61678   0.00000  Uiso   1.00
C334   C     0.11670   0.95848   0.65695   0.00000  Uiso   1.00
C335   C     0.06565   0.92971   0.74267   0.00000  Uiso   1.00
C336   C     0.10083   0.02361   0.45020   0.00000  Uiso   1.00
C337   C     0.12995   0.97335   0.40991   0.00000  Uiso   1.00
C338   C     0.11474   0.93697   0.35367   0.00000  Uiso   1.00
C339   C     0.14670   0.89355   0.32394   0.00000  Uiso   1.00
C340   C     0.12820   0.08893   0.44858   0.00000  Uiso   1.00
C341   C     0.11151   0.14973   0.42485   0.00000  Uiso   1.00
C342   C     0.14199   0.20362   0.42769   0.00000  Uiso   1.00
C343   C     0.10177   0.00005   0.52446   0.00000  Uiso   1.00
C344   C     0.06287   0.98615   0.56453   0.00000  Uiso   1.00
C345   C     0.07111   0.96524   0.63126   0.00000  Uiso   1.00
H346   H     0.22006   0.00595   0.51739   0.00000  Uiso   1.00
H347   H     0.24267   0.91803   0.42578   0.00000  Uiso   1.00
H348   H     0.23943   0.13076   0.49696   0.00000  Uiso   1.00
H349   H     0.19080   0.96721   0.63661   0.00000  Uiso   1.00
H350   H     0.24767   0.82355   0.31288   0.00000  Uiso   1.00
H351   H     0.24084   0.27211   0.46299   0.00000  Uiso   1.00
H352   H     0.13830   0.92723   0.75749   0.00000  Uiso   1.00
H353   H     0.06540   0.02886   0.43023   0.00000  Uiso   1.00
H354   H     0.07952   0.94220   0.33383   0.00000  Uiso   1.00
H355   H     0.07629   0.15493   0.40501   0.00000  Uiso   1.00
H356   H     0.02766   0.99138   0.54467   0.00000  Uiso   1.00
H357   H     0.11525   0.84317   0.23825   0.00000  Uiso   1.00
H358   H     0.10843   0.29173   0.38837   0.00000  Uiso   1.00
H359   H     0.00589   0.94684   0.68286   0.00000  Uiso   1.00
O360   O     0.19355   0.77596   0.21371   0.00000  Uiso   1.00
O361   O     0.18459   0.36445   0.41067   0.00000  Uiso   1.00
O362   O     0.05006   0.91197   0.79703   0.00000  Uiso   1.00
N363   N     0.21456   0.84005   0.30855   0.00000  Uiso   1.00
N364   N     0.20819   0.25943   0.44889   0.00000  Uiso   1.00
N365   N     0.11232   0.93701   0.72422   0.00000  Uiso   1.00
N366   N     0.14331   0.85061   0.26839   0.00000  Uiso   1.00
N367   N     0.13693   0.26998   0.40873   0.00000  Uiso   1.00
N368   N     0.04107   0.94756   0.68407   0.00000  Uiso   1.00
C369   C     0.31778   0.99545   0.16742   0.00000  Uiso   1.00
C370   C     0.32640   0.03935   0.22996   0.00000  Uiso   1.00
C371   C     0.29435   0.08302   0.25899   0.00000  Uiso   1.00
C372   C     0.30897   0.11870   0.31607   0.00000  Uiso   1.00
C373   C     0.31549   0.18803   0.40910   0.00000  Uiso   1.00
C374   C     0.32775   0.92408   0.19029   0.00000  Uiso   1.00
C375   C     0.29684   0.87084   0.18595   0.00000  Uiso   1.00
C376   C     0.31260   0.80948   0.20963   0.00000  Uiso   1.00
C377   C     0.32123   0.69984   0.24102   0.00000  Uiso   1.00
C378   C     0.35604   0.01313   0.11609   0.00000  Uiso   1.00
C379   C     0.34892   0.03473   0.04936   0.00000  Uiso   1.00
C380   C     0.38850   0.04833   0.01057   0.00000  Uiso   1.00
C381   C     0.44105   0.07694   0.92676   0.00000  Uiso   1.00
C382   C     0.40074   0.98117   0.21716   0.00000  Uiso   1.00
C383   C     0.37146   0.03159   0.25698   0.00000  Uiso   1.00
C384   C     0.38614   0.06722   0.31403   0.00000  Uiso   1.00
C385   C     0.35411   0.11094   0.34314   0.00000  Uiso   1.00
C386   C     0.37281   0.91632   0.21731   0.00000  Uiso   1.00
C387   C     0.38862   0.85503   0.24099   0.00000  Uiso   1.00
C388   C     0.35774   0.80171   0.23670   0.00000  Uiso   1.00
C389   C     0.40110   0.00537   0.14311   0.00000  Uiso   1.00
C390   C     0.44070   0.01894   0.10441   0.00000  Uiso   1.00
C391   C     0.43364   0.04056   0.03764   0.00000  Uiso   1.00
H392   H     0.28270   0.00149   0.14638   0.00000  Uiso   1.00
H393   H     0.25948   0.08901   0.23807   0.00000  Uiso   1.00
H394   H     0.26197   0.87685   0.16503   0.00000  Uiso   1.00
H395   H     0.31404   0.04073   0.02847   0.00000  Uiso   1.00
H396   H     0.25361   0.18260   0.35165   0.00000  Uiso   1.00
H397   H     0.25886   0.73526   0.19764   0.00000  Uiso   1.00
H398   H     0.36866   0.08082   0.90967   0.00000  Uiso   1.00
H399   H     0.43582   0.97513   0.23820   0.00000  Uiso   1.00
H400   H     0.42101   0.06121   0.33493   0.00000  Uiso   1.00
H401   H     0.42350   0.84905   0.26190   0.00000  Uiso   1.00
H402   H     0.47557   0.01293   0.12534   0.00000  Uiso   1.00
H403   H     0.38471   0.16003   0.43027   0.00000  Uiso   1.00
H404   H     0.38996   0.71269   0.27625   0.00000  Uiso   1.00
H405   H     0.49976   0.05825   0.98829   0.00000  Uiso   1.00
O406   O     0.30664   0.22840   0.45295   0.00000  Uiso   1.00
O407   O     0.31354   0.64150   0.25087   0.00000  Uiso   1.00
O408   O     0.45759   0.09487   0.87307   0.00000  Uiso   1.00
N409   N     0.28650   0.16549   0.35687   0.00000  Uiso   1.00
N410   N     0.29141   0.74725   0.21289   0.00000  Uiso   1.00
N411   N     0.39406   0.07030   0.94365   0.00000  Uiso   1.00
N412   N     0.35704   0.15334   0.39918   0.00000  Uiso   1.00
N413   N     0.36195   0.73511   0.25519   0.00000  Uiso   1.00
N414   N     0.46461   0.05816   0.98596   0.00000  Uiso   1.00
C415   C     0.31538   0.51119   0.49742   0.00000  Uiso   1.00
C416   C     0.32454   0.46660   0.43556   0.00000  Uiso   1.00
C417   C     0.29255   0.42323   0.40591   0.00000  Uiso   1.00
C418   C     0.30770   0.38680   0.34964   0.00000  Uiso   1.00
C419   C     0.31500   0.31656   0.25747   0.00000  Uiso   1.00
C420   C     0.32629   0.58218   0.47423   0.00000  Uiso   1.00
C421   C     0.29578   0.63599   0.47710   0.00000  Uiso   1.00
C422   C     0.31242   0.69686   0.45338   0.00000  Uiso   1.00
C423   C     0.32245   0.80607   0.42129   0.00000  Uiso   1.00
C424   C     0.35271   0.49331   0.55010   0.00000  Uiso   1.00
C425   C     0.34442   0.47242   0.61678   0.00000  Uiso   1.00
C426   C     0.38330   0.45848   0.65695   0.00000  Uiso   1.00
C427   C     0.43435   0.42971   0.74267   0.00000  Uiso   1.00
C428   C     0.39917   0.52361   0.45020   0.00000  Uiso   1.00
C429   C     0.37005   0.47335   0.40991   0.00000  Uiso   1.00
C430   C     0.38526   0.43697   0.35367   0.00000  Uiso   1.00
C431   C     0.35330   0.39355   0.32394   0.00000  Uiso   1.00
C432   C     0.37180   0.58893   0.44858   0.00000  Uiso   1.00
C433   C     0.38849   0.64973   0.42485   0.00000  Uiso   1.00
C434   C     0.35801   0.70362   0.42769   0.00000  Uiso   1.00
C435   C     0.39823   0.50005   0.52446   0.00000  Uiso   1.00
C436   C     0.43713   0.48615   0.56453   0.00000  Uiso   1.00
C437   C     0.42889   0.46524   0.63126   0.00000  Uiso   1.00
H438   H     0.27994   0.50595   0.51739   0.00000  Uiso   1.00
H439   H     0.25733   0.41803   0.42578   0.00000  Uiso   1.00
H440   H     0.26057   0.63076   0.49696   0.00000  Uiso   1.00
H441   H     0.30920   0.46721   0.63661   0.00000  Uiso   1.00
H442   H     0.25233   0.32355   0.31288   0.00000  Uiso   1.00
H443   H     0.25916   0.77211   0.46299   0.00000  Uiso   1.00
H444   H     0.36170   0.42723   0.75749   0.00000  Uiso   1.00
H445   H     0.43460   0.52886   0.43023   0.00000  Uiso   1.00
H446   H     0.42048   0.44220   0.33383   0.00000  Uiso   1.00
H447   H     0.42371   0.65493   0.40501   0.00000  Uiso   1.00
H448   H     0.47234   0.49138   0.54467   0.00000  Uiso   1.00
H449   H     0.38475   0.34317   0.23825   0.00000  Uiso   1.00
H450   H     0.39157   0.79173   0.38837   0.00000  Uiso   1.00
H451   H     0.49411   0.44684   0.68286   0.00000  Uiso   1.00
O452   O     0.30645   0.27596   0.21371   0.00000  Uiso   1.00
O453   O     0.31541   0.86445   0.41067   0.00000  Uiso   1.00
O454   O     0.44994   0.41197   0.79703   0.00000  Uiso   1.00
N455   N     0.28544   0.34005   0.30855   0.00000  Uiso   1.00
N456   N     0.29181   0.75943   0.44889   0.00000  Uiso   1.00
N457   N     0.38768   0.43701   0.72422   0.00000  Uiso   1.00
N458   N     0.35669   0.35061   0.26839   0.00000  Uiso   1.00
N459   N     0.36307   0.76998   0.40873   0.00000  Uiso   1.00
N460   N     0.45893   0.44756   0.68407   0.00000  Uiso   1.00
C461   C     0.18222   0.50455   0.66742   0.00000  Uiso   1.00
C462   C     0.17360   0.46065   0.72996   0.00000  Uiso   1.00
C463   C     0.20565   0.41698   0.75899   0.00000  Uiso   1.00
C464   C     0.19103   0.38130   0.81607   0.00000  Uiso   1.00
C465   C     0.18451   0.31197   0.90910   0.00000  Uiso   1.00
C466   C     0.17225   0.57592   0.69029   0.00000  Uiso   1.00
C467   C     0.20316   0.62916   0.68595   0.00000  Uiso   1.00
C468   C     0.18740   0.69052   0.70963   0.00000  Uiso   1.00
C469   C     0.17877   0.80016   0.74102   0.00000  Uiso   1.00
C470   C     0.14396   0.48687   0.61609   0.00000  Uiso   1.00
C471   C     0.15108   0.46527   0.54936   0.00000  Uiso   1.00
C472   C     0.11150   0.45167   0.51057   0.00000  Uiso   1.00
C473   C     0.05895   0.42306   0.42676   0.00000  Uiso   1.00
C474   C     0.09926   0.51883   0.71716   0.00000  Uiso   1.00
C475   C     0.12854   0.46841   0.75698   0.00000  Uiso   1.00
C476   C     0.11386   0.43278   0.81403   0.00000  Uiso   1.00
C477   C     0.14589   0.38906   0.84314   0.00000  Uiso   1.00
C478   C     0.12719   0.58368   0.71731   0.00000  Uiso   1.00
C479   C     0.11138   0.64497   0.74099   0.00000  Uiso   1.00
C480   C     0.14226   0.69829   0.73670   0.00000  Uiso   1.00
C481   C     0.09890   0.49463   0.64311   0.00000  Uiso   1.00
C482   C     0.05930   0.48106   0.60441   0.00000  Uiso   1.00
C483   C     0.06636   0.45944   0.53764   0.00000  Uiso   1.00
H484   H     0.21730   0.49851   0.64638   0.00000  Uiso   1.00
H485   H     0.24052   0.41099   0.73807   0.00000  Uiso   1.00
H486   H     0.23803   0.62315   0.66503   0.00000  Uiso   1.00
H487   H     0.18596   0.45927   0.52847   0.00000  Uiso   1.00
H488   H     0.24639   0.31740   0.85165   0.00000  Uiso   1.00
H489   H     0.24114   0.76474   0.69764   0.00000  Uiso   1.00
H490   H     0.13134   0.41918   0.40967   0.00000  Uiso   1.00
H491   H     0.06418   0.52487   0.73820   0.00000  Uiso   1.00
H492   H     0.07899   0.43879   0.83493   0.00000  Uiso   1.00
H493   H     0.07650   0.65095   0.76190   0.00000  Uiso   1.00
H494   H     0.02443   0.48707   0.62534   0.00000  Uiso   1.00
H495   H     0.11529   0.33997   0.93027   0.00000  Uiso   1.00
H496   H     0.11004   0.78731   0.77625   0.00000  Uiso   1.00
H497   H     0.00024   0.44175   0.48829   0.00000  Uiso   1.00
O498   O     0.19336   0.27160   0.95295   0.00000  Uiso   1.00
O499   O     0.18646   0.85850   0.75087   0.00000  Uiso   1.00
O500   O     0.04241   0.40513   0.37307   0.00000  Uiso   1.00
N501   N     0.21350   0.33451   0.85687   0.00000  Uiso   1.00
N502   N     0.20859   0.75275   0.71289   0.00000  Uiso   1.00
N503   N     0.10594   0.42970   0.44365   0.00000  Uiso   1.00
N504   N     0.14296   0.34666   0.89918   0.00000  Uiso   1.00
N505   N     0.13805   0.76489   0.75519   0.00000  Uiso   1.00
N506   N     0.03539   0.44184   0.48596   0.00000  Uiso   1.00
C507   C     0.18462   0.98881   0.99742   0.00000  Uiso   1.00
C508   C     0.17546   0.03340   0.93556   0.00000  Uiso   1.00
C509   C     0.20745   0.07677   0.90591   0.00000  Uiso   1.00
C510   C     0.19230   0.11320   0.84964   0.00000  Uiso   1.00
C511   C     0.18500   0.18344   0.75747   0.00000  Uiso   1.00
C512   C     0.17371   0.91782   0.97423   0.00000  Uiso   1.00
C513   C     0.20422   0.86401   0.97710   0.00000  Uiso   1.00
C514   C     0.18758   0.80314   0.95338   0.00000  Uiso   1.00
C515   C     0.17755   0.69393   0.92129   0.00000  Uiso   1.00
C516   C     0.14729   0.00669   0.05010   0.00000  Uiso   1.00
C517   C     0.15558   0.02758   0.11678   0.00000  Uiso   1.00
C518   C     0.11670   0.04152   0.15695   0.00000  Uiso   1.00
C519   C     0.06565   0.07029   0.24267   0.00000  Uiso   1.00
C520   C     0.10083   0.97639   0.95020   0.00000  Uiso   1.00
C521   C     0.12995   0.02665   0.90991   0.00000  Uiso   1.00
C522   C     0.11474   0.06303   0.85367   0.00000  Uiso   1.00
C523   C     0.14670   0.10645   0.82394   0.00000  Uiso   1.00
C524   C     0.12820   0.91107   0.94858   0.00000  Uiso   1.00
C525   C     0.11151   0.85027   0.92485   0.00000  Uiso   1.00
C526   C     0.14199   0.79638   0.92769   0.00000  Uiso   1.00
C527   C     0.10177   0.99995   0.02446   0.00000  Uiso   1.00
C528   C     0.06287   0.01385   0.06453   0.00000  Uiso   1.00
C529   C     0.07111   0.03476   0.13126   0.00000  Uiso   1.00
H530   H     0.22006   0.99405   0.01739   0.00000  Uiso   1.00
H531   H     0.24267   0.08197   0.92578   0.00000  Uiso   1.00
H532   H     0.23943   0.86924   0.99696   0.00000  Uiso   1.00
H533   H     0.19080   0.03279   0.13661   0.00000  Uiso   1.00
H534   H     0.24767   0.17645   0.81288   0.00000  Uiso   1.00
H535   H     0.24084   0.72789   0.96299   0.00000  Uiso   1.00
H536   H     0.13830   0.07277   0.25749   0.00000  Uiso   1.00
H537   H     0.06540   0.97114   0.93023   0.00000  Uiso   1.00
H538   H     0.07952   0.05780   0.83383   0.00000  Uiso   1.00
H539   H     0.07629   0.84507   0.90501   0.00000  Uiso   1.00
H540   H     0.02766   0.00862   0.04467   0.00000  Uiso   1.00
H541   H     0.11525   0.15683   0.73825   0.00000  Uiso   1.00
H542   H     0.10843   0.70827   0.88837   0.00000  Uiso   1.00
H543   H     0.00589   0.05316   0.18286   0.00000  Uiso   1.00
O544   O     0.19355   0.22404   0.71371   0.00000  Uiso   1.00
O545   O     0.18459   0.63555   0.91067   0.00000  Uiso   1.00
O546   O     0.05006   0.08803   0.29703   0.00000  Uiso   1.00
N547   N     0.21456   0.15995   0.80855   0.00000  Uiso   1.00
N548   N     0.20819   0.74057   0.94889   0.00000  Uiso   1.00
N549   N     0.11232   0.06299   0.22422   0.00000  Uiso   1.00
N550   N     0.14331   0.14939   0.76839   0.00000  Uiso   1.00
N551   N     0.13693   0.73002   0.90873   0.00000  Uiso   1.00
N552   N     0.04107   0.05244   0.18407   0.00000  Uiso   1.00
C553   C     0.68222   0.99545   0.33258   0.00000  Uiso   1.00
C554   C     0.67360   0.03935   0.27004   0.00000  Uiso   1.00
C555   C     0.70565   0.08302   0.24101   0.00000  Uiso   1.00
C556   C     0.69103   0.11870   0.18393   0.00000  Uiso   1.00
C557   C     0.68451   0.18803   0.09090   0.00000  Uiso   1.00
C558   C     0.67225   0.92408   0.30971   0.00000  Uiso   1.00
C559   C     0.70316   0.87084   0.31405   0.00000  Uiso   1.00
C560   C     0.68740   0.80948   0.29037   0.00000  Uiso   1.00
C561   C     0.67877   0.69984   0.25898   0.00000  Uiso   1.00
C562   C     0.64396   0.01313   0.38391   0.00000  Uiso   1.00
C563   C     0.65108   0.03473   0.45064   0.00000  Uiso   1.00
C564   C     0.61150   0.04833   0.48943   0.00000  Uiso   1.00
C565   C     0.55895   0.07694   0.57324   0.00000  Uiso   1.00
C566   C     0.59926   0.98117   0.28284   0.00000  Uiso   1.00
C567   C     0.62854   0.03159   0.24302   0.00000  Uiso   1.00
C568   C     0.61386   0.06722   0.18597   0.00000  Uiso   1.00
C569   C     0.64589   0.11094   0.15686   0.00000  Uiso   1.00
C570   C     0.62719   0.91632   0.28269   0.00000  Uiso   1.00
C571   C     0.61138   0.85503   0.25901   0.00000  Uiso   1.00
C572   C     0.64226   0.80171   0.26330   0.00000  Uiso   1.00
C573   C     0.59890   0.00537   0.35689   0.00000  Uiso   1.00
C574   C     0.55930   0.01894   0.39559   0.00000  Uiso   1.00
C575   C     0.56636   0.04056   0.46236   0.00000  Uiso   1.00
H576   H     0.71730   0.00149   0.35362   0.00000  Uiso   1.00
H577   H     0.74052   0.08901   0.26193   0.00000  Uiso   1.00
H578   H     0.73803   0.87685   0.33497   0.00000  Uiso   1.00
H579   H     0.68596   0.04073   0.47153   0.00000  Uiso   1.00
H580   H     0.74639   0.18260   0.14835   0.00000  Uiso   1.00
H581   H     0.74114   0.73526   0.30236   0.00000  Uiso   1.00
H582   H     0.63134   0.08082   0.59033   0.00000  Uiso   1.00
H583   H     0.56418   0.97513   0.26180   0.00000  Uiso   1.00
H584   H     0.57899   0.06121   0.16507   0.00000  Uiso   1.00
H585   H     0.57650   0.84905   0.23810   0.00000  Uiso   1.00
H586   H     0.52443   0.01293   0.37466   0.00000  Uiso   1.00
H587   H     0.61529   0.16003   0.06973   0.00000  Uiso   1.00
H588   H     0.61004   0.71269   0.22375   0.00000  Uiso   1.00
H589   H     0.50024   0.05825   0.51171   0.00000  Uiso   1.00
O590   O     0.69336   0.22840   0.04705   0.00000  Uiso   1.00
O591   O     0.68646   0.64150   0.24913   0.00000  Uiso   1.00
O592   O     0.54241   0.09487   0.62693   0.00000  Uiso   1.00
N593   N     0.71350   0.16549   0.14313   0.00000  Uiso   1.00
N594   N     0.70859   0.74725   0.28711   0.00000  Uiso   1.00
N595   N     0.60594   0.07030   0.55635   0.00000  Uiso   1.00
N596   N     0.64296   0.15334   0.10082   0.00000  Uiso   1.00
N597   N     0.63805   0.73511   0.24481   0.00000  Uiso   1.00
N598   N     0.53539   0.05816   0.51404   0.00000  Uiso   1.00
C599   C     0.68462   0.51119   0.00258   0.00000  Uiso   1.00
C600   C     0.67546   0.46660   0.06444   0.00000  Uiso   1.00
C601   C     0.70745   0.42323   0.09409   0.00000  Uiso   1.00
C602   C     0.69230   0.38680   0.15036   0.00000  Uiso   1.00
C603   C     0.68500   0.31656   0.24253   0.00000  Uiso   1.00
C604   C     0.67371   0.58218   0.02577   0.00000  Uiso   1.00
C605   C     0.70422   0.63599   0.02290   0.00000  Uiso   1.00
C606   C     0.68758   0.69686   0.04662   0.00000  Uiso   1.00
C607   C     0.67755   0.80607   0.07871   0.00000  Uiso   1.00
C608   C     0.64729   0.49331   0.94990   0.00000  Uiso   1.00
C609   C     0.65558   0.47242   0.88322   0.00000  Uiso   1.00
C610   C     0.61670   0.45848   0.84305   0.00000  Uiso   1.00
C611   C     0.56565   0.42971   0.75733   0.00000  Uiso   1.00
C612   C     0.60083   0.52361   0.04980   0.00000  Uiso   1.00
C613   C     0.62995   0.47335   0.09009   0.00000  Uiso   1.00
C614   C     0.61474   0.43697   0.14633   0.00000  Uiso   1.00
C615   C     0.64670   0.39355   0.17606   0.00000  Uiso   1.00
C616   C     0.62820   0.58893   0.05142   0.00000  Uiso   1.00
C617   C     0.61151   0.64973   0.07515   0.00000  Uiso   1.00
C618   C     0.64199   0.70362   0.07231   0.00000  Uiso   1.00
C619   C     0.60177   0.50005   0.97554   0.00000  Uiso   1.00
C620   C     0.56287   0.48615   0.93547   0.00000  Uiso   1.00
C621   C     0.57111   0.46524   0.86874   0.00000  Uiso   1.00
H622   H     0.72006   0.50595   0.98261   0.00000  Uiso   1.00
H623   H     0.74267   0.41803   0.07422   0.00000  Uiso   1.00
H624   H     0.73943   0.63076   0.00304   0.00000  Uiso   1.00
H625   H     0.69080   0.46721   0.86339   0.00000  Uiso   1.00
H626   H     0.74767   0.32355   0.18712   0.00000  Uiso   1.00
H627   H     0.74084   0.77211   0.03701   0.00000  Uiso   1.00
H628   H     0.63830   0.42723   0.74251   0.00000  Uiso   1.00
H629   H     0.56540   0.52886   0.06977   0.00000  Uiso   1.00
H630   H     0.57952   0.44220   0.16617   0.00000  Uiso   1.00
H631   H     0.57629   0.65493   0.09499   0.00000  Uiso   1.00
H632   H     0.52766   0.49138   0.95533   0.00000  Uiso   1.00
H633   H     0.61525   0.34317   0.26175   0.00000  Uiso   1.00
H634   H     0.60843   0.79173   0.11163   0.00000  Uiso   1.00
H635   H     0.50589   0.44684   0.81714   0.00000  Uiso   1.00
O636   O     0.69355   0.27596   0.28629   0.00000  Uiso   1.00
O637   O     0.68459   0.86445   0.08933   0.00000  Uiso   1.00
O638   O     0.55006   0.41197   0.70297   0.00000  Uiso   1.00
N639   N     0.71456   0.34005   0.19145   0.00000  Uiso   1.00
N640   N     0.70819   0.75943   0.05111   0.00000  Uiso   1.00
N641   N     0.61232   0.43701   0.77578   0.00000  Uiso   1.00
N642   N     0.64331   0.35061   0.23161   0.00000  Uiso   1.00
N643   N     0.63693   0.76998   0.09127   0.00000  Uiso   1.00
N644   N     0.54107   0.44756   0.81593   0.00000  Uiso   1.00
C645   C     0.81778   0.50455   0.83258   0.00000  Uiso   1.00
C646   C     0.82640   0.46065   0.77004   0.00000  Uiso   1.00
C647   C     0.79435   0.41698   0.74101   0.00000  Uiso   1.00
C648   C     0.80897   0.38130   0.68393   0.00000  Uiso   1.00
C649   C     0.81549   0.31197   0.59090   0.00000  Uiso   1.00
C650   C     0.82775   0.57592   0.80971   0.00000  Uiso   1.00
C651   C     0.79684   0.62916   0.81405   0.00000  Uiso   1.00
C652   C     0.81260   0.69052   0.79037   0.00000  Uiso   1.00
C653   C     0.82123   0.80016   0.75898   0.00000  Uiso   1.00
C654   C     0.85604   0.48687   0.88391   0.00000  Uiso   1.00
C655   C     0.84892   0.46527   0.95064   0.00000  Uiso   1.00
C656   C     0.88850   0.45167   0.98943   0.00000  Uiso   1.00
C657   C     0.94105   0.42306   0.07324   0.00000  Uiso   1.00
C658   C     0.90074   0.51883   0.78284   0.00000  Uiso   1.00
C659   C     0.87146   0.46841   0.74302   0.00000  Uiso   1.00
C660   C     0.88614   0.43278   0.68597   0.00000  Uiso   1.00
C661   C     0.85411   0.38906   0.65686   0.00000  Uiso   1.00
C662   C     0.87281   0.58368   0.78269   0.00000  Uiso   1.00
C663   C     0.88862   0.64497   0.75901   0.00000  Uiso   1.00
C664   C     0.85774   0.69829   0.76330   0.00000  Uiso   1.00
C665   C     0.90110   0.49463   0.85689   0.00000  Uiso   1.00
C666   C     0.94070   0.48106   0.89559   0.00000  Uiso   1.00
C667   C     0.93364   0.45944   0.96236   0.00000  Uiso   1.00
H668   H     0.78270   0.49851   0.85362   0.00000  Uiso   1.00
H669   H     0.75948   0.41099   0.76193   0.00000  Uiso   1.00
H670   H     0.76197   0.62315   0.83497   0.00000  Uiso   1.00
H671   H     0.81404   0.45927   0.97153   0.00000  Uiso   1.00
H672   H     0.75361   0.31740   0.64835   0.00000  Uiso   1.00
H673   H     0.75886   0.76474   0.80236   0.00000  Uiso   1.00
H674   H     0.86866   0.41918   0.09033   0.00000  Uiso   1.00
H675   H     0.93582   0.52487   0.76180   0.00000  Uiso   1.00
H676   H     0.92101   0.43879   0.66507   0.00000  Uiso   1.00
H677   H     0.92350   0.65095   0.73810   0.00000  Uiso   1.00
H678   H     0.97557   0.48707   0.87466   0.00000  Uiso   1.00
H679   H     0.88471   0.33997   0.56973   0.00000  Uiso   1.00
H680   H     0.88996   0.78731   0.72375   0.00000  Uiso   1.00
H681   H     0.99976   0.44175   0.01171   0.00000  Uiso   1.00
O682   O     0.80664   0.27160   0.54705   0.00000  Uiso   1.00
O683   O     0.81354   0.85850   0.74913   0.00000  Uiso   1.00
O684   O     0.95759   0.40513   0.12693   0.00000  Uiso   1.00
N685   N     0.78650   0.33451   0.64313   0.00000  Uiso   1.00
N686   N     0.79141   0.75275   0.78711   0.00000  Uiso   1.00
N687   N     0.89406   0.42970   0.05635   0.00000  Uiso   1.00
N688   N     0.85704   0.34666   0.60082   0.00000  Uiso   1.00
N689   N     0.86195   0.76489   0.74481   0.00000  Uiso   1.00
N690   N     0.96461   0.44184   0.01404   0.00000  Uiso   1.00
C691   C     0.81538   0.98881   0.50258   0.00000  Uiso   1.00
C692   C     0.82454   0.03340   0.56444   0.00000  Uiso   1.00
C693   C     0.79255   0.07677   0.59409   0.00000  Uiso   1.00
C694   C     0.80770   0.11320   0.65036   0.00000  Uiso   1.00
C695   C     0.81500   0.18344   0.74253   0.00000  Uiso   1.00
C696   C     0.82629   0.91782   0.52577   0.00000  Uiso   1.00
C697   C     0.79578   0.86401   0.52290   0.00000  Uiso   1.00
C698   C     0.81242   0.80314   0.54662   0.00000  Uiso   1.00
C699   C     0.82245   0.69393   0.57871   0.00000  Uiso   1.00
C700   C     0.85271   0.00669   0.44990   0.00000  Uiso   1.00
C701   C     0.84442   0.02758   0.38322   0.00000  Uiso   1.00
C702   C     0.88330   0.04152   0.34305   0.00000  Uiso   1.00
C703   C     0.93435   0.07029   0.25733   0.00000  Uiso   1.00
C704   C     0.89917   0.97639   0.54980   0.00000  Uiso   1.00
C705   C     0.87005   0.02665   0.59009   0.00000  Uiso   1.00
C706   C     0.88526   0.06303   0.64633   0.00000  Uiso   1.00
C707   C     0.85330   0.10645   0.67606   0.00000  Uiso   1.00
C708   C     0.87180   0.91107   0.55142   0.00000  Uiso   1.00
C709   C     0.88849   0.85027   0.57515   0.00000  Uiso   1.00
C710   C     0.85801   0.79638   0.57231   0.00000  Uiso   1.00
C711   C     0.89823   0.99995   0.47554   0.00000  Uiso   1.00
C712   C     0.93713   0.01385   0.43547   0.00000  Uiso   1.00
C713   C     0.92889   0.03476   0.36874   0.00000  Uiso   1.00
H714   H     0.77994   0.99405   0.48261   0.00000  Uiso   1.00
H715   H     0.75733   0.08197   0.57422   0.00000  Uiso   1.00
H716   H     0.76057   0.86924   0.50304   0.00000  Uiso   1.00
H717   H     0.80920   0.03279   0.36339   0.00000  Uiso   1.00
H718   H     0.75233   0.17645   0.68712   0.00000  Uiso   1.00
H719   H     0.75916   0.72789   0.53701   0.00000  Uiso   1.00
H720   H     0.86170   0.07277   0.24251   0.00000  Uiso   1.00
H721   H     0.93460   0.97114   0.56977   0.00000  Uiso   1.00
H722   H     0.92048   0.05780   0.66617   0.00000  Uiso   1.00
H723   H     0.92371   0.84507   0.59499   0.00000  Uiso   1.00
H724   H     0.97234   0.00862   0.45533   0.00000  Uiso   1.00
H725   H     0.88475   0.15683   0.76175   0.00000  Uiso   1.00
H726   H     0.89157   0.70827   0.61163   0.00000  Uiso   1.00
H727   H     0.99411   0.05316   0.31714   0.00000  Uiso   1.00
O728   O     0.80645   0.22404   0.78629   0.00000  Uiso   1.00
O729   O     0.81541   0.63555   0.58933   0.00000  Uiso   1.00
O730   O     0.94994   0.08803   0.20297   0.00000  Uiso   1.00
N731   N     0.78544   0.15995   0.69145   0.00000  Uiso   1.00
N732   N     0.79181   0.74057   0.55111   0.00000  Uiso   1.00
N733   N     0.88768   0.06299   0.27578   0.00000  Uiso   1.00
N734   N     0.85669   0.14939   0.73161   0.00000  Uiso   1.00
N735   N     0.86307   0.73002   0.59127   0.00000  Uiso   1.00
N736   N     0.95893   0.05244   0.31593   0.00000  Uiso   1.00
