data_job_03098
_audit_creation_date              2018-12-19
_audit_creation_method            'Materials Studio'
_symmetry_space_group_name_H-M    'P1'
_symmetry_Int_Tables_number       1
_symmetry_cell_setting            triclinic
loop_
_symmetry_equiv_pos_as_xyz
  x,y,z
_cell_length_a                    32.0227
_cell_length_b                    32.0227
_cell_length_c                    12.0831
_cell_angle_alpha                 90.0000
_cell_angle_beta                  90.0000
_cell_angle_gamma                 90.0000
loop_
_atom_site_label
_atom_site_type_symbol
_atom_site_fract_x
_atom_site_fract_y
_atom_site_fract_z
_atom_site_U_iso_or_equiv
_atom_site_adp_type
_atom_site_occupancy
C1     C     0.09614   0.18581   0.63620   0.00000  Uiso   1.00
C2     C     0.09307   0.23274   0.65601   0.00000  Uiso   1.00
C3     C     0.06881   0.25200   0.73634   0.00000  Uiso   1.00
C4     C     0.07028   0.29530   0.74106   0.00000  Uiso   1.00
C5     C     0.06172   0.36465   0.78289   0.00000  Uiso   1.00
C6     C     0.08432   0.17895   0.51531   0.00000  Uiso   1.00
C7     C     0.05271   0.15299   0.47733   0.00000  Uiso   1.00
C8     C     0.04681   0.15101   0.36361   0.00000  Uiso   1.00
C9     C     0.02468   0.13683   0.18699   0.00000  Uiso   1.00
C10    C     0.14238   0.17494   0.64515   0.00000  Uiso   1.00
C11    C     0.15959   0.14560   0.71633   0.00000  Uiso   1.00
C12    C     0.20258   0.14024   0.71191   0.00000  Uiso   1.00
C13    C     0.27060   0.11984   0.73690   0.00000  Uiso   1.00
C14    C     0.14188   0.22843   0.50177   0.00000  Uiso   1.00
C15    C     0.11791   0.25589   0.58299   0.00000  Uiso   1.00
C16    C     0.11942   0.29917   0.58760   0.00000  Uiso   1.00
C17    C     0.09518   0.31849   0.66792   0.00000  Uiso   1.00
C18    C     0.10916   0.20210   0.44229   0.00000  Uiso   1.00
C19    C     0.10332   0.20015   0.32860   0.00000  Uiso   1.00
C20    C     0.07171   0.17420   0.29046   0.00000  Uiso   1.00
C21    C     0.16723   0.19810   0.57214   0.00000  Uiso   1.00
C22    C     0.21020   0.19277   0.56760   0.00000  Uiso   1.00
C23    C     0.22747   0.16343   0.63876   0.00000  Uiso   1.00
H24    H     0.07679   0.16778   0.69305   0.00000  Uiso   1.00
H25    H     0.04959   0.23408   0.79282   0.00000  Uiso   1.00
H26    H     0.03349   0.13508   0.53386   0.00000  Uiso   1.00
H27    H     0.14035   0.12769   0.77282   0.00000  Uiso   1.00
H28    H     0.03037   0.31779   0.87122   0.00000  Uiso   1.00
H29    H     0.99643   0.10904   0.32517   0.00000  Uiso   1.00
H30    H     0.22178   0.09346   0.82908   0.00000  Uiso   1.00
H31    H     0.16123   0.24646   0.44492   0.00000  Uiso   1.00
H32    H     0.13865   0.31707   0.53108   0.00000  Uiso   1.00
H33    H     0.12255   0.21807   0.27212   0.00000  Uiso   1.00
H34    H     0.22942   0.21069   0.51108   0.00000  Uiso   1.00
H35    H     0.10266   0.38515   0.65877   0.00000  Uiso   1.00
H36    H     0.06872   0.17640   0.11273   0.00000  Uiso   1.00
H37    H     0.29407   0.16083   0.61664   0.00000  Uiso   1.00
O38    O     0.05013   0.39650   0.82613   0.00000  Uiso   1.00
O39    O     0.00561   0.12262   0.10975   0.00000  Uiso   1.00
O40    O     0.30126   0.10219   0.77086   0.00000  Uiso   1.00
N41    N     0.05048   0.32395   0.80941   0.00000  Uiso   1.00
N42    N     0.01875   0.12878   0.29889   0.00000  Uiso   1.00
N43    N     0.22943   0.11422   0.76998   0.00000  Uiso   1.00
N44    N     0.08938   0.36020   0.69509   0.00000  Uiso   1.00
N45    N     0.05765   0.16503   0.18458   0.00000  Uiso   1.00
N46    N     0.26833   0.15046   0.65567   0.00000  Uiso   1.00
C47    C     0.59614   0.68581   0.13620   0.00000  Uiso   1.00
C48    C     0.59307   0.73274   0.15601   0.00000  Uiso   1.00
C49    C     0.56881   0.75200   0.23634   0.00000  Uiso   1.00
C50    C     0.57028   0.79530   0.24106   0.00000  Uiso   1.00
C51    C     0.56172   0.86465   0.28289   0.00000  Uiso   1.00
C52    C     0.58432   0.67895   0.01531   0.00000  Uiso   1.00
C53    C     0.55271   0.65299   0.97733   0.00000  Uiso   1.00
C54    C     0.54681   0.65101   0.86361   0.00000  Uiso   1.00
C55    C     0.52468   0.63683   0.68699   0.00000  Uiso   1.00
C56    C     0.64238   0.67494   0.14515   0.00000  Uiso   1.00
C57    C     0.65959   0.64560   0.21633   0.00000  Uiso   1.00
C58    C     0.70258   0.64024   0.21191   0.00000  Uiso   1.00
C59    C     0.77060   0.61984   0.23690   0.00000  Uiso   1.00
C60    C     0.64188   0.72843   0.00177   0.00000  Uiso   1.00
C61    C     0.61791   0.75589   0.08299   0.00000  Uiso   1.00
C62    C     0.61942   0.79917   0.08760   0.00000  Uiso   1.00
C63    C     0.59518   0.81849   0.16792   0.00000  Uiso   1.00
C64    C     0.60916   0.70210   0.94229   0.00000  Uiso   1.00
C65    C     0.60332   0.70015   0.82860   0.00000  Uiso   1.00
C66    C     0.57171   0.67420   0.79046   0.00000  Uiso   1.00
C67    C     0.66723   0.69810   0.07214   0.00000  Uiso   1.00
C68    C     0.71020   0.69277   0.06760   0.00000  Uiso   1.00
C69    C     0.72747   0.66343   0.13876   0.00000  Uiso   1.00
H70    H     0.57679   0.66778   0.19305   0.00000  Uiso   1.00
H71    H     0.54959   0.73408   0.29282   0.00000  Uiso   1.00
H72    H     0.53349   0.63508   0.03386   0.00000  Uiso   1.00
H73    H     0.64035   0.62769   0.27282   0.00000  Uiso   1.00
H74    H     0.53037   0.81779   0.37122   0.00000  Uiso   1.00
H75    H     0.49643   0.60904   0.82517   0.00000  Uiso   1.00
H76    H     0.72178   0.59346   0.32908   0.00000  Uiso   1.00
H77    H     0.66123   0.74646   0.94492   0.00000  Uiso   1.00
H78    H     0.63865   0.81707   0.03108   0.00000  Uiso   1.00
H79    H     0.62255   0.71807   0.77212   0.00000  Uiso   1.00
H80    H     0.72942   0.71069   0.01108   0.00000  Uiso   1.00
H81    H     0.60266   0.88515   0.15877   0.00000  Uiso   1.00
H82    H     0.56872   0.67640   0.61273   0.00000  Uiso   1.00
H83    H     0.79407   0.66083   0.11664   0.00000  Uiso   1.00
O84    O     0.55013   0.89650   0.32613   0.00000  Uiso   1.00
O85    O     0.50561   0.62262   0.60975   0.00000  Uiso   1.00
O86    O     0.80126   0.60219   0.27086   0.00000  Uiso   1.00
N87    N     0.55048   0.82395   0.30941   0.00000  Uiso   1.00
N88    N     0.51875   0.62878   0.79889   0.00000  Uiso   1.00
N89    N     0.72943   0.61422   0.26998   0.00000  Uiso   1.00
N90    N     0.58938   0.86020   0.19509   0.00000  Uiso   1.00
N91    N     0.55765   0.66503   0.68458   0.00000  Uiso   1.00
N92    N     0.76833   0.65046   0.15567   0.00000  Uiso   1.00
C93    C     0.40386   0.31419   0.13620   0.00000  Uiso   1.00
C94    C     0.40693   0.26726   0.15601   0.00000  Uiso   1.00
C95    C     0.43119   0.24800   0.23634   0.00000  Uiso   1.00
C96    C     0.42972   0.20470   0.24106   0.00000  Uiso   1.00
C97    C     0.43828   0.13535   0.28289   0.00000  Uiso   1.00
C98    C     0.41568   0.32105   0.01531   0.00000  Uiso   1.00
C99    C     0.44729   0.34701   0.97733   0.00000  Uiso   1.00
C100   C     0.45319   0.34899   0.86361   0.00000  Uiso   1.00
C101   C     0.47532   0.36317   0.68699   0.00000  Uiso   1.00
C102   C     0.35762   0.32506   0.14515   0.00000  Uiso   1.00
C103   C     0.34041   0.35440   0.21633   0.00000  Uiso   1.00
C104   C     0.29742   0.35976   0.21191   0.00000  Uiso   1.00
C105   C     0.22940   0.38016   0.23690   0.00000  Uiso   1.00
C106   C     0.35812   0.27157   0.00177   0.00000  Uiso   1.00
C107   C     0.38209   0.24411   0.08299   0.00000  Uiso   1.00
C108   C     0.38058   0.20083   0.08760   0.00000  Uiso   1.00
C109   C     0.40482   0.18151   0.16792   0.00000  Uiso   1.00
C110   C     0.39084   0.29790   0.94229   0.00000  Uiso   1.00
C111   C     0.39668   0.29985   0.82860   0.00000  Uiso   1.00
C112   C     0.42829   0.32580   0.79046   0.00000  Uiso   1.00
C113   C     0.33277   0.30190   0.07214   0.00000  Uiso   1.00
C114   C     0.28980   0.30723   0.06760   0.00000  Uiso   1.00
C115   C     0.27253   0.33657   0.13876   0.00000  Uiso   1.00
H116   H     0.42321   0.33222   0.19305   0.00000  Uiso   1.00
H117   H     0.45041   0.26592   0.29282   0.00000  Uiso   1.00
H118   H     0.46651   0.36492   0.03386   0.00000  Uiso   1.00
H119   H     0.35965   0.37231   0.27282   0.00000  Uiso   1.00
H120   H     0.46963   0.18221   0.37122   0.00000  Uiso   1.00
H121   H     0.50357   0.39096   0.82517   0.00000  Uiso   1.00
H122   H     0.27822   0.40654   0.32908   0.00000  Uiso   1.00
H123   H     0.33877   0.25354   0.94492   0.00000  Uiso   1.00
H124   H     0.36135   0.18293   0.03108   0.00000  Uiso   1.00
H125   H     0.37745   0.28193   0.77212   0.00000  Uiso   1.00
H126   H     0.27058   0.28931   0.01108   0.00000  Uiso   1.00
H127   H     0.39734   0.11485   0.15877   0.00000  Uiso   1.00
H128   H     0.43128   0.32360   0.61273   0.00000  Uiso   1.00
H129   H     0.20593   0.33917   0.11664   0.00000  Uiso   1.00
O130   O     0.44987   0.10350   0.32613   0.00000  Uiso   1.00
O131   O     0.49439   0.37738   0.60975   0.00000  Uiso   1.00
O132   O     0.19874   0.39781   0.27086   0.00000  Uiso   1.00
N133   N     0.44952   0.17605   0.30941   0.00000  Uiso   1.00
N134   N     0.48125   0.37122   0.79889   0.00000  Uiso   1.00
N135   N     0.27057   0.38578   0.26998   0.00000  Uiso   1.00
N136   N     0.41062   0.13980   0.19509   0.00000  Uiso   1.00
N137   N     0.44235   0.33497   0.68458   0.00000  Uiso   1.00
N138   N     0.23167   0.34954   0.15567   0.00000  Uiso   1.00
C139   C     0.90386   0.81419   0.63620   0.00000  Uiso   1.00
C140   C     0.90693   0.76726   0.65601   0.00000  Uiso   1.00
C141   C     0.93119   0.74800   0.73634   0.00000  Uiso   1.00
C142   C     0.92972   0.70470   0.74106   0.00000  Uiso   1.00
C143   C     0.93828   0.63535   0.78289   0.00000  Uiso   1.00
C144   C     0.91568   0.82105   0.51531   0.00000  Uiso   1.00
C145   C     0.94729   0.84701   0.47733   0.00000  Uiso   1.00
C146   C     0.95319   0.84899   0.36361   0.00000  Uiso   1.00
C147   C     0.97532   0.86317   0.18699   0.00000  Uiso   1.00
C148   C     0.85762   0.82506   0.64515   0.00000  Uiso   1.00
C149   C     0.84041   0.85440   0.71633   0.00000  Uiso   1.00
C150   C     0.79742   0.85976   0.71191   0.00000  Uiso   1.00
C151   C     0.72940   0.88016   0.73690   0.00000  Uiso   1.00
C152   C     0.85812   0.77157   0.50177   0.00000  Uiso   1.00
C153   C     0.88209   0.74411   0.58299   0.00000  Uiso   1.00
C154   C     0.88058   0.70083   0.58760   0.00000  Uiso   1.00
C155   C     0.90482   0.68151   0.66792   0.00000  Uiso   1.00
C156   C     0.89084   0.79790   0.44229   0.00000  Uiso   1.00
C157   C     0.89668   0.79985   0.32860   0.00000  Uiso   1.00
C158   C     0.92829   0.82580   0.29046   0.00000  Uiso   1.00
C159   C     0.83277   0.80190   0.57214   0.00000  Uiso   1.00
C160   C     0.78980   0.80723   0.56760   0.00000  Uiso   1.00
C161   C     0.77253   0.83657   0.63876   0.00000  Uiso   1.00
H162   H     0.92321   0.83222   0.69305   0.00000  Uiso   1.00
H163   H     0.95041   0.76592   0.79282   0.00000  Uiso   1.00
H164   H     0.96651   0.86492   0.53386   0.00000  Uiso   1.00
H165   H     0.85965   0.87231   0.77282   0.00000  Uiso   1.00
H166   H     0.96963   0.68221   0.87122   0.00000  Uiso   1.00
H167   H     0.00357   0.89096   0.32517   0.00000  Uiso   1.00
H168   H     0.77822   0.90654   0.82908   0.00000  Uiso   1.00
H169   H     0.83877   0.75354   0.44492   0.00000  Uiso   1.00
H170   H     0.86135   0.68293   0.53108   0.00000  Uiso   1.00
H171   H     0.87745   0.78193   0.27212   0.00000  Uiso   1.00
H172   H     0.77058   0.78931   0.51108   0.00000  Uiso   1.00
H173   H     0.89734   0.61485   0.65877   0.00000  Uiso   1.00
H174   H     0.93128   0.82360   0.11273   0.00000  Uiso   1.00
H175   H     0.70593   0.83917   0.61664   0.00000  Uiso   1.00
O176   O     0.94987   0.60350   0.82613   0.00000  Uiso   1.00
O177   O     0.99439   0.87738   0.10975   0.00000  Uiso   1.00
O178   O     0.69874   0.89781   0.77086   0.00000  Uiso   1.00
N179   N     0.94952   0.67605   0.80941   0.00000  Uiso   1.00
N180   N     0.98125   0.87122   0.29889   0.00000  Uiso   1.00
N181   N     0.77057   0.88578   0.76998   0.00000  Uiso   1.00
N182   N     0.91062   0.63980   0.69509   0.00000  Uiso   1.00
N183   N     0.94235   0.83497   0.18458   0.00000  Uiso   1.00
N184   N     0.73167   0.84954   0.65567   0.00000  Uiso   1.00
C185   C     0.81419   0.59614   0.88620   0.00000  Uiso   1.00
C186   C     0.76726   0.59307   0.90601   0.00000  Uiso   1.00
C187   C     0.74800   0.56881   0.98634   0.00000  Uiso   1.00
C188   C     0.70470   0.57028   0.99106   0.00000  Uiso   1.00
C189   C     0.63535   0.56172   0.03289   0.00000  Uiso   1.00
C190   C     0.82105   0.58432   0.76531   0.00000  Uiso   1.00
C191   C     0.84701   0.55271   0.72733   0.00000  Uiso   1.00
C192   C     0.84899   0.54681   0.61361   0.00000  Uiso   1.00
C193   C     0.86317   0.52468   0.43699   0.00000  Uiso   1.00
C194   C     0.82506   0.64238   0.89515   0.00000  Uiso   1.00
C195   C     0.85440   0.65959   0.96633   0.00000  Uiso   1.00
C196   C     0.85976   0.70258   0.96191   0.00000  Uiso   1.00
C197   C     0.88016   0.77060   0.98690   0.00000  Uiso   1.00
C198   C     0.77157   0.64188   0.75177   0.00000  Uiso   1.00
C199   C     0.74411   0.61791   0.83299   0.00000  Uiso   1.00
C200   C     0.70083   0.61942   0.83760   0.00000  Uiso   1.00
C201   C     0.68151   0.59518   0.91792   0.00000  Uiso   1.00
C202   C     0.79790   0.60916   0.69229   0.00000  Uiso   1.00
C203   C     0.79985   0.60332   0.57860   0.00000  Uiso   1.00
C204   C     0.82580   0.57171   0.54046   0.00000  Uiso   1.00
C205   C     0.80190   0.66723   0.82214   0.00000  Uiso   1.00
C206   C     0.80723   0.71020   0.81760   0.00000  Uiso   1.00
C207   C     0.83657   0.72747   0.88876   0.00000  Uiso   1.00
H208   H     0.83222   0.57679   0.94305   0.00000  Uiso   1.00
H209   H     0.76592   0.54959   0.04282   0.00000  Uiso   1.00
H210   H     0.86492   0.53349   0.78386   0.00000  Uiso   1.00
H211   H     0.87231   0.64035   0.02282   0.00000  Uiso   1.00
H212   H     0.68221   0.53037   0.12122   0.00000  Uiso   1.00
H213   H     0.89096   0.49643   0.57517   0.00000  Uiso   1.00
H214   H     0.90654   0.72178   0.07908   0.00000  Uiso   1.00
H215   H     0.75354   0.66123   0.69492   0.00000  Uiso   1.00
H216   H     0.68293   0.63865   0.78108   0.00000  Uiso   1.00
H217   H     0.78193   0.62255   0.52212   0.00000  Uiso   1.00
H218   H     0.78931   0.72942   0.76108   0.00000  Uiso   1.00
H219   H     0.61485   0.60266   0.90877   0.00000  Uiso   1.00
H220   H     0.82360   0.56872   0.36273   0.00000  Uiso   1.00
H221   H     0.83917   0.79407   0.86664   0.00000  Uiso   1.00
O222   O     0.60350   0.55013   0.07613   0.00000  Uiso   1.00
O223   O     0.87738   0.50561   0.35975   0.00000  Uiso   1.00
O224   O     0.89781   0.80126   0.02086   0.00000  Uiso   1.00
N225   N     0.67605   0.55048   0.05941   0.00000  Uiso   1.00
N226   N     0.87122   0.51875   0.54889   0.00000  Uiso   1.00
N227   N     0.88578   0.72943   0.01998   0.00000  Uiso   1.00
N228   N     0.63980   0.58938   0.94509   0.00000  Uiso   1.00
N229   N     0.83497   0.55765   0.43458   0.00000  Uiso   1.00
N230   N     0.84954   0.76833   0.90567   0.00000  Uiso   1.00
C231   C     0.31419   0.09614   0.38620   0.00000  Uiso   1.00
C232   C     0.26726   0.09307   0.40601   0.00000  Uiso   1.00
C233   C     0.24800   0.06881   0.48634   0.00000  Uiso   1.00
C234   C     0.20470   0.07028   0.49106   0.00000  Uiso   1.00
C235   C     0.13535   0.06172   0.53289   0.00000  Uiso   1.00
C236   C     0.32105   0.08432   0.26531   0.00000  Uiso   1.00
C237   C     0.34701   0.05271   0.22733   0.00000  Uiso   1.00
C238   C     0.34899   0.04681   0.11361   0.00000  Uiso   1.00
C239   C     0.36317   0.02468   0.93699   0.00000  Uiso   1.00
C240   C     0.32506   0.14238   0.39515   0.00000  Uiso   1.00
C241   C     0.35440   0.15959   0.46633   0.00000  Uiso   1.00
C242   C     0.35976   0.20258   0.46191   0.00000  Uiso   1.00
C243   C     0.38016   0.27060   0.48690   0.00000  Uiso   1.00
C244   C     0.27157   0.14188   0.25177   0.00000  Uiso   1.00
C245   C     0.24411   0.11791   0.33299   0.00000  Uiso   1.00
C246   C     0.20083   0.11942   0.33760   0.00000  Uiso   1.00
C247   C     0.18151   0.09518   0.41792   0.00000  Uiso   1.00
C248   C     0.29790   0.10916   0.19229   0.00000  Uiso   1.00
C249   C     0.29985   0.10332   0.07860   0.00000  Uiso   1.00
C250   C     0.32580   0.07171   0.04046   0.00000  Uiso   1.00
C251   C     0.30190   0.16723   0.32214   0.00000  Uiso   1.00
C252   C     0.30723   0.21020   0.31760   0.00000  Uiso   1.00
C253   C     0.33657   0.22747   0.38876   0.00000  Uiso   1.00
H254   H     0.33222   0.07679   0.44305   0.00000  Uiso   1.00
H255   H     0.26592   0.04959   0.54282   0.00000  Uiso   1.00
H256   H     0.36492   0.03349   0.28386   0.00000  Uiso   1.00
H257   H     0.37231   0.14035   0.52282   0.00000  Uiso   1.00
H258   H     0.18221   0.03037   0.62122   0.00000  Uiso   1.00
H259   H     0.39096   0.99643   0.07517   0.00000  Uiso   1.00
H260   H     0.40654   0.22178   0.57908   0.00000  Uiso   1.00
H261   H     0.25354   0.16123   0.19492   0.00000  Uiso   1.00
H262   H     0.18293   0.13865   0.28108   0.00000  Uiso   1.00
H263   H     0.28193   0.12255   0.02212   0.00000  Uiso   1.00
H264   H     0.28931   0.22942   0.26108   0.00000  Uiso   1.00
H265   H     0.11485   0.10266   0.40877   0.00000  Uiso   1.00
H266   H     0.32360   0.06872   0.86273   0.00000  Uiso   1.00
H267   H     0.33917   0.29407   0.36664   0.00000  Uiso   1.00
O268   O     0.10350   0.05013   0.57613   0.00000  Uiso   1.00
O269   O     0.37738   0.00561   0.85975   0.00000  Uiso   1.00
O270   O     0.39781   0.30126   0.52086   0.00000  Uiso   1.00
N271   N     0.17605   0.05048   0.55941   0.00000  Uiso   1.00
N272   N     0.37122   0.01875   0.04889   0.00000  Uiso   1.00
N273   N     0.38578   0.22943   0.51998   0.00000  Uiso   1.00
N274   N     0.13980   0.08938   0.44509   0.00000  Uiso   1.00
N275   N     0.33497   0.05765   0.93458   0.00000  Uiso   1.00
N276   N     0.34954   0.26833   0.40567   0.00000  Uiso   1.00
C277   C     0.68581   0.90386   0.38620   0.00000  Uiso   1.00
C278   C     0.73274   0.90693   0.40601   0.00000  Uiso   1.00
C279   C     0.75200   0.93119   0.48634   0.00000  Uiso   1.00
C280   C     0.79530   0.92972   0.49106   0.00000  Uiso   1.00
C281   C     0.86465   0.93828   0.53289   0.00000  Uiso   1.00
C282   C     0.67895   0.91568   0.26531   0.00000  Uiso   1.00
C283   C     0.65299   0.94729   0.22733   0.00000  Uiso   1.00
C284   C     0.65101   0.95319   0.11361   0.00000  Uiso   1.00
C285   C     0.63683   0.97532   0.93699   0.00000  Uiso   1.00
C286   C     0.67494   0.85762   0.39515   0.00000  Uiso   1.00
C287   C     0.64560   0.84041   0.46633   0.00000  Uiso   1.00
C288   C     0.64024   0.79742   0.46191   0.00000  Uiso   1.00
C289   C     0.61984   0.72940   0.48690   0.00000  Uiso   1.00
C290   C     0.72843   0.85812   0.25177   0.00000  Uiso   1.00
C291   C     0.75589   0.88209   0.33299   0.00000  Uiso   1.00
C292   C     0.79917   0.88058   0.33760   0.00000  Uiso   1.00
C293   C     0.81849   0.90482   0.41792   0.00000  Uiso   1.00
C294   C     0.70210   0.89084   0.19229   0.00000  Uiso   1.00
C295   C     0.70015   0.89668   0.07860   0.00000  Uiso   1.00
C296   C     0.67420   0.92829   0.04046   0.00000  Uiso   1.00
C297   C     0.69810   0.83277   0.32214   0.00000  Uiso   1.00
C298   C     0.69277   0.78980   0.31760   0.00000  Uiso   1.00
C299   C     0.66343   0.77253   0.38876   0.00000  Uiso   1.00
H300   H     0.66778   0.92321   0.44305   0.00000  Uiso   1.00
H301   H     0.73408   0.95041   0.54282   0.00000  Uiso   1.00
H302   H     0.63508   0.96651   0.28386   0.00000  Uiso   1.00
H303   H     0.62769   0.85965   0.52282   0.00000  Uiso   1.00
H304   H     0.81779   0.96963   0.62122   0.00000  Uiso   1.00
H305   H     0.60904   0.00357   0.07517   0.00000  Uiso   1.00
H306   H     0.59346   0.77822   0.57908   0.00000  Uiso   1.00
H307   H     0.74646   0.83877   0.19492   0.00000  Uiso   1.00
H308   H     0.81707   0.86135   0.28108   0.00000  Uiso   1.00
H309   H     0.71807   0.87745   0.02212   0.00000  Uiso   1.00
H310   H     0.71069   0.77058   0.26108   0.00000  Uiso   1.00
H311   H     0.88515   0.89734   0.40877   0.00000  Uiso   1.00
H312   H     0.67640   0.93128   0.86273   0.00000  Uiso   1.00
H313   H     0.66083   0.70593   0.36664   0.00000  Uiso   1.00
O314   O     0.89650   0.94987   0.57613   0.00000  Uiso   1.00
O315   O     0.62262   0.99439   0.85975   0.00000  Uiso   1.00
O316   O     0.60219   0.69874   0.52086   0.00000  Uiso   1.00
N317   N     0.82395   0.94952   0.55941   0.00000  Uiso   1.00
N318   N     0.62878   0.98125   0.04889   0.00000  Uiso   1.00
N319   N     0.61422   0.77057   0.51998   0.00000  Uiso   1.00
N320   N     0.86020   0.91062   0.44509   0.00000  Uiso   1.00
N321   N     0.66503   0.94235   0.93458   0.00000  Uiso   1.00
N322   N     0.65046   0.73167   0.40567   0.00000  Uiso   1.00
C323   C     0.18581   0.40386   0.88620   0.00000  Uiso   1.00
C324   C     0.23274   0.40693   0.90601   0.00000  Uiso   1.00
C325   C     0.25200   0.43119   0.98634   0.00000  Uiso   1.00
C326   C     0.29530   0.42972   0.99106   0.00000  Uiso   1.00
C327   C     0.36465   0.43828   0.03289   0.00000  Uiso   1.00
C328   C     0.17895   0.41568   0.76531   0.00000  Uiso   1.00
C329   C     0.15299   0.44729   0.72733   0.00000  Uiso   1.00
C330   C     0.15101   0.45319   0.61361   0.00000  Uiso   1.00
C331   C     0.13683   0.47532   0.43699   0.00000  Uiso   1.00
C332   C     0.17494   0.35762   0.89515   0.00000  Uiso   1.00
C333   C     0.14560   0.34041   0.96633   0.00000  Uiso   1.00
C334   C     0.14024   0.29742   0.96191   0.00000  Uiso   1.00
C335   C     0.11984   0.22940   0.98690   0.00000  Uiso   1.00
C336   C     0.22843   0.35812   0.75177   0.00000  Uiso   1.00
C337   C     0.25589   0.38209   0.83299   0.00000  Uiso   1.00
C338   C     0.29917   0.38058   0.83760   0.00000  Uiso   1.00
C339   C     0.31849   0.40482   0.91792   0.00000  Uiso   1.00
C340   C     0.20210   0.39084   0.69229   0.00000  Uiso   1.00
C341   C     0.20015   0.39668   0.57860   0.00000  Uiso   1.00
C342   C     0.17420   0.42829   0.54046   0.00000  Uiso   1.00
C343   C     0.19810   0.33277   0.82214   0.00000  Uiso   1.00
C344   C     0.19277   0.28980   0.81760   0.00000  Uiso   1.00
C345   C     0.16343   0.27253   0.88876   0.00000  Uiso   1.00
H346   H     0.16778   0.42321   0.94305   0.00000  Uiso   1.00
H347   H     0.23408   0.45041   0.04282   0.00000  Uiso   1.00
H348   H     0.13508   0.46651   0.78386   0.00000  Uiso   1.00
H349   H     0.12769   0.35965   0.02282   0.00000  Uiso   1.00
H350   H     0.31779   0.46963   0.12122   0.00000  Uiso   1.00
H351   H     0.10904   0.50357   0.57517   0.00000  Uiso   1.00
H352   H     0.09346   0.27822   0.07908   0.00000  Uiso   1.00
H353   H     0.24646   0.33877   0.69492   0.00000  Uiso   1.00
H354   H     0.31707   0.36135   0.78108   0.00000  Uiso   1.00
H355   H     0.21807   0.37745   0.52212   0.00000  Uiso   1.00
H356   H     0.21069   0.27058   0.76108   0.00000  Uiso   1.00
H357   H     0.38515   0.39734   0.90877   0.00000  Uiso   1.00
H358   H     0.17640   0.43128   0.36273   0.00000  Uiso   1.00
H359   H     0.16083   0.20593   0.86664   0.00000  Uiso   1.00
O360   O     0.39650   0.44987   0.07613   0.00000  Uiso   1.00
O361   O     0.12262   0.49439   0.35975   0.00000  Uiso   1.00
O362   O     0.10219   0.19874   0.02086   0.00000  Uiso   1.00
N363   N     0.32395   0.44952   0.05941   0.00000  Uiso   1.00
N364   N     0.12878   0.48125   0.54889   0.00000  Uiso   1.00
N365   N     0.11422   0.27057   0.01998   0.00000  Uiso   1.00
N366   N     0.36020   0.41062   0.94509   0.00000  Uiso   1.00
N367   N     0.16503   0.44235   0.43458   0.00000  Uiso   1.00
N368   N     0.15046   0.23167   0.90567   0.00000  Uiso   1.00
C369   C     0.90386   0.31419   0.61380   0.00000  Uiso   1.00
C370   C     0.90693   0.26726   0.59399   0.00000  Uiso   1.00
C371   C     0.93119   0.24800   0.51366   0.00000  Uiso   1.00
C372   C     0.92972   0.20470   0.50894   0.00000  Uiso   1.00
C373   C     0.93828   0.13535   0.46711   0.00000  Uiso   1.00
C374   C     0.91568   0.32105   0.73469   0.00000  Uiso   1.00
C375   C     0.94729   0.34701   0.77267   0.00000  Uiso   1.00
C376   C     0.95319   0.34899   0.88639   0.00000  Uiso   1.00
C377   C     0.97532   0.36317   0.06301   0.00000  Uiso   1.00
C378   C     0.85762   0.32506   0.60485   0.00000  Uiso   1.00
C379   C     0.84041   0.35440   0.53367   0.00000  Uiso   1.00
C380   C     0.79742   0.35976   0.53809   0.00000  Uiso   1.00
C381   C     0.72940   0.38016   0.51310   0.00000  Uiso   1.00
C382   C     0.85812   0.27157   0.74823   0.00000  Uiso   1.00
C383   C     0.88209   0.24411   0.66701   0.00000  Uiso   1.00
C384   C     0.88058   0.20083   0.66240   0.00000  Uiso   1.00
C385   C     0.90482   0.18151   0.58208   0.00000  Uiso   1.00
C386   C     0.89084   0.29790   0.80771   0.00000  Uiso   1.00
C387   C     0.89668   0.29985   0.92140   0.00000  Uiso   1.00
C388   C     0.92829   0.32580   0.95954   0.00000  Uiso   1.00
C389   C     0.83277   0.30190   0.67786   0.00000  Uiso   1.00
C390   C     0.78980   0.30723   0.68240   0.00000  Uiso   1.00
C391   C     0.77253   0.33657   0.61124   0.00000  Uiso   1.00
H392   H     0.92321   0.33222   0.55695   0.00000  Uiso   1.00
H393   H     0.95041   0.26592   0.45718   0.00000  Uiso   1.00
H394   H     0.96651   0.36492   0.71614   0.00000  Uiso   1.00
H395   H     0.85965   0.37231   0.47718   0.00000  Uiso   1.00
H396   H     0.96963   0.18221   0.37878   0.00000  Uiso   1.00
H397   H     0.00357   0.39096   0.92483   0.00000  Uiso   1.00
H398   H     0.77822   0.40654   0.42092   0.00000  Uiso   1.00
H399   H     0.83877   0.25354   0.80508   0.00000  Uiso   1.00
H400   H     0.86135   0.18293   0.71892   0.00000  Uiso   1.00
H401   H     0.87745   0.28193   0.97788   0.00000  Uiso   1.00
H402   H     0.77058   0.28931   0.73892   0.00000  Uiso   1.00
H403   H     0.89734   0.11485   0.59123   0.00000  Uiso   1.00
H404   H     0.93128   0.32360   0.13727   0.00000  Uiso   1.00
H405   H     0.70593   0.33917   0.63336   0.00000  Uiso   1.00
O406   O     0.94987   0.10350   0.42387   0.00000  Uiso   1.00
O407   O     0.99439   0.37738   0.14025   0.00000  Uiso   1.00
O408   O     0.69874   0.39781   0.47914   0.00000  Uiso   1.00
N409   N     0.94952   0.17605   0.44059   0.00000  Uiso   1.00
N410   N     0.98125   0.37122   0.95111   0.00000  Uiso   1.00
N411   N     0.77057   0.38578   0.48002   0.00000  Uiso   1.00
N412   N     0.91062   0.13980   0.55491   0.00000  Uiso   1.00
N413   N     0.94235   0.33497   0.06542   0.00000  Uiso   1.00
N414   N     0.73167   0.34954   0.59433   0.00000  Uiso   1.00
C415   C     0.40386   0.81419   0.11380   0.00000  Uiso   1.00
C416   C     0.40693   0.76726   0.09399   0.00000  Uiso   1.00
C417   C     0.43119   0.74800   0.01366   0.00000  Uiso   1.00
C418   C     0.42972   0.70470   0.00894   0.00000  Uiso   1.00
C419   C     0.43828   0.63535   0.96711   0.00000  Uiso   1.00
C420   C     0.41568   0.82105   0.23469   0.00000  Uiso   1.00
C421   C     0.44729   0.84701   0.27267   0.00000  Uiso   1.00
C422   C     0.45319   0.84899   0.38639   0.00000  Uiso   1.00
C423   C     0.47532   0.86317   0.56301   0.00000  Uiso   1.00
C424   C     0.35762   0.82506   0.10485   0.00000  Uiso   1.00
C425   C     0.34041   0.85440   0.03367   0.00000  Uiso   1.00
C426   C     0.29742   0.85976   0.03809   0.00000  Uiso   1.00
C427   C     0.22940   0.88016   0.01310   0.00000  Uiso   1.00
C428   C     0.35812   0.77157   0.24823   0.00000  Uiso   1.00
C429   C     0.38209   0.74411   0.16701   0.00000  Uiso   1.00
C430   C     0.38058   0.70083   0.16240   0.00000  Uiso   1.00
C431   C     0.40482   0.68151   0.08208   0.00000  Uiso   1.00
C432   C     0.39084   0.79790   0.30771   0.00000  Uiso   1.00
C433   C     0.39668   0.79985   0.42140   0.00000  Uiso   1.00
C434   C     0.42829   0.82580   0.45954   0.00000  Uiso   1.00
C435   C     0.33277   0.80190   0.17786   0.00000  Uiso   1.00
C436   C     0.28980   0.80723   0.18240   0.00000  Uiso   1.00
C437   C     0.27253   0.83657   0.11124   0.00000  Uiso   1.00
H438   H     0.42321   0.83222   0.05695   0.00000  Uiso   1.00
H439   H     0.45041   0.76592   0.95718   0.00000  Uiso   1.00
H440   H     0.46651   0.86492   0.21614   0.00000  Uiso   1.00
H441   H     0.35965   0.87231   0.97718   0.00000  Uiso   1.00
H442   H     0.46963   0.68221   0.87878   0.00000  Uiso   1.00
H443   H     0.50357   0.89096   0.42483   0.00000  Uiso   1.00
H444   H     0.27822   0.90654   0.92092   0.00000  Uiso   1.00
H445   H     0.33877   0.75354   0.30508   0.00000  Uiso   1.00
H446   H     0.36135   0.68293   0.21892   0.00000  Uiso   1.00
H447   H     0.37745   0.78193   0.47788   0.00000  Uiso   1.00
H448   H     0.27058   0.78931   0.23892   0.00000  Uiso   1.00
H449   H     0.39734   0.61485   0.09123   0.00000  Uiso   1.00
H450   H     0.43128   0.82360   0.63727   0.00000  Uiso   1.00
H451   H     0.20593   0.83917   0.13336   0.00000  Uiso   1.00
O452   O     0.44987   0.60350   0.92387   0.00000  Uiso   1.00
O453   O     0.49439   0.87738   0.64025   0.00000  Uiso   1.00
O454   O     0.19874   0.89781   0.97914   0.00000  Uiso   1.00
N455   N     0.44952   0.67605   0.94059   0.00000  Uiso   1.00
N456   N     0.48125   0.87122   0.45111   0.00000  Uiso   1.00
N457   N     0.27057   0.88578   0.98002   0.00000  Uiso   1.00
N458   N     0.41062   0.63980   0.05491   0.00000  Uiso   1.00
N459   N     0.44235   0.83497   0.56542   0.00000  Uiso   1.00
N460   N     0.23167   0.84954   0.09433   0.00000  Uiso   1.00
C461   C     0.59614   0.18581   0.11380   0.00000  Uiso   1.00
C462   C     0.59307   0.23274   0.09399   0.00000  Uiso   1.00
C463   C     0.56881   0.25200   0.01366   0.00000  Uiso   1.00
C464   C     0.57028   0.29530   0.00894   0.00000  Uiso   1.00
C465   C     0.56172   0.36465   0.96711   0.00000  Uiso   1.00
C466   C     0.58432   0.17895   0.23469   0.00000  Uiso   1.00
C467   C     0.55271   0.15299   0.27267   0.00000  Uiso   1.00
C468   C     0.54681   0.15101   0.38639   0.00000  Uiso   1.00
C469   C     0.52468   0.13683   0.56301   0.00000  Uiso   1.00
C470   C     0.64238   0.17494   0.10485   0.00000  Uiso   1.00
C471   C     0.65959   0.14560   0.03367   0.00000  Uiso   1.00
C472   C     0.70258   0.14024   0.03809   0.00000  Uiso   1.00
C473   C     0.77060   0.11984   0.01310   0.00000  Uiso   1.00
C474   C     0.64188   0.22843   0.24823   0.00000  Uiso   1.00
C475   C     0.61791   0.25589   0.16701   0.00000  Uiso   1.00
C476   C     0.61942   0.29917   0.16240   0.00000  Uiso   1.00
C477   C     0.59518   0.31849   0.08208   0.00000  Uiso   1.00
C478   C     0.60916   0.20210   0.30771   0.00000  Uiso   1.00
C479   C     0.60332   0.20015   0.42140   0.00000  Uiso   1.00
C480   C     0.57171   0.17420   0.45954   0.00000  Uiso   1.00
C481   C     0.66723   0.19810   0.17786   0.00000  Uiso   1.00
C482   C     0.71020   0.19277   0.18240   0.00000  Uiso   1.00
C483   C     0.72747   0.16343   0.11124   0.00000  Uiso   1.00
H484   H     0.57679   0.16778   0.05695   0.00000  Uiso   1.00
H485   H     0.54959   0.23408   0.95718   0.00000  Uiso   1.00
H486   H     0.53349   0.13508   0.21614   0.00000  Uiso   1.00
H487   H     0.64035   0.12769   0.97718   0.00000  Uiso   1.00
H488   H     0.53037   0.31779   0.87878   0.00000  Uiso   1.00
H489   H     0.49643   0.10904   0.42483   0.00000  Uiso   1.00
H490   H     0.72178   0.09346   0.92092   0.00000  Uiso   1.00
H491   H     0.66123   0.24646   0.30508   0.00000  Uiso   1.00
H492   H     0.63865   0.31707   0.21892   0.00000  Uiso   1.00
H493   H     0.62255   0.21807   0.47788   0.00000  Uiso   1.00
H494   H     0.72942   0.21069   0.23892   0.00000  Uiso   1.00
H495   H     0.60266   0.38515   0.09123   0.00000  Uiso   1.00
H496   H     0.56872   0.17640   0.63727   0.00000  Uiso   1.00
H497   H     0.79407   0.16083   0.13336   0.00000  Uiso   1.00
O498   O     0.55013   0.39650   0.92387   0.00000  Uiso   1.00
O499   O     0.50561   0.12262   0.64025   0.00000  Uiso   1.00
O500   O     0.80126   0.10219   0.97914   0.00000  Uiso   1.00
N501   N     0.55048   0.32395   0.94059   0.00000  Uiso   1.00
N502   N     0.51875   0.12878   0.45111   0.00000  Uiso   1.00
N503   N     0.72943   0.11422   0.98002   0.00000  Uiso   1.00
N504   N     0.58938   0.36020   0.05491   0.00000  Uiso   1.00
N505   N     0.55765   0.16503   0.56542   0.00000  Uiso   1.00
N506   N     0.76833   0.15046   0.09433   0.00000  Uiso   1.00
C507   C     0.09614   0.68581   0.61380   0.00000  Uiso   1.00
C508   C     0.09307   0.73274   0.59399   0.00000  Uiso   1.00
C509   C     0.06881   0.75200   0.51366   0.00000  Uiso   1.00
C510   C     0.07028   0.79530   0.50894   0.00000  Uiso   1.00
C511   C     0.06172   0.86465   0.46711   0.00000  Uiso   1.00
C512   C     0.08432   0.67895   0.73469   0.00000  Uiso   1.00
C513   C     0.05271   0.65299   0.77267   0.00000  Uiso   1.00
C514   C     0.04681   0.65101   0.88639   0.00000  Uiso   1.00
C515   C     0.02468   0.63683   0.06301   0.00000  Uiso   1.00
C516   C     0.14238   0.67494   0.60485   0.00000  Uiso   1.00
C517   C     0.15959   0.64560   0.53367   0.00000  Uiso   1.00
C518   C     0.20258   0.64024   0.53809   0.00000  Uiso   1.00
C519   C     0.27060   0.61984   0.51310   0.00000  Uiso   1.00
C520   C     0.14188   0.72843   0.74823   0.00000  Uiso   1.00
C521   C     0.11791   0.75589   0.66701   0.00000  Uiso   1.00
C522   C     0.11942   0.79917   0.66240   0.00000  Uiso   1.00
C523   C     0.09518   0.81849   0.58208   0.00000  Uiso   1.00
C524   C     0.10916   0.70210   0.80771   0.00000  Uiso   1.00
C525   C     0.10332   0.70015   0.92140   0.00000  Uiso   1.00
C526   C     0.07171   0.67420   0.95954   0.00000  Uiso   1.00
C527   C     0.16723   0.69810   0.67786   0.00000  Uiso   1.00
C528   C     0.21020   0.69277   0.68240   0.00000  Uiso   1.00
C529   C     0.22747   0.66343   0.61124   0.00000  Uiso   1.00
H530   H     0.07679   0.66778   0.55695   0.00000  Uiso   1.00
H531   H     0.04959   0.73408   0.45718   0.00000  Uiso   1.00
H532   H     0.03349   0.63508   0.71614   0.00000  Uiso   1.00
H533   H     0.14035   0.62769   0.47718   0.00000  Uiso   1.00
H534   H     0.03037   0.81779   0.37878   0.00000  Uiso   1.00
H535   H     0.99643   0.60904   0.92483   0.00000  Uiso   1.00
H536   H     0.22178   0.59346   0.42092   0.00000  Uiso   1.00
H537   H     0.16123   0.74646   0.80508   0.00000  Uiso   1.00
H538   H     0.13865   0.81707   0.71892   0.00000  Uiso   1.00
H539   H     0.12255   0.71807   0.97788   0.00000  Uiso   1.00
H540   H     0.22942   0.71069   0.73892   0.00000  Uiso   1.00
H541   H     0.10266   0.88515   0.59123   0.00000  Uiso   1.00
H542   H     0.06872   0.67640   0.13727   0.00000  Uiso   1.00
H543   H     0.29407   0.66083   0.63336   0.00000  Uiso   1.00
O544   O     0.05013   0.89650   0.42387   0.00000  Uiso   1.00
O545   O     0.00561   0.62262   0.14025   0.00000  Uiso   1.00
O546   O     0.30126   0.60219   0.47914   0.00000  Uiso   1.00
N547   N     0.05048   0.82395   0.44059   0.00000  Uiso   1.00
N548   N     0.01875   0.62878   0.95111   0.00000  Uiso   1.00
N549   N     0.22943   0.61422   0.48002   0.00000  Uiso   1.00
N550   N     0.08938   0.86020   0.55491   0.00000  Uiso   1.00
N551   N     0.05765   0.66503   0.06542   0.00000  Uiso   1.00
N552   N     0.26833   0.65046   0.59433   0.00000  Uiso   1.00
C553   C     0.18581   0.90386   0.36380   0.00000  Uiso   1.00
C554   C     0.23274   0.90693   0.34399   0.00000  Uiso   1.00
C555   C     0.25200   0.93119   0.26366   0.00000  Uiso   1.00
C556   C     0.29530   0.92972   0.25894   0.00000  Uiso   1.00
C557   C     0.36465   0.93828   0.21711   0.00000  Uiso   1.00
C558   C     0.17895   0.91568   0.48469   0.00000  Uiso   1.00
C559   C     0.15299   0.94729   0.52267   0.00000  Uiso   1.00
C560   C     0.15101   0.95319   0.63639   0.00000  Uiso   1.00
C561   C     0.13683   0.97532   0.81301   0.00000  Uiso   1.00
C562   C     0.17494   0.85762   0.35485   0.00000  Uiso   1.00
C563   C     0.14560   0.84041   0.28367   0.00000  Uiso   1.00
C564   C     0.14024   0.79742   0.28809   0.00000  Uiso   1.00
C565   C     0.11984   0.72940   0.26310   0.00000  Uiso   1.00
C566   C     0.22843   0.85812   0.49823   0.00000  Uiso   1.00
C567   C     0.25589   0.88209   0.41701   0.00000  Uiso   1.00
C568   C     0.29917   0.88058   0.41240   0.00000  Uiso   1.00
C569   C     0.31849   0.90482   0.33208   0.00000  Uiso   1.00
C570   C     0.20210   0.89084   0.55771   0.00000  Uiso   1.00
C571   C     0.20015   0.89668   0.67140   0.00000  Uiso   1.00
C572   C     0.17420   0.92829   0.70954   0.00000  Uiso   1.00
C573   C     0.19810   0.83277   0.42786   0.00000  Uiso   1.00
C574   C     0.19277   0.78980   0.43240   0.00000  Uiso   1.00
C575   C     0.16343   0.77253   0.36124   0.00000  Uiso   1.00
H576   H     0.16778   0.92321   0.30695   0.00000  Uiso   1.00
H577   H     0.23408   0.95041   0.20718   0.00000  Uiso   1.00
H578   H     0.13508   0.96651   0.46614   0.00000  Uiso   1.00
H579   H     0.12769   0.85965   0.22718   0.00000  Uiso   1.00
H580   H     0.31779   0.96963   0.12878   0.00000  Uiso   1.00
H581   H     0.10904   0.00357   0.67483   0.00000  Uiso   1.00
H582   H     0.09346   0.77822   0.17092   0.00000  Uiso   1.00
H583   H     0.24646   0.83877   0.55508   0.00000  Uiso   1.00
H584   H     0.31707   0.86135   0.46892   0.00000  Uiso   1.00
H585   H     0.21807   0.87745   0.72788   0.00000  Uiso   1.00
H586   H     0.21069   0.77058   0.48892   0.00000  Uiso   1.00
H587   H     0.38515   0.89734   0.34123   0.00000  Uiso   1.00
H588   H     0.17640   0.93128   0.88727   0.00000  Uiso   1.00
H589   H     0.16083   0.70593   0.38336   0.00000  Uiso   1.00
O590   O     0.39650   0.94987   0.17387   0.00000  Uiso   1.00
O591   O     0.12262   0.99439   0.89025   0.00000  Uiso   1.00
O592   O     0.10219   0.69874   0.22914   0.00000  Uiso   1.00
N593   N     0.32395   0.94952   0.19059   0.00000  Uiso   1.00
N594   N     0.12878   0.98125   0.70111   0.00000  Uiso   1.00
N595   N     0.11422   0.77057   0.23002   0.00000  Uiso   1.00
N596   N     0.36020   0.91062   0.30491   0.00000  Uiso   1.00
N597   N     0.16503   0.94235   0.81542   0.00000  Uiso   1.00
N598   N     0.15046   0.73167   0.34433   0.00000  Uiso   1.00
C599   C     0.68581   0.40386   0.86380   0.00000  Uiso   1.00
C600   C     0.73274   0.40693   0.84399   0.00000  Uiso   1.00
C601   C     0.75200   0.43119   0.76366   0.00000  Uiso   1.00
C602   C     0.79530   0.42972   0.75894   0.00000  Uiso   1.00
C603   C     0.86465   0.43828   0.71711   0.00000  Uiso   1.00
C604   C     0.67895   0.41568   0.98469   0.00000  Uiso   1.00
C605   C     0.65299   0.44729   0.02267   0.00000  Uiso   1.00
C606   C     0.65101   0.45319   0.13639   0.00000  Uiso   1.00
C607   C     0.63683   0.47532   0.31301   0.00000  Uiso   1.00
C608   C     0.67494   0.35762   0.85485   0.00000  Uiso   1.00
C609   C     0.64560   0.34041   0.78367   0.00000  Uiso   1.00
C610   C     0.64024   0.29742   0.78809   0.00000  Uiso   1.00
C611   C     0.61984   0.22940   0.76310   0.00000  Uiso   1.00
C612   C     0.72843   0.35812   0.99823   0.00000  Uiso   1.00
C613   C     0.75589   0.38209   0.91701   0.00000  Uiso   1.00
C614   C     0.79917   0.38058   0.91240   0.00000  Uiso   1.00
C615   C     0.81849   0.40482   0.83208   0.00000  Uiso   1.00
C616   C     0.70210   0.39084   0.05771   0.00000  Uiso   1.00
C617   C     0.70015   0.39668   0.17140   0.00000  Uiso   1.00
C618   C     0.67420   0.42829   0.20954   0.00000  Uiso   1.00
C619   C     0.69810   0.33277   0.92786   0.00000  Uiso   1.00
C620   C     0.69277   0.28980   0.93240   0.00000  Uiso   1.00
C621   C     0.66343   0.27253   0.86124   0.00000  Uiso   1.00
H622   H     0.66778   0.42321   0.80695   0.00000  Uiso   1.00
H623   H     0.73408   0.45041   0.70718   0.00000  Uiso   1.00
H624   H     0.63508   0.46651   0.96614   0.00000  Uiso   1.00
H625   H     0.62769   0.35965   0.72718   0.00000  Uiso   1.00
H626   H     0.81779   0.46963   0.62878   0.00000  Uiso   1.00
H627   H     0.60904   0.50357   0.17483   0.00000  Uiso   1.00
H628   H     0.59346   0.27822   0.67092   0.00000  Uiso   1.00
H629   H     0.74646   0.33877   0.05508   0.00000  Uiso   1.00
H630   H     0.81707   0.36135   0.96892   0.00000  Uiso   1.00
H631   H     0.71807   0.37745   0.22788   0.00000  Uiso   1.00
H632   H     0.71069   0.27058   0.98892   0.00000  Uiso   1.00
H633   H     0.88515   0.39734   0.84123   0.00000  Uiso   1.00
H634   H     0.67640   0.43128   0.38727   0.00000  Uiso   1.00
H635   H     0.66083   0.20593   0.88336   0.00000  Uiso   1.00
O636   O     0.89650   0.44987   0.67387   0.00000  Uiso   1.00
O637   O     0.62262   0.49439   0.39025   0.00000  Uiso   1.00
O638   O     0.60219   0.19874   0.72914   0.00000  Uiso   1.00
N639   N     0.82395   0.44952   0.69059   0.00000  Uiso   1.00
N640   N     0.62878   0.48125   0.20111   0.00000  Uiso   1.00
N641   N     0.61422   0.27057   0.73002   0.00000  Uiso   1.00
N642   N     0.86020   0.41062   0.80491   0.00000  Uiso   1.00
N643   N     0.66503   0.44235   0.31542   0.00000  Uiso   1.00
N644   N     0.65046   0.23167   0.84433   0.00000  Uiso   1.00
C645   C     0.31419   0.59614   0.86380   0.00000  Uiso   1.00
C646   C     0.26726   0.59307   0.84399   0.00000  Uiso   1.00
C647   C     0.24800   0.56881   0.76366   0.00000  Uiso   1.00
C648   C     0.20470   0.57028   0.75894   0.00000  Uiso   1.00
C649   C     0.13535   0.56172   0.71711   0.00000  Uiso   1.00
C650   C     0.32105   0.58432   0.98469   0.00000  Uiso   1.00
C651   C     0.34701   0.55271   0.02267   0.00000  Uiso   1.00
C652   C     0.34899   0.54681   0.13639   0.00000  Uiso   1.00
C653   C     0.36317   0.52468   0.31301   0.00000  Uiso   1.00
C654   C     0.32506   0.64238   0.85485   0.00000  Uiso   1.00
C655   C     0.35440   0.65959   0.78367   0.00000  Uiso   1.00
C656   C     0.35976   0.70258   0.78809   0.00000  Uiso   1.00
C657   C     0.38016   0.77060   0.76310   0.00000  Uiso   1.00
C658   C     0.27157   0.64188   0.99823   0.00000  Uiso   1.00
C659   C     0.24411   0.61791   0.91701   0.00000  Uiso   1.00
C660   C     0.20083   0.61942   0.91240   0.00000  Uiso   1.00
C661   C     0.18151   0.59518   0.83208   0.00000  Uiso   1.00
C662   C     0.29790   0.60916   0.05771   0.00000  Uiso   1.00
C663   C     0.29985   0.60332   0.17140   0.00000  Uiso   1.00
C664   C     0.32580   0.57171   0.20954   0.00000  Uiso   1.00
C665   C     0.30190   0.66723   0.92786   0.00000  Uiso   1.00
C666   C     0.30723   0.71020   0.93240   0.00000  Uiso   1.00
C667   C     0.33657   0.72747   0.86124   0.00000  Uiso   1.00
H668   H     0.33222   0.57679   0.80695   0.00000  Uiso   1.00
H669   H     0.26592   0.54959   0.70718   0.00000  Uiso   1.00
H670   H     0.36492   0.53349   0.96614   0.00000  Uiso   1.00
H671   H     0.37231   0.64035   0.72718   0.00000  Uiso   1.00
H672   H     0.18221   0.53037   0.62878   0.00000  Uiso   1.00
H673   H     0.39096   0.49643   0.17483   0.00000  Uiso   1.00
H674   H     0.40654   0.72178   0.67092   0.00000  Uiso   1.00
H675   H     0.25354   0.66123   0.05508   0.00000  Uiso   1.00
H676   H     0.18293   0.63865   0.96892   0.00000  Uiso   1.00
H677   H     0.28193   0.62255   0.22788   0.00000  Uiso   1.00
H678   H     0.28931   0.72942   0.98892   0.00000  Uiso   1.00
H679   H     0.11485   0.60266   0.84123   0.00000  Uiso   1.00
H680   H     0.32360   0.56872   0.38727   0.00000  Uiso   1.00
H681   H     0.33917   0.79407   0.88336   0.00000  Uiso   1.00
O682   O     0.10350   0.55013   0.67387   0.00000  Uiso   1.00
O683   O     0.37738   0.50561   0.39025   0.00000  Uiso   1.00
O684   O     0.39781   0.80126   0.72914   0.00000  Uiso   1.00
N685   N     0.17605   0.55048   0.69059   0.00000  Uiso   1.00
N686   N     0.37122   0.51875   0.20111   0.00000  Uiso   1.00
N687   N     0.38578   0.72943   0.73002   0.00000  Uiso   1.00
N688   N     0.13980   0.58938   0.80491   0.00000  Uiso   1.00
N689   N     0.33497   0.55765   0.31542   0.00000  Uiso   1.00
N690   N     0.34954   0.76833   0.84433   0.00000  Uiso   1.00
C691   C     0.81419   0.09614   0.36380   0.00000  Uiso   1.00
C692   C     0.76726   0.09307   0.34399   0.00000  Uiso   1.00
C693   C     0.74800   0.06881   0.26366   0.00000  Uiso   1.00
C694   C     0.70470   0.07028   0.25894   0.00000  Uiso   1.00
C695   C     0.63535   0.06172   0.21711   0.00000  Uiso   1.00
C696   C     0.82105   0.08432   0.48469   0.00000  Uiso   1.00
C697   C     0.84701   0.05271   0.52267   0.00000  Uiso   1.00
C698   C     0.84899   0.04681   0.63639   0.00000  Uiso   1.00
C699   C     0.86317   0.02468   0.81301   0.00000  Uiso   1.00
C700   C     0.82506   0.14238   0.35485   0.00000  Uiso   1.00
C701   C     0.85440   0.15959   0.28367   0.00000  Uiso   1.00
C702   C     0.85976   0.20258   0.28809   0.00000  Uiso   1.00
C703   C     0.88016   0.27060   0.26310   0.00000  Uiso   1.00
C704   C     0.77157   0.14188   0.49823   0.00000  Uiso   1.00
C705   C     0.74411   0.11791   0.41701   0.00000  Uiso   1.00
C706   C     0.70083   0.11942   0.41240   0.00000  Uiso   1.00
C707   C     0.68151   0.09518   0.33208   0.00000  Uiso   1.00
C708   C     0.79790   0.10916   0.55771   0.00000  Uiso   1.00
C709   C     0.79985   0.10332   0.67140   0.00000  Uiso   1.00
C710   C     0.82580   0.07171   0.70954   0.00000  Uiso   1.00
C711   C     0.80190   0.16723   0.42786   0.00000  Uiso   1.00
C712   C     0.80723   0.21020   0.43240   0.00000  Uiso   1.00
C713   C     0.83657   0.22747   0.36124   0.00000  Uiso   1.00
H714   H     0.83222   0.07679   0.30695   0.00000  Uiso   1.00
H715   H     0.76592   0.04959   0.20718   0.00000  Uiso   1.00
H716   H     0.86492   0.03349   0.46614   0.00000  Uiso   1.00
H717   H     0.87231   0.14035   0.22718   0.00000  Uiso   1.00
H718   H     0.68221   0.03037   0.12878   0.00000  Uiso   1.00
H719   H     0.89096   0.99643   0.67483   0.00000  Uiso   1.00
H720   H     0.90654   0.22178   0.17092   0.00000  Uiso   1.00
H721   H     0.75354   0.16123   0.55508   0.00000  Uiso   1.00
H722   H     0.68293   0.13865   0.46892   0.00000  Uiso   1.00
H723   H     0.78193   0.12255   0.72788   0.00000  Uiso   1.00
H724   H     0.78931   0.22942   0.48892   0.00000  Uiso   1.00
H725   H     0.61485   0.10266   0.34123   0.00000  Uiso   1.00
H726   H     0.82360   0.06872   0.88727   0.00000  Uiso   1.00
H727   H     0.83917   0.29407   0.38336   0.00000  Uiso   1.00
O728   O     0.60350   0.05013   0.17387   0.00000  Uiso   1.00
O729   O     0.87738   0.00561   0.89025   0.00000  Uiso   1.00
O730   O     0.89781   0.30126   0.22914   0.00000  Uiso   1.00
N731   N     0.67605   0.05048   0.19059   0.00000  Uiso   1.00
N732   N     0.87122   0.01875   0.70111   0.00000  Uiso   1.00
N733   N     0.88578   0.22943   0.23002   0.00000  Uiso   1.00
N734   N     0.63980   0.08938   0.30491   0.00000  Uiso   1.00
N735   N     0.83497   0.05765   0.81542   0.00000  Uiso   1.00
N736   N     0.84954   0.26833   0.34433   0.00000  Uiso   1.00
