data_job_05661
_audit_creation_date              2018-12-19
_audit_creation_method            'Materials Studio'
_symmetry_space_group_name_H-M    'P1'
_symmetry_Int_Tables_number       1
_symmetry_cell_setting            triclinic
loop_
_symmetry_equiv_pos_as_xyz
  x,y,z
_cell_length_a                    23.3698
_cell_length_b                    23.3698
_cell_length_c                    20.8680
_cell_angle_alpha                 90.0000
_cell_angle_beta                  90.0000
_cell_angle_gamma                 90.0000
loop_
_atom_site_label
_atom_site_type_symbol
_atom_site_fract_x
_atom_site_fract_y
_atom_site_fract_z
_atom_site_U_iso_or_equiv
_atom_site_adp_type
_atom_site_occupancy
C1     C     0.65766   0.12555   0.13523   0.00000  Uiso   1.00
C2     C     0.63367   0.09191   0.07867   0.00000  Uiso   1.00
C3     C     0.64529   0.03502   0.06475   0.00000  Uiso   1.00
C4     C     0.61915   0.01206   0.01081   0.00000  Uiso   1.00
C5     C     0.58748   0.95484   0.92884   0.00000  Uiso   1.00
C6     C     0.68736   0.17772   0.10660   0.00000  Uiso   1.00
C7     C     0.74411   0.19298   0.11617   0.00000  Uiso   1.00
C8     C     0.76315   0.24227   0.08575   0.00000  Uiso   1.00
C9     C     0.81481   0.31830   0.04718   0.00000  Uiso   1.00
C10    C     0.60597   0.14841   0.17175   0.00000  Uiso   1.00
C11    C     0.59430   0.13904   0.23611   0.00000  Uiso   1.00
C12    C     0.54483   0.16367   0.26055   0.00000  Uiso   1.00
C13    C     0.47012   0.19419   0.32313   0.00000  Uiso   1.00
C14    C     0.59057   0.18595   0.06420   0.00000  Uiso   1.00
C15    C     0.59723   0.12472   0.04009   0.00000  Uiso   1.00
C16    C     0.57107   0.10185   0.98616   0.00000  Uiso   1.00
C17    C     0.58264   0.04493   0.97217   0.00000  Uiso   1.00
C18    C     0.65092   0.21053   0.06802   0.00000  Uiso   1.00
C19    C     0.66988   0.25981   0.03759   0.00000  Uiso   1.00
C20    C     0.72665   0.27514   0.04711   0.00000  Uiso   1.00
C21    C     0.56953   0.18122   0.13317   0.00000  Uiso   1.00
C22    C     0.52007   0.20587   0.15752   0.00000  Uiso   1.00
C23    C     0.50832   0.19654   0.22190   0.00000  Uiso   1.00
H24    H     0.68603   0.10001   0.16526   0.00000  Uiso   1.00
H25    H     0.67350   0.00964   0.09461   0.00000  Uiso   1.00
H26    H     0.77229   0.16759   0.14603   0.00000  Uiso   1.00
H27    H     0.62251   0.11365   0.26594   0.00000  Uiso   1.00
H28    H     0.64355   0.92393   0.99925   0.00000  Uiso   1.00
H29    H     0.85187   0.25697   0.10769   0.00000  Uiso   1.00
H30    H     0.53601   0.14324   0.36056   0.00000  Uiso   1.00
H31    H     0.56220   0.21150   0.03417   0.00000  Uiso   1.00
H32    H     0.54287   0.12725   0.95632   0.00000  Uiso   1.00
H33    H     0.64167   0.28519   0.00774   0.00000  Uiso   1.00
H34    H     0.49188   0.23126   0.12765   0.00000  Uiso   1.00
H35    H     0.53753   0.01938   0.88701   0.00000  Uiso   1.00
H36    H     0.74585   0.35243   0.99545   0.00000  Uiso   1.00
H37    H     0.42999   0.23870   0.24831   0.00000  Uiso   1.00
O38    O     0.58008   0.91422   0.89427   0.00000  Uiso   1.00
O39    O     0.85338   0.35117   0.03655   0.00000  Uiso   1.00
O40    O     0.43898   0.20196   0.36830   0.00000  Uiso   1.00
N41    N     0.62124   0.95795   0.98353   0.00000  Uiso   1.00
N42    N     0.81601   0.26932   0.08490   0.00000  Uiso   1.00
N43    N     0.52072   0.16301   0.32131   0.00000  Uiso   1.00
N44    N     0.56420   0.00931   0.92313   0.00000  Uiso   1.00
N45    N     0.75896   0.32069   0.02451   0.00000  Uiso   1.00
N46    N     0.46367   0.21437   0.26092   0.00000  Uiso   1.00
C47    C     0.15766   0.62555   0.63523   0.00000  Uiso   1.00
C48    C     0.13367   0.59191   0.57867   0.00000  Uiso   1.00
C49    C     0.14529   0.53502   0.56475   0.00000  Uiso   1.00
C50    C     0.11915   0.51206   0.51081   0.00000  Uiso   1.00
C51    C     0.08748   0.45484   0.42884   0.00000  Uiso   1.00
C52    C     0.18736   0.67772   0.60660   0.00000  Uiso   1.00
C53    C     0.24411   0.69298   0.61617   0.00000  Uiso   1.00
C54    C     0.26315   0.74227   0.58575   0.00000  Uiso   1.00
C55    C     0.31481   0.81830   0.54718   0.00000  Uiso   1.00
C56    C     0.10597   0.64841   0.67175   0.00000  Uiso   1.00
C57    C     0.09430   0.63904   0.73611   0.00000  Uiso   1.00
C58    C     0.04483   0.66367   0.76055   0.00000  Uiso   1.00
C59    C     0.97012   0.69419   0.82313   0.00000  Uiso   1.00
C60    C     0.09057   0.68595   0.56420   0.00000  Uiso   1.00
C61    C     0.09723   0.62472   0.54009   0.00000  Uiso   1.00
C62    C     0.07107   0.60185   0.48616   0.00000  Uiso   1.00
C63    C     0.08264   0.54493   0.47217   0.00000  Uiso   1.00
C64    C     0.15092   0.71053   0.56802   0.00000  Uiso   1.00
C65    C     0.16988   0.75981   0.53759   0.00000  Uiso   1.00
C66    C     0.22665   0.77514   0.54711   0.00000  Uiso   1.00
C67    C     0.06953   0.68122   0.63317   0.00000  Uiso   1.00
C68    C     0.02007   0.70587   0.65752   0.00000  Uiso   1.00
C69    C     0.00832   0.69654   0.72190   0.00000  Uiso   1.00
H70    H     0.18603   0.60001   0.66526   0.00000  Uiso   1.00
H71    H     0.17350   0.50964   0.59461   0.00000  Uiso   1.00
H72    H     0.27229   0.66759   0.64603   0.00000  Uiso   1.00
H73    H     0.12251   0.61365   0.76594   0.00000  Uiso   1.00
H74    H     0.14355   0.42393   0.49925   0.00000  Uiso   1.00
H75    H     0.35187   0.75697   0.60769   0.00000  Uiso   1.00
H76    H     0.03601   0.64324   0.86056   0.00000  Uiso   1.00
H77    H     0.06220   0.71150   0.53417   0.00000  Uiso   1.00
H78    H     0.04287   0.62725   0.45632   0.00000  Uiso   1.00
H79    H     0.14167   0.78519   0.50774   0.00000  Uiso   1.00
H80    H     0.99188   0.73126   0.62765   0.00000  Uiso   1.00
H81    H     0.03753   0.51938   0.38701   0.00000  Uiso   1.00
H82    H     0.24585   0.85243   0.49545   0.00000  Uiso   1.00
H83    H     0.92999   0.73870   0.74831   0.00000  Uiso   1.00
O84    O     0.08008   0.41422   0.39427   0.00000  Uiso   1.00
O85    O     0.35338   0.85117   0.53655   0.00000  Uiso   1.00
O86    O     0.93898   0.70196   0.86830   0.00000  Uiso   1.00
N87    N     0.12124   0.45795   0.48353   0.00000  Uiso   1.00
N88    N     0.31601   0.76932   0.58490   0.00000  Uiso   1.00
N89    N     0.02072   0.66301   0.82131   0.00000  Uiso   1.00
N90    N     0.06420   0.50931   0.42313   0.00000  Uiso   1.00
N91    N     0.25896   0.82069   0.52451   0.00000  Uiso   1.00
N92    N     0.96367   0.71437   0.76092   0.00000  Uiso   1.00
C93    C     0.84234   0.37445   0.63523   0.00000  Uiso   1.00
C94    C     0.86633   0.40809   0.57867   0.00000  Uiso   1.00
C95    C     0.85471   0.46498   0.56475   0.00000  Uiso   1.00
C96    C     0.88085   0.48794   0.51081   0.00000  Uiso   1.00
C97    C     0.91252   0.54516   0.42884   0.00000  Uiso   1.00
C98    C     0.81264   0.32228   0.60660   0.00000  Uiso   1.00
C99    C     0.75589   0.30702   0.61617   0.00000  Uiso   1.00
C100   C     0.73685   0.25773   0.58575   0.00000  Uiso   1.00
C101   C     0.68519   0.18170   0.54718   0.00000  Uiso   1.00
C102   C     0.89403   0.35159   0.67175   0.00000  Uiso   1.00
C103   C     0.90570   0.36096   0.73611   0.00000  Uiso   1.00
C104   C     0.95517   0.33633   0.76055   0.00000  Uiso   1.00
C105   C     0.02988   0.30581   0.82313   0.00000  Uiso   1.00
C106   C     0.90943   0.31405   0.56420   0.00000  Uiso   1.00
C107   C     0.90277   0.37528   0.54009   0.00000  Uiso   1.00
C108   C     0.92893   0.39815   0.48616   0.00000  Uiso   1.00
C109   C     0.91736   0.45507   0.47217   0.00000  Uiso   1.00
C110   C     0.84908   0.28947   0.56802   0.00000  Uiso   1.00
C111   C     0.83012   0.24019   0.53759   0.00000  Uiso   1.00
C112   C     0.77335   0.22486   0.54711   0.00000  Uiso   1.00
C113   C     0.93047   0.31878   0.63317   0.00000  Uiso   1.00
C114   C     0.97993   0.29413   0.65752   0.00000  Uiso   1.00
C115   C     0.99168   0.30346   0.72190   0.00000  Uiso   1.00
H116   H     0.81397   0.39999   0.66526   0.00000  Uiso   1.00
H117   H     0.82650   0.49036   0.59461   0.00000  Uiso   1.00
H118   H     0.72771   0.33241   0.64603   0.00000  Uiso   1.00
H119   H     0.87749   0.38635   0.76594   0.00000  Uiso   1.00
H120   H     0.85645   0.57607   0.49925   0.00000  Uiso   1.00
H121   H     0.64813   0.24303   0.60769   0.00000  Uiso   1.00
H122   H     0.96399   0.35676   0.86056   0.00000  Uiso   1.00
H123   H     0.93780   0.28850   0.53417   0.00000  Uiso   1.00
H124   H     0.95713   0.37275   0.45632   0.00000  Uiso   1.00
H125   H     0.85833   0.21481   0.50774   0.00000  Uiso   1.00
H126   H     0.00812   0.26874   0.62765   0.00000  Uiso   1.00
H127   H     0.96247   0.48062   0.38701   0.00000  Uiso   1.00
H128   H     0.75415   0.14757   0.49545   0.00000  Uiso   1.00
H129   H     0.07001   0.26130   0.74831   0.00000  Uiso   1.00
O130   O     0.91992   0.58578   0.39427   0.00000  Uiso   1.00
O131   O     0.64662   0.14883   0.53655   0.00000  Uiso   1.00
O132   O     0.06102   0.29804   0.86830   0.00000  Uiso   1.00
N133   N     0.87876   0.54205   0.48353   0.00000  Uiso   1.00
N134   N     0.68399   0.23068   0.58490   0.00000  Uiso   1.00
N135   N     0.97928   0.33699   0.82131   0.00000  Uiso   1.00
N136   N     0.93580   0.49069   0.42313   0.00000  Uiso   1.00
N137   N     0.74104   0.17931   0.52451   0.00000  Uiso   1.00
N138   N     0.03633   0.28563   0.76092   0.00000  Uiso   1.00
C139   C     0.34234   0.87445   0.13523   0.00000  Uiso   1.00
C140   C     0.36633   0.90809   0.07867   0.00000  Uiso   1.00
C141   C     0.35471   0.96498   0.06475   0.00000  Uiso   1.00
C142   C     0.38085   0.98794   0.01081   0.00000  Uiso   1.00
C143   C     0.41252   0.04516   0.92884   0.00000  Uiso   1.00
C144   C     0.31264   0.82228   0.10660   0.00000  Uiso   1.00
C145   C     0.25589   0.80702   0.11617   0.00000  Uiso   1.00
C146   C     0.23685   0.75773   0.08575   0.00000  Uiso   1.00
C147   C     0.18519   0.68170   0.04718   0.00000  Uiso   1.00
C148   C     0.39403   0.85159   0.17175   0.00000  Uiso   1.00
C149   C     0.40570   0.86096   0.23611   0.00000  Uiso   1.00
C150   C     0.45517   0.83633   0.26055   0.00000  Uiso   1.00
C151   C     0.52988   0.80581   0.32313   0.00000  Uiso   1.00
C152   C     0.40943   0.81405   0.06420   0.00000  Uiso   1.00
C153   C     0.40277   0.87528   0.04009   0.00000  Uiso   1.00
C154   C     0.42893   0.89815   0.98616   0.00000  Uiso   1.00
C155   C     0.41736   0.95507   0.97217   0.00000  Uiso   1.00
C156   C     0.34908   0.78947   0.06802   0.00000  Uiso   1.00
C157   C     0.33012   0.74019   0.03759   0.00000  Uiso   1.00
C158   C     0.27335   0.72486   0.04711   0.00000  Uiso   1.00
C159   C     0.43047   0.81878   0.13317   0.00000  Uiso   1.00
C160   C     0.47993   0.79413   0.15752   0.00000  Uiso   1.00
C161   C     0.49168   0.80346   0.22190   0.00000  Uiso   1.00
H162   H     0.31397   0.89999   0.16526   0.00000  Uiso   1.00
H163   H     0.32650   0.99036   0.09461   0.00000  Uiso   1.00
H164   H     0.22771   0.83241   0.14603   0.00000  Uiso   1.00
H165   H     0.37749   0.88635   0.26594   0.00000  Uiso   1.00
H166   H     0.35645   0.07607   0.99925   0.00000  Uiso   1.00
H167   H     0.14813   0.74303   0.10769   0.00000  Uiso   1.00
H168   H     0.46399   0.85676   0.36056   0.00000  Uiso   1.00
H169   H     0.43780   0.78850   0.03417   0.00000  Uiso   1.00
H170   H     0.45713   0.87275   0.95632   0.00000  Uiso   1.00
H171   H     0.35833   0.71481   0.00774   0.00000  Uiso   1.00
H172   H     0.50812   0.76874   0.12765   0.00000  Uiso   1.00
H173   H     0.46247   0.98062   0.88701   0.00000  Uiso   1.00
H174   H     0.25415   0.64757   0.99545   0.00000  Uiso   1.00
H175   H     0.57001   0.76130   0.24831   0.00000  Uiso   1.00
O176   O     0.41992   0.08578   0.89427   0.00000  Uiso   1.00
O177   O     0.14662   0.64883   0.03655   0.00000  Uiso   1.00
O178   O     0.56102   0.79804   0.36830   0.00000  Uiso   1.00
N179   N     0.37876   0.04205   0.98353   0.00000  Uiso   1.00
N180   N     0.18399   0.73068   0.08490   0.00000  Uiso   1.00
N181   N     0.47928   0.83699   0.32131   0.00000  Uiso   1.00
N182   N     0.43580   0.99069   0.92313   0.00000  Uiso   1.00
N183   N     0.24104   0.67931   0.02451   0.00000  Uiso   1.00
N184   N     0.53633   0.78563   0.26092   0.00000  Uiso   1.00
C185   C     0.87445   0.15766   0.38523   0.00000  Uiso   1.00
C186   C     0.90809   0.13367   0.32867   0.00000  Uiso   1.00
C187   C     0.96498   0.14529   0.31475   0.00000  Uiso   1.00
C188   C     0.98794   0.11915   0.26081   0.00000  Uiso   1.00
C189   C     0.04516   0.08748   0.17884   0.00000  Uiso   1.00
C190   C     0.82228   0.18736   0.35660   0.00000  Uiso   1.00
C191   C     0.80702   0.24411   0.36617   0.00000  Uiso   1.00
C192   C     0.75773   0.26315   0.33575   0.00000  Uiso   1.00
C193   C     0.68170   0.31481   0.29718   0.00000  Uiso   1.00
C194   C     0.85159   0.10597   0.42175   0.00000  Uiso   1.00
C195   C     0.86096   0.09430   0.48611   0.00000  Uiso   1.00
C196   C     0.83633   0.04483   0.51055   0.00000  Uiso   1.00
C197   C     0.80581   0.97012   0.57313   0.00000  Uiso   1.00
C198   C     0.81405   0.09057   0.31420   0.00000  Uiso   1.00
C199   C     0.87528   0.09723   0.29009   0.00000  Uiso   1.00
C200   C     0.89815   0.07107   0.23616   0.00000  Uiso   1.00
C201   C     0.95507   0.08264   0.22217   0.00000  Uiso   1.00
C202   C     0.78947   0.15092   0.31802   0.00000  Uiso   1.00
C203   C     0.74019   0.16988   0.28759   0.00000  Uiso   1.00
C204   C     0.72486   0.22665   0.29711   0.00000  Uiso   1.00
C205   C     0.81878   0.06953   0.38317   0.00000  Uiso   1.00
C206   C     0.79413   0.02007   0.40752   0.00000  Uiso   1.00
C207   C     0.80346   0.00832   0.47190   0.00000  Uiso   1.00
H208   H     0.89999   0.18603   0.41526   0.00000  Uiso   1.00
H209   H     0.99036   0.17350   0.34461   0.00000  Uiso   1.00
H210   H     0.83241   0.27229   0.39603   0.00000  Uiso   1.00
H211   H     0.88635   0.12251   0.51594   0.00000  Uiso   1.00
H212   H     0.07607   0.14355   0.24925   0.00000  Uiso   1.00
H213   H     0.74303   0.35187   0.35769   0.00000  Uiso   1.00
H214   H     0.85676   0.03601   0.61056   0.00000  Uiso   1.00
H215   H     0.78850   0.06220   0.28417   0.00000  Uiso   1.00
H216   H     0.87275   0.04287   0.20632   0.00000  Uiso   1.00
H217   H     0.71481   0.14167   0.25774   0.00000  Uiso   1.00
H218   H     0.76874   0.99188   0.37765   0.00000  Uiso   1.00
H219   H     0.98062   0.03753   0.13701   0.00000  Uiso   1.00
H220   H     0.64757   0.24585   0.24545   0.00000  Uiso   1.00
H221   H     0.76130   0.92999   0.49831   0.00000  Uiso   1.00
O222   O     0.08578   0.08008   0.14427   0.00000  Uiso   1.00
O223   O     0.64883   0.35338   0.28655   0.00000  Uiso   1.00
O224   O     0.79804   0.93898   0.61830   0.00000  Uiso   1.00
N225   N     0.04205   0.12124   0.23353   0.00000  Uiso   1.00
N226   N     0.73068   0.31601   0.33490   0.00000  Uiso   1.00
N227   N     0.83699   0.02072   0.57131   0.00000  Uiso   1.00
N228   N     0.99069   0.06420   0.17313   0.00000  Uiso   1.00
N229   N     0.67931   0.25896   0.27451   0.00000  Uiso   1.00
N230   N     0.78563   0.96367   0.51092   0.00000  Uiso   1.00
C231   C     0.37445   0.65766   0.88523   0.00000  Uiso   1.00
C232   C     0.40809   0.63367   0.82867   0.00000  Uiso   1.00
C233   C     0.46498   0.64529   0.81475   0.00000  Uiso   1.00
C234   C     0.48794   0.61915   0.76081   0.00000  Uiso   1.00
C235   C     0.54516   0.58748   0.67884   0.00000  Uiso   1.00
C236   C     0.32228   0.68736   0.85660   0.00000  Uiso   1.00
C237   C     0.30702   0.74411   0.86617   0.00000  Uiso   1.00
C238   C     0.25773   0.76315   0.83575   0.00000  Uiso   1.00
C239   C     0.18170   0.81481   0.79718   0.00000  Uiso   1.00
C240   C     0.35159   0.60597   0.92175   0.00000  Uiso   1.00
C241   C     0.36096   0.59430   0.98611   0.00000  Uiso   1.00
C242   C     0.33633   0.54483   0.01055   0.00000  Uiso   1.00
C243   C     0.30581   0.47012   0.07313   0.00000  Uiso   1.00
C244   C     0.31405   0.59057   0.81420   0.00000  Uiso   1.00
C245   C     0.37528   0.59723   0.79009   0.00000  Uiso   1.00
C246   C     0.39815   0.57107   0.73616   0.00000  Uiso   1.00
C247   C     0.45507   0.58264   0.72217   0.00000  Uiso   1.00
C248   C     0.28947   0.65092   0.81802   0.00000  Uiso   1.00
C249   C     0.24019   0.66988   0.78759   0.00000  Uiso   1.00
C250   C     0.22486   0.72665   0.79711   0.00000  Uiso   1.00
C251   C     0.31878   0.56953   0.88317   0.00000  Uiso   1.00
C252   C     0.29413   0.52007   0.90752   0.00000  Uiso   1.00
C253   C     0.30346   0.50832   0.97190   0.00000  Uiso   1.00
H254   H     0.39999   0.68603   0.91526   0.00000  Uiso   1.00
H255   H     0.49036   0.67350   0.84461   0.00000  Uiso   1.00
H256   H     0.33241   0.77229   0.89603   0.00000  Uiso   1.00
H257   H     0.38635   0.62251   0.01594   0.00000  Uiso   1.00
H258   H     0.57607   0.64355   0.74925   0.00000  Uiso   1.00
H259   H     0.24303   0.85187   0.85769   0.00000  Uiso   1.00
H260   H     0.35676   0.53601   0.11056   0.00000  Uiso   1.00
H261   H     0.28850   0.56220   0.78417   0.00000  Uiso   1.00
H262   H     0.37275   0.54287   0.70632   0.00000  Uiso   1.00
H263   H     0.21481   0.64167   0.75774   0.00000  Uiso   1.00
H264   H     0.26874   0.49188   0.87765   0.00000  Uiso   1.00
H265   H     0.48062   0.53753   0.63701   0.00000  Uiso   1.00
H266   H     0.14757   0.74585   0.74545   0.00000  Uiso   1.00
H267   H     0.26130   0.42999   0.99831   0.00000  Uiso   1.00
O268   O     0.58578   0.58008   0.64427   0.00000  Uiso   1.00
O269   O     0.14883   0.85338   0.78655   0.00000  Uiso   1.00
O270   O     0.29804   0.43898   0.11830   0.00000  Uiso   1.00
N271   N     0.54205   0.62124   0.73353   0.00000  Uiso   1.00
N272   N     0.23068   0.81601   0.83490   0.00000  Uiso   1.00
N273   N     0.33699   0.52072   0.07131   0.00000  Uiso   1.00
N274   N     0.49069   0.56420   0.67313   0.00000  Uiso   1.00
N275   N     0.17931   0.75896   0.77451   0.00000  Uiso   1.00
N276   N     0.28563   0.46367   0.01092   0.00000  Uiso   1.00
C277   C     0.62555   0.34234   0.88523   0.00000  Uiso   1.00
C278   C     0.59191   0.36633   0.82867   0.00000  Uiso   1.00
C279   C     0.53502   0.35471   0.81475   0.00000  Uiso   1.00
C280   C     0.51206   0.38085   0.76081   0.00000  Uiso   1.00
C281   C     0.45484   0.41252   0.67884   0.00000  Uiso   1.00
C282   C     0.67772   0.31264   0.85660   0.00000  Uiso   1.00
C283   C     0.69298   0.25589   0.86617   0.00000  Uiso   1.00
C284   C     0.74227   0.23685   0.83575   0.00000  Uiso   1.00
C285   C     0.81830   0.18519   0.79718   0.00000  Uiso   1.00
C286   C     0.64841   0.39403   0.92175   0.00000  Uiso   1.00
C287   C     0.63904   0.40570   0.98611   0.00000  Uiso   1.00
C288   C     0.66367   0.45517   0.01055   0.00000  Uiso   1.00
C289   C     0.69419   0.52988   0.07313   0.00000  Uiso   1.00
C290   C     0.68595   0.40943   0.81420   0.00000  Uiso   1.00
C291   C     0.62472   0.40277   0.79009   0.00000  Uiso   1.00
C292   C     0.60185   0.42893   0.73616   0.00000  Uiso   1.00
C293   C     0.54493   0.41736   0.72217   0.00000  Uiso   1.00
C294   C     0.71053   0.34908   0.81802   0.00000  Uiso   1.00
C295   C     0.75981   0.33012   0.78759   0.00000  Uiso   1.00
C296   C     0.77514   0.27335   0.79711   0.00000  Uiso   1.00
C297   C     0.68122   0.43047   0.88317   0.00000  Uiso   1.00
C298   C     0.70587   0.47993   0.90752   0.00000  Uiso   1.00
C299   C     0.69654   0.49168   0.97190   0.00000  Uiso   1.00
H300   H     0.60001   0.31397   0.91526   0.00000  Uiso   1.00
H301   H     0.50964   0.32650   0.84461   0.00000  Uiso   1.00
H302   H     0.66759   0.22771   0.89603   0.00000  Uiso   1.00
H303   H     0.61365   0.37749   0.01594   0.00000  Uiso   1.00
H304   H     0.42393   0.35645   0.74925   0.00000  Uiso   1.00
H305   H     0.75697   0.14813   0.85769   0.00000  Uiso   1.00
H306   H     0.64324   0.46399   0.11056   0.00000  Uiso   1.00
H307   H     0.71150   0.43780   0.78417   0.00000  Uiso   1.00
H308   H     0.62725   0.45713   0.70632   0.00000  Uiso   1.00
H309   H     0.78519   0.35833   0.75774   0.00000  Uiso   1.00
H310   H     0.73126   0.50812   0.87765   0.00000  Uiso   1.00
H311   H     0.51938   0.46247   0.63701   0.00000  Uiso   1.00
H312   H     0.85243   0.25415   0.74545   0.00000  Uiso   1.00
H313   H     0.73870   0.57001   0.99831   0.00000  Uiso   1.00
O314   O     0.41422   0.41992   0.64427   0.00000  Uiso   1.00
O315   O     0.85117   0.14662   0.78655   0.00000  Uiso   1.00
O316   O     0.70196   0.56102   0.11830   0.00000  Uiso   1.00
N317   N     0.45795   0.37876   0.73353   0.00000  Uiso   1.00
N318   N     0.76932   0.18399   0.83490   0.00000  Uiso   1.00
N319   N     0.66301   0.47928   0.07131   0.00000  Uiso   1.00
N320   N     0.50931   0.43580   0.67313   0.00000  Uiso   1.00
N321   N     0.82069   0.24104   0.77451   0.00000  Uiso   1.00
N322   N     0.71437   0.53633   0.01092   0.00000  Uiso   1.00
C323   C     0.12555   0.84234   0.38523   0.00000  Uiso   1.00
C324   C     0.09191   0.86633   0.32867   0.00000  Uiso   1.00
C325   C     0.03502   0.85471   0.31475   0.00000  Uiso   1.00
C326   C     0.01206   0.88085   0.26081   0.00000  Uiso   1.00
C327   C     0.95484   0.91252   0.17884   0.00000  Uiso   1.00
C328   C     0.17772   0.81264   0.35660   0.00000  Uiso   1.00
C329   C     0.19298   0.75589   0.36617   0.00000  Uiso   1.00
C330   C     0.24227   0.73685   0.33575   0.00000  Uiso   1.00
C331   C     0.31830   0.68519   0.29718   0.00000  Uiso   1.00
C332   C     0.14841   0.89403   0.42175   0.00000  Uiso   1.00
C333   C     0.13904   0.90570   0.48611   0.00000  Uiso   1.00
C334   C     0.16367   0.95517   0.51055   0.00000  Uiso   1.00
C335   C     0.19419   0.02988   0.57313   0.00000  Uiso   1.00
C336   C     0.18595   0.90943   0.31420   0.00000  Uiso   1.00
C337   C     0.12472   0.90277   0.29009   0.00000  Uiso   1.00
C338   C     0.10185   0.92893   0.23616   0.00000  Uiso   1.00
C339   C     0.04493   0.91736   0.22217   0.00000  Uiso   1.00
C340   C     0.21053   0.84908   0.31802   0.00000  Uiso   1.00
C341   C     0.25981   0.83012   0.28759   0.00000  Uiso   1.00
C342   C     0.27514   0.77335   0.29711   0.00000  Uiso   1.00
C343   C     0.18122   0.93047   0.38317   0.00000  Uiso   1.00
C344   C     0.20587   0.97993   0.40752   0.00000  Uiso   1.00
C345   C     0.19654   0.99168   0.47190   0.00000  Uiso   1.00
H346   H     0.10001   0.81397   0.41526   0.00000  Uiso   1.00
H347   H     0.00964   0.82650   0.34461   0.00000  Uiso   1.00
H348   H     0.16759   0.72771   0.39603   0.00000  Uiso   1.00
H349   H     0.11365   0.87749   0.51594   0.00000  Uiso   1.00
H350   H     0.92393   0.85645   0.24925   0.00000  Uiso   1.00
H351   H     0.25697   0.64813   0.35769   0.00000  Uiso   1.00
H352   H     0.14324   0.96399   0.61056   0.00000  Uiso   1.00
H353   H     0.21150   0.93780   0.28417   0.00000  Uiso   1.00
H354   H     0.12725   0.95713   0.20632   0.00000  Uiso   1.00
H355   H     0.28519   0.85833   0.25774   0.00000  Uiso   1.00
H356   H     0.23126   0.00812   0.37765   0.00000  Uiso   1.00
H357   H     0.01938   0.96247   0.13701   0.00000  Uiso   1.00
H358   H     0.35243   0.75415   0.24545   0.00000  Uiso   1.00
H359   H     0.23870   0.07001   0.49831   0.00000  Uiso   1.00
O360   O     0.91422   0.91992   0.14427   0.00000  Uiso   1.00
O361   O     0.35117   0.64662   0.28655   0.00000  Uiso   1.00
O362   O     0.20196   0.06102   0.61830   0.00000  Uiso   1.00
N363   N     0.95795   0.87876   0.23353   0.00000  Uiso   1.00
N364   N     0.26932   0.68399   0.33490   0.00000  Uiso   1.00
N365   N     0.16301   0.97928   0.57131   0.00000  Uiso   1.00
N366   N     0.00931   0.93580   0.17313   0.00000  Uiso   1.00
N367   N     0.32069   0.74104   0.27451   0.00000  Uiso   1.00
N368   N     0.21437   0.03633   0.51092   0.00000  Uiso   1.00
C369   C     0.65766   0.87445   0.63523   0.00000  Uiso   1.00
C370   C     0.63367   0.90809   0.57867   0.00000  Uiso   1.00
C371   C     0.64529   0.96498   0.56475   0.00000  Uiso   1.00
C372   C     0.61915   0.98794   0.51081   0.00000  Uiso   1.00
C373   C     0.58748   0.04516   0.42884   0.00000  Uiso   1.00
C374   C     0.68736   0.82228   0.60660   0.00000  Uiso   1.00
C375   C     0.74411   0.80702   0.61617   0.00000  Uiso   1.00
C376   C     0.76315   0.75773   0.58575   0.00000  Uiso   1.00
C377   C     0.81481   0.68170   0.54718   0.00000  Uiso   1.00
C378   C     0.60597   0.85159   0.67175   0.00000  Uiso   1.00
C379   C     0.59430   0.86096   0.73611   0.00000  Uiso   1.00
C380   C     0.54483   0.83633   0.76055   0.00000  Uiso   1.00
C381   C     0.47012   0.80581   0.82313   0.00000  Uiso   1.00
C382   C     0.59057   0.81405   0.56420   0.00000  Uiso   1.00
C383   C     0.59723   0.87528   0.54009   0.00000  Uiso   1.00
C384   C     0.57107   0.89815   0.48616   0.00000  Uiso   1.00
C385   C     0.58264   0.95507   0.47217   0.00000  Uiso   1.00
C386   C     0.65092   0.78947   0.56802   0.00000  Uiso   1.00
C387   C     0.66988   0.74019   0.53759   0.00000  Uiso   1.00
C388   C     0.72665   0.72486   0.54711   0.00000  Uiso   1.00
C389   C     0.56953   0.81878   0.63317   0.00000  Uiso   1.00
C390   C     0.52007   0.79413   0.65752   0.00000  Uiso   1.00
C391   C     0.50832   0.80346   0.72190   0.00000  Uiso   1.00
H392   H     0.68603   0.89999   0.66526   0.00000  Uiso   1.00
H393   H     0.67350   0.99036   0.59461   0.00000  Uiso   1.00
H394   H     0.77229   0.83241   0.64603   0.00000  Uiso   1.00
H395   H     0.62251   0.88635   0.76594   0.00000  Uiso   1.00
H396   H     0.64355   0.07607   0.49925   0.00000  Uiso   1.00
H397   H     0.85187   0.74303   0.60769   0.00000  Uiso   1.00
H398   H     0.53601   0.85676   0.86056   0.00000  Uiso   1.00
H399   H     0.56220   0.78850   0.53417   0.00000  Uiso   1.00
H400   H     0.54287   0.87275   0.45632   0.00000  Uiso   1.00
H401   H     0.64167   0.71481   0.50774   0.00000  Uiso   1.00
H402   H     0.49188   0.76874   0.62765   0.00000  Uiso   1.00
H403   H     0.53753   0.98062   0.38701   0.00000  Uiso   1.00
H404   H     0.74585   0.64757   0.49545   0.00000  Uiso   1.00
H405   H     0.42999   0.76130   0.74831   0.00000  Uiso   1.00
O406   O     0.58008   0.08578   0.39427   0.00000  Uiso   1.00
O407   O     0.85338   0.64883   0.53655   0.00000  Uiso   1.00
O408   O     0.43898   0.79804   0.86830   0.00000  Uiso   1.00
N409   N     0.62124   0.04205   0.48353   0.00000  Uiso   1.00
N410   N     0.81601   0.73068   0.58490   0.00000  Uiso   1.00
N411   N     0.52072   0.83699   0.82131   0.00000  Uiso   1.00
N412   N     0.56420   0.99069   0.42313   0.00000  Uiso   1.00
N413   N     0.75896   0.67931   0.52451   0.00000  Uiso   1.00
N414   N     0.46367   0.78563   0.76092   0.00000  Uiso   1.00
C415   C     0.15766   0.37445   0.13523   0.00000  Uiso   1.00
C416   C     0.13367   0.40809   0.07867   0.00000  Uiso   1.00
C417   C     0.14529   0.46498   0.06475   0.00000  Uiso   1.00
C418   C     0.11915   0.48794   0.01081   0.00000  Uiso   1.00
C419   C     0.08748   0.54516   0.92884   0.00000  Uiso   1.00
C420   C     0.18736   0.32228   0.10660   0.00000  Uiso   1.00
C421   C     0.24411   0.30702   0.11617   0.00000  Uiso   1.00
C422   C     0.26315   0.25773   0.08575   0.00000  Uiso   1.00
C423   C     0.31481   0.18170   0.04718   0.00000  Uiso   1.00
C424   C     0.10597   0.35159   0.17175   0.00000  Uiso   1.00
C425   C     0.09430   0.36096   0.23611   0.00000  Uiso   1.00
C426   C     0.04483   0.33633   0.26055   0.00000  Uiso   1.00
C427   C     0.97012   0.30581   0.32313   0.00000  Uiso   1.00
C428   C     0.09057   0.31405   0.06420   0.00000  Uiso   1.00
C429   C     0.09723   0.37528   0.04009   0.00000  Uiso   1.00
C430   C     0.07107   0.39815   0.98616   0.00000  Uiso   1.00
C431   C     0.08264   0.45507   0.97217   0.00000  Uiso   1.00
C432   C     0.15092   0.28947   0.06802   0.00000  Uiso   1.00
C433   C     0.16988   0.24019   0.03759   0.00000  Uiso   1.00
C434   C     0.22665   0.22486   0.04711   0.00000  Uiso   1.00
C435   C     0.06953   0.31878   0.13317   0.00000  Uiso   1.00
C436   C     0.02007   0.29413   0.15752   0.00000  Uiso   1.00
C437   C     0.00832   0.30346   0.22190   0.00000  Uiso   1.00
H438   H     0.18603   0.39999   0.16526   0.00000  Uiso   1.00
H439   H     0.17350   0.49036   0.09461   0.00000  Uiso   1.00
H440   H     0.27229   0.33241   0.14603   0.00000  Uiso   1.00
H441   H     0.12251   0.38635   0.26594   0.00000  Uiso   1.00
H442   H     0.14355   0.57607   0.99925   0.00000  Uiso   1.00
H443   H     0.35187   0.24303   0.10769   0.00000  Uiso   1.00
H444   H     0.03601   0.35676   0.36056   0.00000  Uiso   1.00
H445   H     0.06220   0.28850   0.03417   0.00000  Uiso   1.00
H446   H     0.04287   0.37275   0.95632   0.00000  Uiso   1.00
H447   H     0.14167   0.21481   0.00774   0.00000  Uiso   1.00
H448   H     0.99188   0.26874   0.12765   0.00000  Uiso   1.00
H449   H     0.03753   0.48062   0.88701   0.00000  Uiso   1.00
H450   H     0.24585   0.14757   0.99545   0.00000  Uiso   1.00
H451   H     0.92999   0.26130   0.24831   0.00000  Uiso   1.00
O452   O     0.08008   0.58578   0.89427   0.00000  Uiso   1.00
O453   O     0.35338   0.14883   0.03655   0.00000  Uiso   1.00
O454   O     0.93898   0.29804   0.36830   0.00000  Uiso   1.00
N455   N     0.12124   0.54205   0.98353   0.00000  Uiso   1.00
N456   N     0.31601   0.23068   0.08490   0.00000  Uiso   1.00
N457   N     0.02072   0.33699   0.32131   0.00000  Uiso   1.00
N458   N     0.06420   0.49069   0.92313   0.00000  Uiso   1.00
N459   N     0.25896   0.17931   0.02451   0.00000  Uiso   1.00
N460   N     0.96367   0.28563   0.26092   0.00000  Uiso   1.00
C461   C     0.84234   0.62555   0.13523   0.00000  Uiso   1.00
C462   C     0.86633   0.59191   0.07867   0.00000  Uiso   1.00
C463   C     0.85471   0.53502   0.06475   0.00000  Uiso   1.00
C464   C     0.88085   0.51206   0.01081   0.00000  Uiso   1.00
C465   C     0.91252   0.45484   0.92884   0.00000  Uiso   1.00
C466   C     0.81264   0.67772   0.10660   0.00000  Uiso   1.00
C467   C     0.75589   0.69298   0.11617   0.00000  Uiso   1.00
C468   C     0.73685   0.74227   0.08575   0.00000  Uiso   1.00
C469   C     0.68519   0.81830   0.04718   0.00000  Uiso   1.00
C470   C     0.89403   0.64841   0.17175   0.00000  Uiso   1.00
C471   C     0.90570   0.63904   0.23611   0.00000  Uiso   1.00
C472   C     0.95517   0.66367   0.26055   0.00000  Uiso   1.00
C473   C     0.02988   0.69419   0.32313   0.00000  Uiso   1.00
C474   C     0.90943   0.68595   0.06420   0.00000  Uiso   1.00
C475   C     0.90277   0.62472   0.04009   0.00000  Uiso   1.00
C476   C     0.92893   0.60185   0.98616   0.00000  Uiso   1.00
C477   C     0.91736   0.54493   0.97217   0.00000  Uiso   1.00
C478   C     0.84908   0.71053   0.06802   0.00000  Uiso   1.00
C479   C     0.83012   0.75981   0.03759   0.00000  Uiso   1.00
C480   C     0.77335   0.77514   0.04711   0.00000  Uiso   1.00
C481   C     0.93047   0.68122   0.13317   0.00000  Uiso   1.00
C482   C     0.97993   0.70587   0.15752   0.00000  Uiso   1.00
C483   C     0.99168   0.69654   0.22190   0.00000  Uiso   1.00
H484   H     0.81397   0.60001   0.16526   0.00000  Uiso   1.00
H485   H     0.82650   0.50964   0.09461   0.00000  Uiso   1.00
H486   H     0.72771   0.66759   0.14603   0.00000  Uiso   1.00
H487   H     0.87749   0.61365   0.26594   0.00000  Uiso   1.00
H488   H     0.85645   0.42393   0.99925   0.00000  Uiso   1.00
H489   H     0.64813   0.75697   0.10769   0.00000  Uiso   1.00
H490   H     0.96399   0.64324   0.36056   0.00000  Uiso   1.00
H491   H     0.93780   0.71150   0.03417   0.00000  Uiso   1.00
H492   H     0.95713   0.62725   0.95632   0.00000  Uiso   1.00
H493   H     0.85833   0.78519   0.00774   0.00000  Uiso   1.00
H494   H     0.00812   0.73126   0.12765   0.00000  Uiso   1.00
H495   H     0.96247   0.51938   0.88701   0.00000  Uiso   1.00
H496   H     0.75415   0.85243   0.99545   0.00000  Uiso   1.00
H497   H     0.07001   0.73870   0.24831   0.00000  Uiso   1.00
O498   O     0.91992   0.41422   0.89427   0.00000  Uiso   1.00
O499   O     0.64662   0.85117   0.03655   0.00000  Uiso   1.00
O500   O     0.06102   0.70196   0.36830   0.00000  Uiso   1.00
N501   N     0.87876   0.45795   0.98353   0.00000  Uiso   1.00
N502   N     0.68399   0.76932   0.08490   0.00000  Uiso   1.00
N503   N     0.97928   0.66301   0.32131   0.00000  Uiso   1.00
N504   N     0.93580   0.50931   0.92313   0.00000  Uiso   1.00
N505   N     0.74104   0.82069   0.02451   0.00000  Uiso   1.00
N506   N     0.03633   0.71437   0.26092   0.00000  Uiso   1.00
C507   C     0.34234   0.12555   0.63523   0.00000  Uiso   1.00
C508   C     0.36633   0.09191   0.57867   0.00000  Uiso   1.00
C509   C     0.35471   0.03502   0.56475   0.00000  Uiso   1.00
C510   C     0.38085   0.01206   0.51081   0.00000  Uiso   1.00
C511   C     0.41252   0.95484   0.42884   0.00000  Uiso   1.00
C512   C     0.31264   0.17772   0.60660   0.00000  Uiso   1.00
C513   C     0.25589   0.19298   0.61617   0.00000  Uiso   1.00
C514   C     0.23685   0.24227   0.58575   0.00000  Uiso   1.00
C515   C     0.18519   0.31830   0.54718   0.00000  Uiso   1.00
C516   C     0.39403   0.14841   0.67175   0.00000  Uiso   1.00
C517   C     0.40570   0.13904   0.73611   0.00000  Uiso   1.00
C518   C     0.45517   0.16367   0.76055   0.00000  Uiso   1.00
C519   C     0.52988   0.19419   0.82313   0.00000  Uiso   1.00
C520   C     0.40943   0.18595   0.56420   0.00000  Uiso   1.00
C521   C     0.40277   0.12472   0.54009   0.00000  Uiso   1.00
C522   C     0.42893   0.10185   0.48616   0.00000  Uiso   1.00
C523   C     0.41736   0.04493   0.47217   0.00000  Uiso   1.00
C524   C     0.34908   0.21053   0.56802   0.00000  Uiso   1.00
C525   C     0.33012   0.25981   0.53759   0.00000  Uiso   1.00
C526   C     0.27335   0.27514   0.54711   0.00000  Uiso   1.00
C527   C     0.43047   0.18122   0.63317   0.00000  Uiso   1.00
C528   C     0.47993   0.20587   0.65752   0.00000  Uiso   1.00
C529   C     0.49168   0.19654   0.72190   0.00000  Uiso   1.00
H530   H     0.31397   0.10001   0.66526   0.00000  Uiso   1.00
H531   H     0.32650   0.00964   0.59461   0.00000  Uiso   1.00
H532   H     0.22771   0.16759   0.64603   0.00000  Uiso   1.00
H533   H     0.37749   0.11365   0.76594   0.00000  Uiso   1.00
H534   H     0.35645   0.92393   0.49925   0.00000  Uiso   1.00
H535   H     0.14813   0.25697   0.60769   0.00000  Uiso   1.00
H536   H     0.46399   0.14324   0.86056   0.00000  Uiso   1.00
H537   H     0.43780   0.21150   0.53417   0.00000  Uiso   1.00
H538   H     0.45713   0.12725   0.45632   0.00000  Uiso   1.00
H539   H     0.35833   0.28519   0.50774   0.00000  Uiso   1.00
H540   H     0.50812   0.23126   0.62765   0.00000  Uiso   1.00
H541   H     0.46247   0.01938   0.38701   0.00000  Uiso   1.00
H542   H     0.25415   0.35243   0.49545   0.00000  Uiso   1.00
H543   H     0.57001   0.23870   0.74831   0.00000  Uiso   1.00
O544   O     0.41992   0.91422   0.39427   0.00000  Uiso   1.00
O545   O     0.14662   0.35117   0.53655   0.00000  Uiso   1.00
O546   O     0.56102   0.20196   0.86830   0.00000  Uiso   1.00
N547   N     0.37876   0.95795   0.48353   0.00000  Uiso   1.00
N548   N     0.18399   0.26932   0.58490   0.00000  Uiso   1.00
N549   N     0.47928   0.16301   0.82131   0.00000  Uiso   1.00
N550   N     0.43580   0.00931   0.42313   0.00000  Uiso   1.00
N551   N     0.24104   0.32069   0.52451   0.00000  Uiso   1.00
N552   N     0.53633   0.21437   0.76092   0.00000  Uiso   1.00
C553   C     0.87445   0.84234   0.88523   0.00000  Uiso   1.00
C554   C     0.90809   0.86633   0.82867   0.00000  Uiso   1.00
C555   C     0.96498   0.85471   0.81475   0.00000  Uiso   1.00
C556   C     0.98794   0.88085   0.76081   0.00000  Uiso   1.00
C557   C     0.04516   0.91252   0.67884   0.00000  Uiso   1.00
C558   C     0.82228   0.81264   0.85660   0.00000  Uiso   1.00
C559   C     0.80702   0.75589   0.86617   0.00000  Uiso   1.00
C560   C     0.75773   0.73685   0.83575   0.00000  Uiso   1.00
C561   C     0.68170   0.68519   0.79718   0.00000  Uiso   1.00
C562   C     0.85159   0.89403   0.92175   0.00000  Uiso   1.00
C563   C     0.86096   0.90570   0.98611   0.00000  Uiso   1.00
C564   C     0.83633   0.95517   0.01055   0.00000  Uiso   1.00
C565   C     0.80581   0.02988   0.07313   0.00000  Uiso   1.00
C566   C     0.81405   0.90943   0.81420   0.00000  Uiso   1.00
C567   C     0.87528   0.90277   0.79009   0.00000  Uiso   1.00
C568   C     0.89815   0.92893   0.73616   0.00000  Uiso   1.00
C569   C     0.95507   0.91736   0.72217   0.00000  Uiso   1.00
C570   C     0.78947   0.84908   0.81802   0.00000  Uiso   1.00
C571   C     0.74019   0.83012   0.78759   0.00000  Uiso   1.00
C572   C     0.72486   0.77335   0.79711   0.00000  Uiso   1.00
C573   C     0.81878   0.93047   0.88317   0.00000  Uiso   1.00
C574   C     0.79413   0.97993   0.90752   0.00000  Uiso   1.00
C575   C     0.80346   0.99168   0.97190   0.00000  Uiso   1.00
H576   H     0.89999   0.81397   0.91526   0.00000  Uiso   1.00
H577   H     0.99036   0.82650   0.84461   0.00000  Uiso   1.00
H578   H     0.83241   0.72771   0.89603   0.00000  Uiso   1.00
H579   H     0.88635   0.87749   0.01594   0.00000  Uiso   1.00
H580   H     0.07607   0.85645   0.74925   0.00000  Uiso   1.00
H581   H     0.74303   0.64813   0.85769   0.00000  Uiso   1.00
H582   H     0.85676   0.96399   0.11056   0.00000  Uiso   1.00
H583   H     0.78850   0.93780   0.78417   0.00000  Uiso   1.00
H584   H     0.87275   0.95713   0.70632   0.00000  Uiso   1.00
H585   H     0.71481   0.85833   0.75774   0.00000  Uiso   1.00
H586   H     0.76874   0.00812   0.87765   0.00000  Uiso   1.00
H587   H     0.98062   0.96247   0.63701   0.00000  Uiso   1.00
H588   H     0.64757   0.75415   0.74545   0.00000  Uiso   1.00
H589   H     0.76130   0.07001   0.99831   0.00000  Uiso   1.00
O590   O     0.08578   0.91992   0.64427   0.00000  Uiso   1.00
O591   O     0.64883   0.64662   0.78655   0.00000  Uiso   1.00
O592   O     0.79804   0.06102   0.11830   0.00000  Uiso   1.00
N593   N     0.04205   0.87876   0.73353   0.00000  Uiso   1.00
N594   N     0.73068   0.68399   0.83490   0.00000  Uiso   1.00
N595   N     0.83699   0.97928   0.07131   0.00000  Uiso   1.00
N596   N     0.99069   0.93580   0.67313   0.00000  Uiso   1.00
N597   N     0.67931   0.74104   0.77451   0.00000  Uiso   1.00
N598   N     0.78563   0.03633   0.01092   0.00000  Uiso   1.00
C599   C     0.37445   0.34234   0.38523   0.00000  Uiso   1.00
C600   C     0.40809   0.36633   0.32867   0.00000  Uiso   1.00
C601   C     0.46498   0.35471   0.31475   0.00000  Uiso   1.00
C602   C     0.48794   0.38085   0.26081   0.00000  Uiso   1.00
C603   C     0.54516   0.41252   0.17884   0.00000  Uiso   1.00
C604   C     0.32228   0.31264   0.35660   0.00000  Uiso   1.00
C605   C     0.30702   0.25589   0.36617   0.00000  Uiso   1.00
C606   C     0.25773   0.23685   0.33575   0.00000  Uiso   1.00
C607   C     0.18170   0.18519   0.29718   0.00000  Uiso   1.00
C608   C     0.35159   0.39403   0.42175   0.00000  Uiso   1.00
C609   C     0.36096   0.40570   0.48611   0.00000  Uiso   1.00
C610   C     0.33633   0.45517   0.51055   0.00000  Uiso   1.00
C611   C     0.30581   0.52988   0.57313   0.00000  Uiso   1.00
C612   C     0.31405   0.40943   0.31420   0.00000  Uiso   1.00
C613   C     0.37528   0.40277   0.29009   0.00000  Uiso   1.00
C614   C     0.39815   0.42893   0.23616   0.00000  Uiso   1.00
C615   C     0.45507   0.41736   0.22217   0.00000  Uiso   1.00
C616   C     0.28947   0.34908   0.31802   0.00000  Uiso   1.00
C617   C     0.24019   0.33012   0.28759   0.00000  Uiso   1.00
C618   C     0.22486   0.27335   0.29711   0.00000  Uiso   1.00
C619   C     0.31878   0.43047   0.38317   0.00000  Uiso   1.00
C620   C     0.29413   0.47993   0.40752   0.00000  Uiso   1.00
C621   C     0.30346   0.49168   0.47190   0.00000  Uiso   1.00
H622   H     0.39999   0.31397   0.41526   0.00000  Uiso   1.00
H623   H     0.49036   0.32650   0.34461   0.00000  Uiso   1.00
H624   H     0.33241   0.22771   0.39603   0.00000  Uiso   1.00
H625   H     0.38635   0.37749   0.51594   0.00000  Uiso   1.00
H626   H     0.57607   0.35645   0.24925   0.00000  Uiso   1.00
H627   H     0.24303   0.14813   0.35769   0.00000  Uiso   1.00
H628   H     0.35676   0.46399   0.61056   0.00000  Uiso   1.00
H629   H     0.28850   0.43780   0.28417   0.00000  Uiso   1.00
H630   H     0.37275   0.45713   0.20632   0.00000  Uiso   1.00
H631   H     0.21481   0.35833   0.25774   0.00000  Uiso   1.00
H632   H     0.26874   0.50812   0.37765   0.00000  Uiso   1.00
H633   H     0.48062   0.46247   0.13701   0.00000  Uiso   1.00
H634   H     0.14757   0.25415   0.24545   0.00000  Uiso   1.00
H635   H     0.26130   0.57001   0.49831   0.00000  Uiso   1.00
O636   O     0.58578   0.41992   0.14427   0.00000  Uiso   1.00
O637   O     0.14883   0.14662   0.28655   0.00000  Uiso   1.00
O638   O     0.29804   0.56102   0.61830   0.00000  Uiso   1.00
N639   N     0.54205   0.37876   0.23353   0.00000  Uiso   1.00
N640   N     0.23068   0.18399   0.33490   0.00000  Uiso   1.00
N641   N     0.33699   0.47928   0.57131   0.00000  Uiso   1.00
N642   N     0.49069   0.43580   0.17313   0.00000  Uiso   1.00
N643   N     0.17931   0.24104   0.27451   0.00000  Uiso   1.00
N644   N     0.28563   0.53633   0.51092   0.00000  Uiso   1.00
C645   C     0.62555   0.65766   0.38523   0.00000  Uiso   1.00
C646   C     0.59191   0.63367   0.32867   0.00000  Uiso   1.00
C647   C     0.53502   0.64529   0.31475   0.00000  Uiso   1.00
C648   C     0.51206   0.61915   0.26081   0.00000  Uiso   1.00
C649   C     0.45484   0.58748   0.17884   0.00000  Uiso   1.00
C650   C     0.67772   0.68736   0.35660   0.00000  Uiso   1.00
C651   C     0.69298   0.74411   0.36617   0.00000  Uiso   1.00
C652   C     0.74227   0.76315   0.33575   0.00000  Uiso   1.00
C653   C     0.81830   0.81481   0.29718   0.00000  Uiso   1.00
C654   C     0.64841   0.60597   0.42175   0.00000  Uiso   1.00
C655   C     0.63904   0.59430   0.48611   0.00000  Uiso   1.00
C656   C     0.66367   0.54483   0.51055   0.00000  Uiso   1.00
C657   C     0.69419   0.47012   0.57313   0.00000  Uiso   1.00
C658   C     0.68595   0.59057   0.31420   0.00000  Uiso   1.00
C659   C     0.62472   0.59723   0.29009   0.00000  Uiso   1.00
C660   C     0.60185   0.57107   0.23616   0.00000  Uiso   1.00
C661   C     0.54493   0.58264   0.22217   0.00000  Uiso   1.00
C662   C     0.71053   0.65092   0.31802   0.00000  Uiso   1.00
C663   C     0.75981   0.66988   0.28759   0.00000  Uiso   1.00
C664   C     0.77514   0.72665   0.29711   0.00000  Uiso   1.00
C665   C     0.68122   0.56953   0.38317   0.00000  Uiso   1.00
C666   C     0.70587   0.52007   0.40752   0.00000  Uiso   1.00
C667   C     0.69654   0.50832   0.47190   0.00000  Uiso   1.00
H668   H     0.60001   0.68603   0.41526   0.00000  Uiso   1.00
H669   H     0.50964   0.67350   0.34461   0.00000  Uiso   1.00
H670   H     0.66759   0.77229   0.39603   0.00000  Uiso   1.00
H671   H     0.61365   0.62251   0.51594   0.00000  Uiso   1.00
H672   H     0.42393   0.64355   0.24925   0.00000  Uiso   1.00
H673   H     0.75697   0.85187   0.35769   0.00000  Uiso   1.00
H674   H     0.64324   0.53601   0.61056   0.00000  Uiso   1.00
H675   H     0.71150   0.56220   0.28417   0.00000  Uiso   1.00
H676   H     0.62725   0.54287   0.20632   0.00000  Uiso   1.00
H677   H     0.78519   0.64167   0.25774   0.00000  Uiso   1.00
H678   H     0.73126   0.49188   0.37765   0.00000  Uiso   1.00
H679   H     0.51938   0.53753   0.13701   0.00000  Uiso   1.00
H680   H     0.85243   0.74585   0.24545   0.00000  Uiso   1.00
H681   H     0.73870   0.42999   0.49831   0.00000  Uiso   1.00
O682   O     0.41422   0.58008   0.14427   0.00000  Uiso   1.00
O683   O     0.85117   0.85338   0.28655   0.00000  Uiso   1.00
O684   O     0.70196   0.43898   0.61830   0.00000  Uiso   1.00
N685   N     0.45795   0.62124   0.23353   0.00000  Uiso   1.00
N686   N     0.76932   0.81601   0.33490   0.00000  Uiso   1.00
N687   N     0.66301   0.52072   0.57131   0.00000  Uiso   1.00
N688   N     0.50931   0.56420   0.17313   0.00000  Uiso   1.00
N689   N     0.82069   0.75896   0.27451   0.00000  Uiso   1.00
N690   N     0.71437   0.46367   0.51092   0.00000  Uiso   1.00
C691   C     0.12555   0.15766   0.88523   0.00000  Uiso   1.00
C692   C     0.09191   0.13367   0.82867   0.00000  Uiso   1.00
C693   C     0.03502   0.14529   0.81475   0.00000  Uiso   1.00
C694   C     0.01206   0.11915   0.76081   0.00000  Uiso   1.00
C695   C     0.95484   0.08748   0.67884   0.00000  Uiso   1.00
C696   C     0.17772   0.18736   0.85660   0.00000  Uiso   1.00
C697   C     0.19298   0.24411   0.86617   0.00000  Uiso   1.00
C698   C     0.24227   0.26315   0.83575   0.00000  Uiso   1.00
C699   C     0.31830   0.31481   0.79718   0.00000  Uiso   1.00
C700   C     0.14841   0.10597   0.92175   0.00000  Uiso   1.00
C701   C     0.13904   0.09430   0.98611   0.00000  Uiso   1.00
C702   C     0.16367   0.04483   0.01055   0.00000  Uiso   1.00
C703   C     0.19419   0.97012   0.07313   0.00000  Uiso   1.00
C704   C     0.18595   0.09057   0.81420   0.00000  Uiso   1.00
C705   C     0.12472   0.09723   0.79009   0.00000  Uiso   1.00
C706   C     0.10185   0.07107   0.73616   0.00000  Uiso   1.00
C707   C     0.04493   0.08264   0.72217   0.00000  Uiso   1.00
C708   C     0.21053   0.15092   0.81802   0.00000  Uiso   1.00
C709   C     0.25981   0.16988   0.78759   0.00000  Uiso   1.00
C710   C     0.27514   0.22665   0.79711   0.00000  Uiso   1.00
C711   C     0.18122   0.06953   0.88317   0.00000  Uiso   1.00
C712   C     0.20587   0.02007   0.90752   0.00000  Uiso   1.00
C713   C     0.19654   0.00832   0.97190   0.00000  Uiso   1.00
H714   H     0.10001   0.18603   0.91526   0.00000  Uiso   1.00
H715   H     0.00964   0.17350   0.84461   0.00000  Uiso   1.00
H716   H     0.16759   0.27229   0.89603   0.00000  Uiso   1.00
H717   H     0.11365   0.12251   0.01594   0.00000  Uiso   1.00
H718   H     0.92393   0.14355   0.74925   0.00000  Uiso   1.00
H719   H     0.25697   0.35187   0.85769   0.00000  Uiso   1.00
H720   H     0.14324   0.03601   0.11056   0.00000  Uiso   1.00
H721   H     0.21150   0.06220   0.78417   0.00000  Uiso   1.00
H722   H     0.12725   0.04287   0.70632   0.00000  Uiso   1.00
H723   H     0.28519   0.14167   0.75774   0.00000  Uiso   1.00
H724   H     0.23126   0.99188   0.87765   0.00000  Uiso   1.00
H725   H     0.01938   0.03753   0.63701   0.00000  Uiso   1.00
H726   H     0.35243   0.24585   0.74545   0.00000  Uiso   1.00
H727   H     0.23870   0.92999   0.99831   0.00000  Uiso   1.00
O728   O     0.91422   0.08008   0.64427   0.00000  Uiso   1.00
O729   O     0.35117   0.35338   0.78655   0.00000  Uiso   1.00
O730   O     0.20196   0.93898   0.11830   0.00000  Uiso   1.00
N731   N     0.95795   0.12124   0.73353   0.00000  Uiso   1.00
N732   N     0.26932   0.31601   0.83490   0.00000  Uiso   1.00
N733   N     0.16301   0.02072   0.07131   0.00000  Uiso   1.00
N734   N     0.00931   0.06420   0.67313   0.00000  Uiso   1.00
N735   N     0.32069   0.25896   0.77451   0.00000  Uiso   1.00
N736   N     0.21437   0.96367   0.01092   0.00000  Uiso   1.00
