data_job_04788
_audit_creation_date              2018-12-19
_audit_creation_method            'Materials Studio'
_symmetry_space_group_name_H-M    'P1'
_symmetry_Int_Tables_number       1
_symmetry_cell_setting            triclinic
loop_
_symmetry_equiv_pos_as_xyz
  x,y,z
_cell_length_a                    17.2989
_cell_length_b                    17.2989
_cell_length_c                    28.8834
_cell_angle_alpha                 90.0000
_cell_angle_beta                  90.0000
_cell_angle_gamma                 90.0000
loop_
_atom_site_label
_atom_site_type_symbol
_atom_site_fract_x
_atom_site_fract_y
_atom_site_fract_z
_atom_site_U_iso_or_equiv
_atom_site_adp_type
_atom_site_occupancy
C1     C     0.58723   0.91884   0.49938   0.00000  Uiso   1.00
C2     C     0.59168   0.87337   0.54453   0.00000  Uiso   1.00
C3     C     0.55572   0.89325   0.58579   0.00000  Uiso   1.00
C4     C     0.56692   0.84408   0.62319   0.00000  Uiso   1.00
C5     C     0.56694   0.78364   0.69388   0.00000  Uiso   1.00
C6     C     0.67054   0.93656   0.48578   0.00000  Uiso   1.00
C7     C     0.70088   0.00958   0.47765   0.00000  Uiso   1.00
C8     C     0.77847   0.01361   0.46558   0.00000  Uiso   1.00
C9     C     0.90091   0.05127   0.44504   0.00000  Uiso   1.00
C10    C     0.55693   0.86252   0.46304   0.00000  Uiso   1.00
C11    C     0.49175   0.87328   0.43578   0.00000  Uiso   1.00
C12    C     0.47369   0.81497   0.40457   0.00000  Uiso   1.00
C13    C     0.41972   0.73766   0.34872   0.00000  Uiso   1.00
C14    C     0.67107   0.79616   0.49241   0.00000  Uiso   1.00
C15    C     0.63722   0.80674   0.54074   0.00000  Uiso   1.00
C16    C     0.64848   0.75752   0.57808   0.00000  Uiso   1.00
C17    C     0.61254   0.77733   0.61940   0.00000  Uiso   1.00
C18    C     0.71609   0.86993   0.48200   0.00000  Uiso   1.00
C19    C     0.79365   0.87386   0.46994   0.00000  Uiso   1.00
C20    C     0.82410   0.94686   0.46179   0.00000  Uiso   1.00
C21    C     0.60247   0.79588   0.45926   0.00000  Uiso   1.00
C22    C     0.58451   0.73755   0.42808   0.00000  Uiso   1.00
C23    C     0.51931   0.74822   0.40077   0.00000  Uiso   1.00
H24    H     0.55178   0.97071   0.50232   0.00000  Uiso   1.00
H25    H     0.52049   0.94482   0.58871   0.00000  Uiso   1.00
H26    H     0.66563   0.06113   0.48057   0.00000  Uiso   1.00
H27    H     0.45652   0.92485   0.43872   0.00000  Uiso   1.00
H28    H     0.50590   0.88675   0.68282   0.00000  Uiso   1.00
H29    H     0.81193   0.13199   0.45480   0.00000  Uiso   1.00
H30    H     0.37099   0.84462   0.36654   0.00000  Uiso   1.00
H31    H     0.70653   0.74428   0.48946   0.00000  Uiso   1.00
H32    H     0.68373   0.70596   0.57515   0.00000  Uiso   1.00
H33    H     0.82887   0.82228   0.46701   0.00000  Uiso   1.00
H34    H     0.61976   0.68599   0.42516   0.00000  Uiso   1.00
H35    H     0.63839   0.69288   0.67181   0.00000  Uiso   1.00
H36    H     0.94442   0.93813   0.44379   0.00000  Uiso   1.00
H37    H     0.50348   0.65075   0.35553   0.00000  Uiso   1.00
O38    O     0.55438   0.76871   0.73392   0.00000  Uiso   1.00
O39    O     0.95587   0.09046   0.43476   0.00000  Uiso   1.00
O40    O     0.37736   0.71342   0.31896   0.00000  Uiso   1.00
N41    N     0.54020   0.84637   0.66847   0.00000  Uiso   1.00
N42    N     0.82632   0.07567   0.45529   0.00000  Uiso   1.00
N43    N     0.41409   0.80700   0.37276   0.00000  Uiso   1.00
N44    N     0.61149   0.74206   0.66255   0.00000  Uiso   1.00
N45    N     0.89761   0.97135   0.44937   0.00000  Uiso   1.00
N46    N     0.48538   0.70268   0.36684   0.00000  Uiso   1.00
C47    C     0.08723   0.41884   0.99938   0.00000  Uiso   1.00
C48    C     0.09168   0.37337   0.04453   0.00000  Uiso   1.00
C49    C     0.05572   0.39325   0.08579   0.00000  Uiso   1.00
C50    C     0.06692   0.34408   0.12319   0.00000  Uiso   1.00
C51    C     0.06694   0.28364   0.19388   0.00000  Uiso   1.00
C52    C     0.17054   0.43656   0.98578   0.00000  Uiso   1.00
C53    C     0.20088   0.50958   0.97765   0.00000  Uiso   1.00
C54    C     0.27847   0.51361   0.96558   0.00000  Uiso   1.00
C55    C     0.40091   0.55127   0.94504   0.00000  Uiso   1.00
C56    C     0.05693   0.36252   0.96304   0.00000  Uiso   1.00
C57    C     0.99175   0.37328   0.93578   0.00000  Uiso   1.00
C58    C     0.97369   0.31497   0.90457   0.00000  Uiso   1.00
C59    C     0.91972   0.23766   0.84872   0.00000  Uiso   1.00
C60    C     0.17107   0.29616   0.99241   0.00000  Uiso   1.00
C61    C     0.13722   0.30674   0.04074   0.00000  Uiso   1.00
C62    C     0.14848   0.25752   0.07808   0.00000  Uiso   1.00
C63    C     0.11254   0.27733   0.11940   0.00000  Uiso   1.00
C64    C     0.21609   0.36993   0.98200   0.00000  Uiso   1.00
C65    C     0.29365   0.37386   0.96994   0.00000  Uiso   1.00
C66    C     0.32410   0.44686   0.96179   0.00000  Uiso   1.00
C67    C     0.10247   0.29588   0.95926   0.00000  Uiso   1.00
C68    C     0.08451   0.23755   0.92808   0.00000  Uiso   1.00
C69    C     0.01931   0.24822   0.90077   0.00000  Uiso   1.00
H70    H     0.05178   0.47071   0.00232   0.00000  Uiso   1.00
H71    H     0.02049   0.44482   0.08871   0.00000  Uiso   1.00
H72    H     0.16563   0.56113   0.98057   0.00000  Uiso   1.00
H73    H     0.95652   0.42485   0.93872   0.00000  Uiso   1.00
H74    H     0.00590   0.38675   0.18282   0.00000  Uiso   1.00
H75    H     0.31193   0.63199   0.95480   0.00000  Uiso   1.00
H76    H     0.87099   0.34462   0.86654   0.00000  Uiso   1.00
H77    H     0.20653   0.24428   0.98946   0.00000  Uiso   1.00
H78    H     0.18373   0.20596   0.07515   0.00000  Uiso   1.00
H79    H     0.32887   0.32228   0.96701   0.00000  Uiso   1.00
H80    H     0.11976   0.18599   0.92516   0.00000  Uiso   1.00
H81    H     0.13839   0.19288   0.17181   0.00000  Uiso   1.00
H82    H     0.44442   0.43813   0.94379   0.00000  Uiso   1.00
H83    H     0.00348   0.15075   0.85553   0.00000  Uiso   1.00
O84    O     0.05438   0.26871   0.23392   0.00000  Uiso   1.00
O85    O     0.45587   0.59046   0.93476   0.00000  Uiso   1.00
O86    O     0.87736   0.21342   0.81896   0.00000  Uiso   1.00
N87    N     0.04020   0.34637   0.16847   0.00000  Uiso   1.00
N88    N     0.32632   0.57567   0.95529   0.00000  Uiso   1.00
N89    N     0.91409   0.30700   0.87276   0.00000  Uiso   1.00
N90    N     0.11149   0.24206   0.16255   0.00000  Uiso   1.00
N91    N     0.39761   0.47135   0.94937   0.00000  Uiso   1.00
N92    N     0.98538   0.20268   0.86684   0.00000  Uiso   1.00
C93    C     0.91277   0.58116   0.99938   0.00000  Uiso   1.00
C94    C     0.90832   0.62663   0.04453   0.00000  Uiso   1.00
C95    C     0.94428   0.60675   0.08579   0.00000  Uiso   1.00
C96    C     0.93308   0.65592   0.12319   0.00000  Uiso   1.00
C97    C     0.93306   0.71636   0.19388   0.00000  Uiso   1.00
C98    C     0.82946   0.56344   0.98578   0.00000  Uiso   1.00
C99    C     0.79912   0.49042   0.97765   0.00000  Uiso   1.00
C100   C     0.72153   0.48639   0.96558   0.00000  Uiso   1.00
C101   C     0.59909   0.44873   0.94504   0.00000  Uiso   1.00
C102   C     0.94307   0.63748   0.96304   0.00000  Uiso   1.00
C103   C     0.00825   0.62672   0.93578   0.00000  Uiso   1.00
C104   C     0.02631   0.68503   0.90457   0.00000  Uiso   1.00
C105   C     0.08028   0.76234   0.84872   0.00000  Uiso   1.00
C106   C     0.82893   0.70384   0.99241   0.00000  Uiso   1.00
C107   C     0.86278   0.69326   0.04074   0.00000  Uiso   1.00
C108   C     0.85152   0.74248   0.07808   0.00000  Uiso   1.00
C109   C     0.88746   0.72267   0.11940   0.00000  Uiso   1.00
C110   C     0.78391   0.63007   0.98200   0.00000  Uiso   1.00
C111   C     0.70635   0.62614   0.96994   0.00000  Uiso   1.00
C112   C     0.67590   0.55314   0.96179   0.00000  Uiso   1.00
C113   C     0.89753   0.70412   0.95926   0.00000  Uiso   1.00
C114   C     0.91549   0.76245   0.92808   0.00000  Uiso   1.00
C115   C     0.98069   0.75178   0.90077   0.00000  Uiso   1.00
H116   H     0.94822   0.52929   0.00232   0.00000  Uiso   1.00
H117   H     0.97951   0.55518   0.08871   0.00000  Uiso   1.00
H118   H     0.83437   0.43887   0.98057   0.00000  Uiso   1.00
H119   H     0.04348   0.57515   0.93872   0.00000  Uiso   1.00
H120   H     0.99410   0.61325   0.18282   0.00000  Uiso   1.00
H121   H     0.68807   0.36801   0.95480   0.00000  Uiso   1.00
H122   H     0.12901   0.65538   0.86654   0.00000  Uiso   1.00
H123   H     0.79347   0.75572   0.98946   0.00000  Uiso   1.00
H124   H     0.81627   0.79404   0.07515   0.00000  Uiso   1.00
H125   H     0.67113   0.67772   0.96701   0.00000  Uiso   1.00
H126   H     0.88024   0.81401   0.92516   0.00000  Uiso   1.00
H127   H     0.86161   0.80712   0.17181   0.00000  Uiso   1.00
H128   H     0.55558   0.56187   0.94379   0.00000  Uiso   1.00
H129   H     0.99652   0.84925   0.85553   0.00000  Uiso   1.00
O130   O     0.94562   0.73129   0.23392   0.00000  Uiso   1.00
O131   O     0.54413   0.40954   0.93476   0.00000  Uiso   1.00
O132   O     0.12264   0.78658   0.81896   0.00000  Uiso   1.00
N133   N     0.95980   0.65363   0.16847   0.00000  Uiso   1.00
N134   N     0.67368   0.42433   0.95529   0.00000  Uiso   1.00
N135   N     0.08591   0.69300   0.87276   0.00000  Uiso   1.00
N136   N     0.88851   0.75794   0.16255   0.00000  Uiso   1.00
N137   N     0.60239   0.52865   0.94937   0.00000  Uiso   1.00
N138   N     0.01462   0.79732   0.86684   0.00000  Uiso   1.00
C139   C     0.41277   0.08116   0.49938   0.00000  Uiso   1.00
C140   C     0.40832   0.12663   0.54453   0.00000  Uiso   1.00
C141   C     0.44428   0.10675   0.58579   0.00000  Uiso   1.00
C142   C     0.43308   0.15592   0.62319   0.00000  Uiso   1.00
C143   C     0.43306   0.21636   0.69388   0.00000  Uiso   1.00
C144   C     0.32946   0.06344   0.48578   0.00000  Uiso   1.00
C145   C     0.29912   0.99042   0.47765   0.00000  Uiso   1.00
C146   C     0.22153   0.98639   0.46558   0.00000  Uiso   1.00
C147   C     0.09909   0.94873   0.44504   0.00000  Uiso   1.00
C148   C     0.44307   0.13748   0.46304   0.00000  Uiso   1.00
C149   C     0.50825   0.12672   0.43578   0.00000  Uiso   1.00
C150   C     0.52631   0.18503   0.40457   0.00000  Uiso   1.00
C151   C     0.58028   0.26234   0.34872   0.00000  Uiso   1.00
C152   C     0.32893   0.20384   0.49241   0.00000  Uiso   1.00
C153   C     0.36278   0.19326   0.54074   0.00000  Uiso   1.00
C154   C     0.35152   0.24248   0.57808   0.00000  Uiso   1.00
C155   C     0.38746   0.22267   0.61940   0.00000  Uiso   1.00
C156   C     0.28391   0.13007   0.48200   0.00000  Uiso   1.00
C157   C     0.20635   0.12614   0.46994   0.00000  Uiso   1.00
C158   C     0.17590   0.05314   0.46179   0.00000  Uiso   1.00
C159   C     0.39753   0.20412   0.45926   0.00000  Uiso   1.00
C160   C     0.41549   0.26245   0.42808   0.00000  Uiso   1.00
C161   C     0.48069   0.25178   0.40077   0.00000  Uiso   1.00
H162   H     0.44822   0.02929   0.50232   0.00000  Uiso   1.00
H163   H     0.47951   0.05518   0.58871   0.00000  Uiso   1.00
H164   H     0.33437   0.93887   0.48057   0.00000  Uiso   1.00
H165   H     0.54348   0.07515   0.43872   0.00000  Uiso   1.00
H166   H     0.49410   0.11325   0.68282   0.00000  Uiso   1.00
H167   H     0.18807   0.86801   0.45480   0.00000  Uiso   1.00
H168   H     0.62901   0.15538   0.36654   0.00000  Uiso   1.00
H169   H     0.29347   0.25572   0.48946   0.00000  Uiso   1.00
H170   H     0.31627   0.29404   0.57515   0.00000  Uiso   1.00
H171   H     0.17113   0.17772   0.46701   0.00000  Uiso   1.00
H172   H     0.38024   0.31401   0.42516   0.00000  Uiso   1.00
H173   H     0.36161   0.30712   0.67181   0.00000  Uiso   1.00
H174   H     0.05558   0.06187   0.44379   0.00000  Uiso   1.00
H175   H     0.49652   0.34925   0.35553   0.00000  Uiso   1.00
O176   O     0.44562   0.23129   0.73392   0.00000  Uiso   1.00
O177   O     0.04413   0.90954   0.43476   0.00000  Uiso   1.00
O178   O     0.62264   0.28658   0.31896   0.00000  Uiso   1.00
N179   N     0.45980   0.15363   0.66847   0.00000  Uiso   1.00
N180   N     0.17368   0.92433   0.45529   0.00000  Uiso   1.00
N181   N     0.58591   0.19300   0.37276   0.00000  Uiso   1.00
N182   N     0.38851   0.25794   0.66255   0.00000  Uiso   1.00
N183   N     0.10239   0.02865   0.44937   0.00000  Uiso   1.00
N184   N     0.51462   0.29732   0.36684   0.00000  Uiso   1.00
C185   C     0.08116   0.08723   0.74938   0.00000  Uiso   1.00
C186   C     0.12663   0.09168   0.79453   0.00000  Uiso   1.00
C187   C     0.10675   0.05572   0.83579   0.00000  Uiso   1.00
C188   C     0.15592   0.06692   0.87319   0.00000  Uiso   1.00
C189   C     0.21636   0.06694   0.94388   0.00000  Uiso   1.00
C190   C     0.06344   0.17054   0.73578   0.00000  Uiso   1.00
C191   C     0.99042   0.20088   0.72765   0.00000  Uiso   1.00
C192   C     0.98639   0.27847   0.71558   0.00000  Uiso   1.00
C193   C     0.94873   0.40091   0.69504   0.00000  Uiso   1.00
C194   C     0.13748   0.05693   0.71304   0.00000  Uiso   1.00
C195   C     0.12672   0.99175   0.68578   0.00000  Uiso   1.00
C196   C     0.18503   0.97369   0.65457   0.00000  Uiso   1.00
C197   C     0.26234   0.91972   0.59872   0.00000  Uiso   1.00
C198   C     0.20384   0.17107   0.74241   0.00000  Uiso   1.00
C199   C     0.19326   0.13722   0.79074   0.00000  Uiso   1.00
C200   C     0.24248   0.14848   0.82808   0.00000  Uiso   1.00
C201   C     0.22267   0.11254   0.86940   0.00000  Uiso   1.00
C202   C     0.13007   0.21609   0.73200   0.00000  Uiso   1.00
C203   C     0.12614   0.29365   0.71994   0.00000  Uiso   1.00
C204   C     0.05314   0.32410   0.71179   0.00000  Uiso   1.00
C205   C     0.20412   0.10247   0.70926   0.00000  Uiso   1.00
C206   C     0.26245   0.08451   0.67808   0.00000  Uiso   1.00
C207   C     0.25178   0.01931   0.65077   0.00000  Uiso   1.00
H208   H     0.02929   0.05178   0.75232   0.00000  Uiso   1.00
H209   H     0.05518   0.02049   0.83871   0.00000  Uiso   1.00
H210   H     0.93887   0.16563   0.73057   0.00000  Uiso   1.00
H211   H     0.07515   0.95652   0.68872   0.00000  Uiso   1.00
H212   H     0.11325   0.00590   0.93282   0.00000  Uiso   1.00
H213   H     0.86801   0.31193   0.70480   0.00000  Uiso   1.00
H214   H     0.15538   0.87099   0.61654   0.00000  Uiso   1.00
H215   H     0.25572   0.20653   0.73946   0.00000  Uiso   1.00
H216   H     0.29404   0.18373   0.82515   0.00000  Uiso   1.00
H217   H     0.17772   0.32887   0.71701   0.00000  Uiso   1.00
H218   H     0.31401   0.11976   0.67516   0.00000  Uiso   1.00
H219   H     0.30712   0.13839   0.92181   0.00000  Uiso   1.00
H220   H     0.06187   0.44442   0.69379   0.00000  Uiso   1.00
H221   H     0.34925   0.00348   0.60553   0.00000  Uiso   1.00
O222   O     0.23129   0.05438   0.98392   0.00000  Uiso   1.00
O223   O     0.90954   0.45587   0.68476   0.00000  Uiso   1.00
O224   O     0.28658   0.87736   0.56896   0.00000  Uiso   1.00
N225   N     0.15363   0.04020   0.91847   0.00000  Uiso   1.00
N226   N     0.92433   0.32632   0.70529   0.00000  Uiso   1.00
N227   N     0.19300   0.91409   0.62276   0.00000  Uiso   1.00
N228   N     0.25794   0.11149   0.91255   0.00000  Uiso   1.00
N229   N     0.02865   0.39761   0.69937   0.00000  Uiso   1.00
N230   N     0.29732   0.98538   0.61684   0.00000  Uiso   1.00
C231   C     0.58116   0.58723   0.24938   0.00000  Uiso   1.00
C232   C     0.62663   0.59168   0.29453   0.00000  Uiso   1.00
C233   C     0.60675   0.55572   0.33579   0.00000  Uiso   1.00
C234   C     0.65592   0.56692   0.37319   0.00000  Uiso   1.00
C235   C     0.71636   0.56694   0.44388   0.00000  Uiso   1.00
C236   C     0.56344   0.67054   0.23578   0.00000  Uiso   1.00
C237   C     0.49042   0.70088   0.22765   0.00000  Uiso   1.00
C238   C     0.48639   0.77847   0.21558   0.00000  Uiso   1.00
C239   C     0.44873   0.90091   0.19504   0.00000  Uiso   1.00
C240   C     0.63748   0.55693   0.21304   0.00000  Uiso   1.00
C241   C     0.62672   0.49175   0.18578   0.00000  Uiso   1.00
C242   C     0.68503   0.47369   0.15457   0.00000  Uiso   1.00
C243   C     0.76234   0.41972   0.09872   0.00000  Uiso   1.00
C244   C     0.70384   0.67107   0.24241   0.00000  Uiso   1.00
C245   C     0.69326   0.63722   0.29074   0.00000  Uiso   1.00
C246   C     0.74248   0.64848   0.32808   0.00000  Uiso   1.00
C247   C     0.72267   0.61254   0.36940   0.00000  Uiso   1.00
C248   C     0.63007   0.71609   0.23200   0.00000  Uiso   1.00
C249   C     0.62614   0.79365   0.21994   0.00000  Uiso   1.00
C250   C     0.55314   0.82410   0.21179   0.00000  Uiso   1.00
C251   C     0.70412   0.60247   0.20926   0.00000  Uiso   1.00
C252   C     0.76245   0.58451   0.17808   0.00000  Uiso   1.00
C253   C     0.75178   0.51931   0.15077   0.00000  Uiso   1.00
H254   H     0.52929   0.55178   0.25232   0.00000  Uiso   1.00
H255   H     0.55518   0.52049   0.33871   0.00000  Uiso   1.00
H256   H     0.43887   0.66563   0.23057   0.00000  Uiso   1.00
H257   H     0.57515   0.45652   0.18872   0.00000  Uiso   1.00
H258   H     0.61325   0.50590   0.43282   0.00000  Uiso   1.00
H259   H     0.36801   0.81193   0.20480   0.00000  Uiso   1.00
H260   H     0.65538   0.37099   0.11654   0.00000  Uiso   1.00
H261   H     0.75572   0.70653   0.23946   0.00000  Uiso   1.00
H262   H     0.79404   0.68373   0.32515   0.00000  Uiso   1.00
H263   H     0.67772   0.82887   0.21701   0.00000  Uiso   1.00
H264   H     0.81401   0.61976   0.17516   0.00000  Uiso   1.00
H265   H     0.80712   0.63839   0.42181   0.00000  Uiso   1.00
H266   H     0.56187   0.94442   0.19379   0.00000  Uiso   1.00
H267   H     0.84925   0.50348   0.10553   0.00000  Uiso   1.00
O268   O     0.73129   0.55438   0.48392   0.00000  Uiso   1.00
O269   O     0.40954   0.95587   0.18476   0.00000  Uiso   1.00
O270   O     0.78658   0.37736   0.06896   0.00000  Uiso   1.00
N271   N     0.65363   0.54020   0.41847   0.00000  Uiso   1.00
N272   N     0.42433   0.82632   0.20529   0.00000  Uiso   1.00
N273   N     0.69300   0.41409   0.12276   0.00000  Uiso   1.00
N274   N     0.75794   0.61149   0.41255   0.00000  Uiso   1.00
N275   N     0.52865   0.89761   0.19937   0.00000  Uiso   1.00
N276   N     0.79732   0.48538   0.11684   0.00000  Uiso   1.00
C277   C     0.41884   0.41277   0.24938   0.00000  Uiso   1.00
C278   C     0.37337   0.40832   0.29453   0.00000  Uiso   1.00
C279   C     0.39325   0.44428   0.33579   0.00000  Uiso   1.00
C280   C     0.34408   0.43308   0.37319   0.00000  Uiso   1.00
C281   C     0.28364   0.43306   0.44388   0.00000  Uiso   1.00
C282   C     0.43656   0.32946   0.23578   0.00000  Uiso   1.00
C283   C     0.50958   0.29912   0.22765   0.00000  Uiso   1.00
C284   C     0.51361   0.22153   0.21558   0.00000  Uiso   1.00
C285   C     0.55127   0.09909   0.19504   0.00000  Uiso   1.00
C286   C     0.36252   0.44307   0.21304   0.00000  Uiso   1.00
C287   C     0.37328   0.50825   0.18578   0.00000  Uiso   1.00
C288   C     0.31497   0.52631   0.15457   0.00000  Uiso   1.00
C289   C     0.23766   0.58028   0.09872   0.00000  Uiso   1.00
C290   C     0.29616   0.32893   0.24241   0.00000  Uiso   1.00
C291   C     0.30674   0.36278   0.29074   0.00000  Uiso   1.00
C292   C     0.25752   0.35152   0.32808   0.00000  Uiso   1.00
C293   C     0.27733   0.38746   0.36940   0.00000  Uiso   1.00
C294   C     0.36993   0.28391   0.23200   0.00000  Uiso   1.00
C295   C     0.37386   0.20635   0.21994   0.00000  Uiso   1.00
C296   C     0.44686   0.17590   0.21179   0.00000  Uiso   1.00
C297   C     0.29588   0.39753   0.20926   0.00000  Uiso   1.00
C298   C     0.23755   0.41549   0.17808   0.00000  Uiso   1.00
C299   C     0.24822   0.48069   0.15077   0.00000  Uiso   1.00
H300   H     0.47071   0.44822   0.25232   0.00000  Uiso   1.00
H301   H     0.44482   0.47951   0.33871   0.00000  Uiso   1.00
H302   H     0.56113   0.33437   0.23057   0.00000  Uiso   1.00
H303   H     0.42485   0.54348   0.18872   0.00000  Uiso   1.00
H304   H     0.38675   0.49410   0.43282   0.00000  Uiso   1.00
H305   H     0.63199   0.18807   0.20480   0.00000  Uiso   1.00
H306   H     0.34462   0.62901   0.11654   0.00000  Uiso   1.00
H307   H     0.24428   0.29347   0.23946   0.00000  Uiso   1.00
H308   H     0.20596   0.31627   0.32515   0.00000  Uiso   1.00
H309   H     0.32228   0.17113   0.21701   0.00000  Uiso   1.00
H310   H     0.18599   0.38024   0.17516   0.00000  Uiso   1.00
H311   H     0.19288   0.36161   0.42181   0.00000  Uiso   1.00
H312   H     0.43813   0.05558   0.19379   0.00000  Uiso   1.00
H313   H     0.15075   0.49652   0.10553   0.00000  Uiso   1.00
O314   O     0.26871   0.44562   0.48392   0.00000  Uiso   1.00
O315   O     0.59046   0.04413   0.18476   0.00000  Uiso   1.00
O316   O     0.21342   0.62264   0.06896   0.00000  Uiso   1.00
N317   N     0.34637   0.45980   0.41847   0.00000  Uiso   1.00
N318   N     0.57567   0.17368   0.20529   0.00000  Uiso   1.00
N319   N     0.30700   0.58591   0.12276   0.00000  Uiso   1.00
N320   N     0.24206   0.38851   0.41255   0.00000  Uiso   1.00
N321   N     0.47135   0.10239   0.19937   0.00000  Uiso   1.00
N322   N     0.20268   0.51462   0.11684   0.00000  Uiso   1.00
C323   C     0.91884   0.91277   0.74938   0.00000  Uiso   1.00
C324   C     0.87337   0.90832   0.79453   0.00000  Uiso   1.00
C325   C     0.89325   0.94428   0.83579   0.00000  Uiso   1.00
C326   C     0.84408   0.93308   0.87319   0.00000  Uiso   1.00
C327   C     0.78364   0.93306   0.94388   0.00000  Uiso   1.00
C328   C     0.93656   0.82946   0.73578   0.00000  Uiso   1.00
C329   C     0.00958   0.79912   0.72765   0.00000  Uiso   1.00
C330   C     0.01361   0.72153   0.71558   0.00000  Uiso   1.00
C331   C     0.05127   0.59909   0.69504   0.00000  Uiso   1.00
C332   C     0.86252   0.94307   0.71304   0.00000  Uiso   1.00
C333   C     0.87328   0.00825   0.68578   0.00000  Uiso   1.00
C334   C     0.81497   0.02631   0.65457   0.00000  Uiso   1.00
C335   C     0.73766   0.08028   0.59872   0.00000  Uiso   1.00
C336   C     0.79616   0.82893   0.74241   0.00000  Uiso   1.00
C337   C     0.80674   0.86278   0.79074   0.00000  Uiso   1.00
C338   C     0.75752   0.85152   0.82808   0.00000  Uiso   1.00
C339   C     0.77733   0.88746   0.86940   0.00000  Uiso   1.00
C340   C     0.86993   0.78391   0.73200   0.00000  Uiso   1.00
C341   C     0.87386   0.70635   0.71994   0.00000  Uiso   1.00
C342   C     0.94686   0.67590   0.71179   0.00000  Uiso   1.00
C343   C     0.79588   0.89753   0.70926   0.00000  Uiso   1.00
C344   C     0.73755   0.91549   0.67808   0.00000  Uiso   1.00
C345   C     0.74822   0.98069   0.65077   0.00000  Uiso   1.00
H346   H     0.97071   0.94822   0.75232   0.00000  Uiso   1.00
H347   H     0.94482   0.97951   0.83871   0.00000  Uiso   1.00
H348   H     0.06113   0.83437   0.73057   0.00000  Uiso   1.00
H349   H     0.92485   0.04348   0.68872   0.00000  Uiso   1.00
H350   H     0.88675   0.99410   0.93282   0.00000  Uiso   1.00
H351   H     0.13199   0.68807   0.70480   0.00000  Uiso   1.00
H352   H     0.84462   0.12901   0.61654   0.00000  Uiso   1.00
H353   H     0.74428   0.79347   0.73946   0.00000  Uiso   1.00
H354   H     0.70596   0.81627   0.82515   0.00000  Uiso   1.00
H355   H     0.82228   0.67113   0.71701   0.00000  Uiso   1.00
H356   H     0.68599   0.88024   0.67516   0.00000  Uiso   1.00
H357   H     0.69288   0.86161   0.92181   0.00000  Uiso   1.00
H358   H     0.93813   0.55558   0.69379   0.00000  Uiso   1.00
H359   H     0.65075   0.99652   0.60553   0.00000  Uiso   1.00
O360   O     0.76871   0.94562   0.98392   0.00000  Uiso   1.00
O361   O     0.09046   0.54413   0.68476   0.00000  Uiso   1.00
O362   O     0.71342   0.12264   0.56896   0.00000  Uiso   1.00
N363   N     0.84637   0.95980   0.91847   0.00000  Uiso   1.00
N364   N     0.07567   0.67368   0.70529   0.00000  Uiso   1.00
N365   N     0.80700   0.08591   0.62276   0.00000  Uiso   1.00
N366   N     0.74206   0.88851   0.91255   0.00000  Uiso   1.00
N367   N     0.97135   0.60239   0.69937   0.00000  Uiso   1.00
N368   N     0.70268   0.01462   0.61684   0.00000  Uiso   1.00
C369   C     0.41277   0.58116   0.75062   0.00000  Uiso   1.00
C370   C     0.40832   0.62663   0.70547   0.00000  Uiso   1.00
C371   C     0.44428   0.60675   0.66421   0.00000  Uiso   1.00
C372   C     0.43308   0.65592   0.62681   0.00000  Uiso   1.00
C373   C     0.43306   0.71636   0.55612   0.00000  Uiso   1.00
C374   C     0.32946   0.56344   0.76422   0.00000  Uiso   1.00
C375   C     0.29912   0.49042   0.77235   0.00000  Uiso   1.00
C376   C     0.22153   0.48639   0.78442   0.00000  Uiso   1.00
C377   C     0.09909   0.44873   0.80496   0.00000  Uiso   1.00
C378   C     0.44307   0.63748   0.78696   0.00000  Uiso   1.00
C379   C     0.50825   0.62672   0.81422   0.00000  Uiso   1.00
C380   C     0.52631   0.68503   0.84543   0.00000  Uiso   1.00
C381   C     0.58028   0.76234   0.90128   0.00000  Uiso   1.00
C382   C     0.32893   0.70384   0.75759   0.00000  Uiso   1.00
C383   C     0.36278   0.69326   0.70926   0.00000  Uiso   1.00
C384   C     0.35152   0.74248   0.67192   0.00000  Uiso   1.00
C385   C     0.38746   0.72267   0.63060   0.00000  Uiso   1.00
C386   C     0.28391   0.63007   0.76800   0.00000  Uiso   1.00
C387   C     0.20635   0.62614   0.78006   0.00000  Uiso   1.00
C388   C     0.17590   0.55314   0.78821   0.00000  Uiso   1.00
C389   C     0.39753   0.70412   0.79074   0.00000  Uiso   1.00
C390   C     0.41549   0.76245   0.82192   0.00000  Uiso   1.00
C391   C     0.48069   0.75178   0.84923   0.00000  Uiso   1.00
H392   H     0.44822   0.52929   0.74768   0.00000  Uiso   1.00
H393   H     0.47951   0.55518   0.66129   0.00000  Uiso   1.00
H394   H     0.33437   0.43887   0.76943   0.00000  Uiso   1.00
H395   H     0.54348   0.57515   0.81128   0.00000  Uiso   1.00
H396   H     0.49410   0.61325   0.56718   0.00000  Uiso   1.00
H397   H     0.18807   0.36801   0.79520   0.00000  Uiso   1.00
H398   H     0.62901   0.65538   0.88346   0.00000  Uiso   1.00
H399   H     0.29347   0.75572   0.76054   0.00000  Uiso   1.00
H400   H     0.31627   0.79404   0.67485   0.00000  Uiso   1.00
H401   H     0.17113   0.67772   0.78299   0.00000  Uiso   1.00
H402   H     0.38024   0.81401   0.82484   0.00000  Uiso   1.00
H403   H     0.36161   0.80712   0.57819   0.00000  Uiso   1.00
H404   H     0.05558   0.56187   0.80621   0.00000  Uiso   1.00
H405   H     0.49652   0.84925   0.89447   0.00000  Uiso   1.00
O406   O     0.44562   0.73129   0.51608   0.00000  Uiso   1.00
O407   O     0.04413   0.40954   0.81524   0.00000  Uiso   1.00
O408   O     0.62264   0.78658   0.93104   0.00000  Uiso   1.00
N409   N     0.45980   0.65363   0.58153   0.00000  Uiso   1.00
N410   N     0.17368   0.42433   0.79471   0.00000  Uiso   1.00
N411   N     0.58591   0.69300   0.87724   0.00000  Uiso   1.00
N412   N     0.38851   0.75794   0.58745   0.00000  Uiso   1.00
N413   N     0.10239   0.52865   0.80063   0.00000  Uiso   1.00
N414   N     0.51462   0.79732   0.88316   0.00000  Uiso   1.00
C415   C     0.91277   0.08116   0.25062   0.00000  Uiso   1.00
C416   C     0.90832   0.12663   0.20547   0.00000  Uiso   1.00
C417   C     0.94428   0.10675   0.16421   0.00000  Uiso   1.00
C418   C     0.93308   0.15592   0.12681   0.00000  Uiso   1.00
C419   C     0.93306   0.21636   0.05612   0.00000  Uiso   1.00
C420   C     0.82946   0.06344   0.26422   0.00000  Uiso   1.00
C421   C     0.79912   0.99042   0.27235   0.00000  Uiso   1.00
C422   C     0.72153   0.98639   0.28442   0.00000  Uiso   1.00
C423   C     0.59909   0.94873   0.30496   0.00000  Uiso   1.00
C424   C     0.94307   0.13748   0.28696   0.00000  Uiso   1.00
C425   C     0.00825   0.12672   0.31422   0.00000  Uiso   1.00
C426   C     0.02631   0.18503   0.34543   0.00000  Uiso   1.00
C427   C     0.08028   0.26234   0.40128   0.00000  Uiso   1.00
C428   C     0.82893   0.20384   0.25759   0.00000  Uiso   1.00
C429   C     0.86278   0.19326   0.20926   0.00000  Uiso   1.00
C430   C     0.85152   0.24248   0.17192   0.00000  Uiso   1.00
C431   C     0.88746   0.22267   0.13060   0.00000  Uiso   1.00
C432   C     0.78391   0.13007   0.26800   0.00000  Uiso   1.00
C433   C     0.70635   0.12614   0.28006   0.00000  Uiso   1.00
C434   C     0.67590   0.05314   0.28821   0.00000  Uiso   1.00
C435   C     0.89753   0.20412   0.29074   0.00000  Uiso   1.00
C436   C     0.91549   0.26245   0.32192   0.00000  Uiso   1.00
C437   C     0.98069   0.25178   0.34923   0.00000  Uiso   1.00
H438   H     0.94822   0.02929   0.24768   0.00000  Uiso   1.00
H439   H     0.97951   0.05518   0.16129   0.00000  Uiso   1.00
H440   H     0.83437   0.93887   0.26943   0.00000  Uiso   1.00
H441   H     0.04348   0.07515   0.31128   0.00000  Uiso   1.00
H442   H     0.99410   0.11325   0.06718   0.00000  Uiso   1.00
H443   H     0.68807   0.86801   0.29520   0.00000  Uiso   1.00
H444   H     0.12901   0.15538   0.38346   0.00000  Uiso   1.00
H445   H     0.79347   0.25572   0.26054   0.00000  Uiso   1.00
H446   H     0.81627   0.29404   0.17485   0.00000  Uiso   1.00
H447   H     0.67113   0.17772   0.28299   0.00000  Uiso   1.00
H448   H     0.88024   0.31401   0.32484   0.00000  Uiso   1.00
H449   H     0.86161   0.30712   0.07819   0.00000  Uiso   1.00
H450   H     0.55558   0.06187   0.30621   0.00000  Uiso   1.00
H451   H     0.99652   0.34925   0.39447   0.00000  Uiso   1.00
O452   O     0.94562   0.23129   0.01608   0.00000  Uiso   1.00
O453   O     0.54413   0.90954   0.31524   0.00000  Uiso   1.00
O454   O     0.12264   0.28658   0.43104   0.00000  Uiso   1.00
N455   N     0.95980   0.15363   0.08153   0.00000  Uiso   1.00
N456   N     0.67368   0.92433   0.29471   0.00000  Uiso   1.00
N457   N     0.08591   0.19300   0.37724   0.00000  Uiso   1.00
N458   N     0.88851   0.25794   0.08745   0.00000  Uiso   1.00
N459   N     0.60239   0.02865   0.30063   0.00000  Uiso   1.00
N460   N     0.01462   0.29732   0.38316   0.00000  Uiso   1.00
C461   C     0.08723   0.91884   0.25062   0.00000  Uiso   1.00
C462   C     0.09168   0.87337   0.20547   0.00000  Uiso   1.00
C463   C     0.05572   0.89325   0.16421   0.00000  Uiso   1.00
C464   C     0.06692   0.84408   0.12681   0.00000  Uiso   1.00
C465   C     0.06694   0.78364   0.05612   0.00000  Uiso   1.00
C466   C     0.17054   0.93656   0.26422   0.00000  Uiso   1.00
C467   C     0.20088   0.00958   0.27235   0.00000  Uiso   1.00
C468   C     0.27847   0.01361   0.28442   0.00000  Uiso   1.00
C469   C     0.40091   0.05127   0.30496   0.00000  Uiso   1.00
C470   C     0.05693   0.86252   0.28696   0.00000  Uiso   1.00
C471   C     0.99175   0.87328   0.31422   0.00000  Uiso   1.00
C472   C     0.97369   0.81497   0.34543   0.00000  Uiso   1.00
C473   C     0.91972   0.73766   0.40128   0.00000  Uiso   1.00
C474   C     0.17107   0.79616   0.25759   0.00000  Uiso   1.00
C475   C     0.13722   0.80674   0.20926   0.00000  Uiso   1.00
C476   C     0.14848   0.75752   0.17192   0.00000  Uiso   1.00
C477   C     0.11254   0.77733   0.13060   0.00000  Uiso   1.00
C478   C     0.21609   0.86993   0.26800   0.00000  Uiso   1.00
C479   C     0.29365   0.87386   0.28006   0.00000  Uiso   1.00
C480   C     0.32410   0.94686   0.28821   0.00000  Uiso   1.00
C481   C     0.10247   0.79588   0.29074   0.00000  Uiso   1.00
C482   C     0.08451   0.73755   0.32192   0.00000  Uiso   1.00
C483   C     0.01931   0.74822   0.34923   0.00000  Uiso   1.00
H484   H     0.05178   0.97071   0.24768   0.00000  Uiso   1.00
H485   H     0.02049   0.94482   0.16129   0.00000  Uiso   1.00
H486   H     0.16563   0.06113   0.26943   0.00000  Uiso   1.00
H487   H     0.95652   0.92485   0.31128   0.00000  Uiso   1.00
H488   H     0.00590   0.88675   0.06718   0.00000  Uiso   1.00
H489   H     0.31193   0.13199   0.29520   0.00000  Uiso   1.00
H490   H     0.87099   0.84462   0.38346   0.00000  Uiso   1.00
H491   H     0.20653   0.74428   0.26054   0.00000  Uiso   1.00
H492   H     0.18373   0.70596   0.17485   0.00000  Uiso   1.00
H493   H     0.32887   0.82228   0.28299   0.00000  Uiso   1.00
H494   H     0.11976   0.68599   0.32484   0.00000  Uiso   1.00
H495   H     0.13839   0.69288   0.07819   0.00000  Uiso   1.00
H496   H     0.44442   0.93813   0.30621   0.00000  Uiso   1.00
H497   H     0.00348   0.65075   0.39447   0.00000  Uiso   1.00
O498   O     0.05438   0.76871   0.01608   0.00000  Uiso   1.00
O499   O     0.45587   0.09046   0.31524   0.00000  Uiso   1.00
O500   O     0.87736   0.71342   0.43104   0.00000  Uiso   1.00
N501   N     0.04020   0.84637   0.08153   0.00000  Uiso   1.00
N502   N     0.32632   0.07567   0.29471   0.00000  Uiso   1.00
N503   N     0.91409   0.80700   0.37724   0.00000  Uiso   1.00
N504   N     0.11149   0.74206   0.08745   0.00000  Uiso   1.00
N505   N     0.39761   0.97135   0.30063   0.00000  Uiso   1.00
N506   N     0.98538   0.70268   0.38316   0.00000  Uiso   1.00
C507   C     0.58723   0.41884   0.75062   0.00000  Uiso   1.00
C508   C     0.59168   0.37337   0.70547   0.00000  Uiso   1.00
C509   C     0.55572   0.39325   0.66421   0.00000  Uiso   1.00
C510   C     0.56692   0.34408   0.62681   0.00000  Uiso   1.00
C511   C     0.56694   0.28364   0.55612   0.00000  Uiso   1.00
C512   C     0.67054   0.43656   0.76422   0.00000  Uiso   1.00
C513   C     0.70088   0.50958   0.77235   0.00000  Uiso   1.00
C514   C     0.77847   0.51361   0.78442   0.00000  Uiso   1.00
C515   C     0.90091   0.55127   0.80496   0.00000  Uiso   1.00
C516   C     0.55693   0.36252   0.78696   0.00000  Uiso   1.00
C517   C     0.49175   0.37328   0.81422   0.00000  Uiso   1.00
C518   C     0.47369   0.31497   0.84543   0.00000  Uiso   1.00
C519   C     0.41972   0.23766   0.90128   0.00000  Uiso   1.00
C520   C     0.67107   0.29616   0.75759   0.00000  Uiso   1.00
C521   C     0.63722   0.30674   0.70926   0.00000  Uiso   1.00
C522   C     0.64848   0.25752   0.67192   0.00000  Uiso   1.00
C523   C     0.61254   0.27733   0.63060   0.00000  Uiso   1.00
C524   C     0.71609   0.36993   0.76800   0.00000  Uiso   1.00
C525   C     0.79365   0.37386   0.78006   0.00000  Uiso   1.00
C526   C     0.82410   0.44686   0.78821   0.00000  Uiso   1.00
C527   C     0.60247   0.29588   0.79074   0.00000  Uiso   1.00
C528   C     0.58451   0.23755   0.82192   0.00000  Uiso   1.00
C529   C     0.51931   0.24822   0.84923   0.00000  Uiso   1.00
H530   H     0.55178   0.47071   0.74768   0.00000  Uiso   1.00
H531   H     0.52049   0.44482   0.66129   0.00000  Uiso   1.00
H532   H     0.66563   0.56113   0.76943   0.00000  Uiso   1.00
H533   H     0.45652   0.42485   0.81128   0.00000  Uiso   1.00
H534   H     0.50590   0.38675   0.56718   0.00000  Uiso   1.00
H535   H     0.81193   0.63199   0.79520   0.00000  Uiso   1.00
H536   H     0.37099   0.34462   0.88346   0.00000  Uiso   1.00
H537   H     0.70653   0.24428   0.76054   0.00000  Uiso   1.00
H538   H     0.68373   0.20596   0.67485   0.00000  Uiso   1.00
H539   H     0.82887   0.32228   0.78299   0.00000  Uiso   1.00
H540   H     0.61976   0.18599   0.82484   0.00000  Uiso   1.00
H541   H     0.63839   0.19288   0.57819   0.00000  Uiso   1.00
H542   H     0.94442   0.43813   0.80621   0.00000  Uiso   1.00
H543   H     0.50348   0.15075   0.89447   0.00000  Uiso   1.00
O544   O     0.55438   0.26871   0.51608   0.00000  Uiso   1.00
O545   O     0.95587   0.59046   0.81524   0.00000  Uiso   1.00
O546   O     0.37736   0.21342   0.93104   0.00000  Uiso   1.00
N547   N     0.54020   0.34637   0.58153   0.00000  Uiso   1.00
N548   N     0.82632   0.57567   0.79471   0.00000  Uiso   1.00
N549   N     0.41409   0.30700   0.87724   0.00000  Uiso   1.00
N550   N     0.61149   0.24206   0.58745   0.00000  Uiso   1.00
N551   N     0.89761   0.47135   0.80063   0.00000  Uiso   1.00
N552   N     0.48538   0.20268   0.88316   0.00000  Uiso   1.00
C553   C     0.91884   0.41277   0.50062   0.00000  Uiso   1.00
C554   C     0.87337   0.40832   0.45547   0.00000  Uiso   1.00
C555   C     0.89325   0.44428   0.41421   0.00000  Uiso   1.00
C556   C     0.84408   0.43308   0.37681   0.00000  Uiso   1.00
C557   C     0.78364   0.43306   0.30612   0.00000  Uiso   1.00
C558   C     0.93656   0.32946   0.51422   0.00000  Uiso   1.00
C559   C     0.00958   0.29912   0.52235   0.00000  Uiso   1.00
C560   C     0.01361   0.22153   0.53442   0.00000  Uiso   1.00
C561   C     0.05127   0.09909   0.55496   0.00000  Uiso   1.00
C562   C     0.86252   0.44307   0.53696   0.00000  Uiso   1.00
C563   C     0.87328   0.50825   0.56422   0.00000  Uiso   1.00
C564   C     0.81497   0.52631   0.59543   0.00000  Uiso   1.00
C565   C     0.73766   0.58028   0.65128   0.00000  Uiso   1.00
C566   C     0.79616   0.32893   0.50759   0.00000  Uiso   1.00
C567   C     0.80674   0.36278   0.45926   0.00000  Uiso   1.00
C568   C     0.75752   0.35152   0.42192   0.00000  Uiso   1.00
C569   C     0.77733   0.38746   0.38060   0.00000  Uiso   1.00
C570   C     0.86993   0.28391   0.51800   0.00000  Uiso   1.00
C571   C     0.87386   0.20635   0.53006   0.00000  Uiso   1.00
C572   C     0.94686   0.17590   0.53821   0.00000  Uiso   1.00
C573   C     0.79588   0.39753   0.54074   0.00000  Uiso   1.00
C574   C     0.73755   0.41549   0.57192   0.00000  Uiso   1.00
C575   C     0.74822   0.48069   0.59923   0.00000  Uiso   1.00
H576   H     0.97071   0.44822   0.49768   0.00000  Uiso   1.00
H577   H     0.94482   0.47951   0.41129   0.00000  Uiso   1.00
H578   H     0.06113   0.33437   0.51943   0.00000  Uiso   1.00
H579   H     0.92485   0.54348   0.56128   0.00000  Uiso   1.00
H580   H     0.88675   0.49410   0.31718   0.00000  Uiso   1.00
H581   H     0.13199   0.18807   0.54520   0.00000  Uiso   1.00
H582   H     0.84462   0.62901   0.63346   0.00000  Uiso   1.00
H583   H     0.74428   0.29347   0.51054   0.00000  Uiso   1.00
H584   H     0.70596   0.31627   0.42485   0.00000  Uiso   1.00
H585   H     0.82228   0.17113   0.53299   0.00000  Uiso   1.00
H586   H     0.68599   0.38024   0.57484   0.00000  Uiso   1.00
H587   H     0.69288   0.36161   0.32819   0.00000  Uiso   1.00
H588   H     0.93813   0.05558   0.55621   0.00000  Uiso   1.00
H589   H     0.65075   0.49652   0.64447   0.00000  Uiso   1.00
O590   O     0.76871   0.44562   0.26608   0.00000  Uiso   1.00
O591   O     0.09046   0.04413   0.56524   0.00000  Uiso   1.00
O592   O     0.71342   0.62264   0.68104   0.00000  Uiso   1.00
N593   N     0.84637   0.45980   0.33153   0.00000  Uiso   1.00
N594   N     0.07567   0.17368   0.54471   0.00000  Uiso   1.00
N595   N     0.80700   0.58591   0.62724   0.00000  Uiso   1.00
N596   N     0.74206   0.38851   0.33745   0.00000  Uiso   1.00
N597   N     0.97135   0.10239   0.55063   0.00000  Uiso   1.00
N598   N     0.70268   0.51462   0.63316   0.00000  Uiso   1.00
C599   C     0.41884   0.91277   0.00062   0.00000  Uiso   1.00
C600   C     0.37337   0.90832   0.95547   0.00000  Uiso   1.00
C601   C     0.39325   0.94428   0.91421   0.00000  Uiso   1.00
C602   C     0.34408   0.93308   0.87681   0.00000  Uiso   1.00
C603   C     0.28364   0.93306   0.80612   0.00000  Uiso   1.00
C604   C     0.43656   0.82946   0.01422   0.00000  Uiso   1.00
C605   C     0.50958   0.79912   0.02235   0.00000  Uiso   1.00
C606   C     0.51361   0.72153   0.03442   0.00000  Uiso   1.00
C607   C     0.55127   0.59909   0.05496   0.00000  Uiso   1.00
C608   C     0.36252   0.94307   0.03696   0.00000  Uiso   1.00
C609   C     0.37328   0.00825   0.06422   0.00000  Uiso   1.00
C610   C     0.31497   0.02631   0.09543   0.00000  Uiso   1.00
C611   C     0.23766   0.08028   0.15128   0.00000  Uiso   1.00
C612   C     0.29616   0.82893   0.00759   0.00000  Uiso   1.00
C613   C     0.30674   0.86278   0.95926   0.00000  Uiso   1.00
C614   C     0.25752   0.85152   0.92192   0.00000  Uiso   1.00
C615   C     0.27733   0.88746   0.88060   0.00000  Uiso   1.00
C616   C     0.36993   0.78391   0.01800   0.00000  Uiso   1.00
C617   C     0.37386   0.70635   0.03006   0.00000  Uiso   1.00
C618   C     0.44686   0.67590   0.03821   0.00000  Uiso   1.00
C619   C     0.29588   0.89753   0.04074   0.00000  Uiso   1.00
C620   C     0.23755   0.91549   0.07192   0.00000  Uiso   1.00
C621   C     0.24822   0.98069   0.09923   0.00000  Uiso   1.00
H622   H     0.47071   0.94822   0.99768   0.00000  Uiso   1.00
H623   H     0.44482   0.97951   0.91129   0.00000  Uiso   1.00
H624   H     0.56113   0.83437   0.01943   0.00000  Uiso   1.00
H625   H     0.42485   0.04348   0.06128   0.00000  Uiso   1.00
H626   H     0.38675   0.99410   0.81718   0.00000  Uiso   1.00
H627   H     0.63199   0.68807   0.04520   0.00000  Uiso   1.00
H628   H     0.34462   0.12901   0.13346   0.00000  Uiso   1.00
H629   H     0.24428   0.79347   0.01054   0.00000  Uiso   1.00
H630   H     0.20596   0.81627   0.92485   0.00000  Uiso   1.00
H631   H     0.32228   0.67113   0.03299   0.00000  Uiso   1.00
H632   H     0.18599   0.88024   0.07484   0.00000  Uiso   1.00
H633   H     0.19288   0.86161   0.82819   0.00000  Uiso   1.00
H634   H     0.43813   0.55558   0.05621   0.00000  Uiso   1.00
H635   H     0.15075   0.99652   0.14447   0.00000  Uiso   1.00
O636   O     0.26871   0.94562   0.76608   0.00000  Uiso   1.00
O637   O     0.59046   0.54413   0.06524   0.00000  Uiso   1.00
O638   O     0.21342   0.12264   0.18104   0.00000  Uiso   1.00
N639   N     0.34637   0.95980   0.83153   0.00000  Uiso   1.00
N640   N     0.57567   0.67368   0.04471   0.00000  Uiso   1.00
N641   N     0.30700   0.08591   0.12724   0.00000  Uiso   1.00
N642   N     0.24206   0.88851   0.83745   0.00000  Uiso   1.00
N643   N     0.47135   0.60239   0.05063   0.00000  Uiso   1.00
N644   N     0.20268   0.01462   0.13316   0.00000  Uiso   1.00
C645   C     0.58116   0.08723   0.00062   0.00000  Uiso   1.00
C646   C     0.62663   0.09168   0.95547   0.00000  Uiso   1.00
C647   C     0.60675   0.05572   0.91421   0.00000  Uiso   1.00
C648   C     0.65592   0.06692   0.87681   0.00000  Uiso   1.00
C649   C     0.71636   0.06694   0.80612   0.00000  Uiso   1.00
C650   C     0.56344   0.17054   0.01422   0.00000  Uiso   1.00
C651   C     0.49042   0.20088   0.02235   0.00000  Uiso   1.00
C652   C     0.48639   0.27847   0.03442   0.00000  Uiso   1.00
C653   C     0.44873   0.40091   0.05496   0.00000  Uiso   1.00
C654   C     0.63748   0.05693   0.03696   0.00000  Uiso   1.00
C655   C     0.62672   0.99175   0.06422   0.00000  Uiso   1.00
C656   C     0.68503   0.97369   0.09543   0.00000  Uiso   1.00
C657   C     0.76234   0.91972   0.15128   0.00000  Uiso   1.00
C658   C     0.70384   0.17107   0.00759   0.00000  Uiso   1.00
C659   C     0.69326   0.13722   0.95926   0.00000  Uiso   1.00
C660   C     0.74248   0.14848   0.92192   0.00000  Uiso   1.00
C661   C     0.72267   0.11254   0.88060   0.00000  Uiso   1.00
C662   C     0.63007   0.21609   0.01800   0.00000  Uiso   1.00
C663   C     0.62614   0.29365   0.03006   0.00000  Uiso   1.00
C664   C     0.55314   0.32410   0.03821   0.00000  Uiso   1.00
C665   C     0.70412   0.10247   0.04074   0.00000  Uiso   1.00
C666   C     0.76245   0.08451   0.07192   0.00000  Uiso   1.00
C667   C     0.75178   0.01931   0.09923   0.00000  Uiso   1.00
H668   H     0.52929   0.05178   0.99768   0.00000  Uiso   1.00
H669   H     0.55518   0.02049   0.91129   0.00000  Uiso   1.00
H670   H     0.43887   0.16563   0.01943   0.00000  Uiso   1.00
H671   H     0.57515   0.95652   0.06128   0.00000  Uiso   1.00
H672   H     0.61325   0.00590   0.81718   0.00000  Uiso   1.00
H673   H     0.36801   0.31193   0.04520   0.00000  Uiso   1.00
H674   H     0.65538   0.87099   0.13346   0.00000  Uiso   1.00
H675   H     0.75572   0.20653   0.01054   0.00000  Uiso   1.00
H676   H     0.79404   0.18373   0.92485   0.00000  Uiso   1.00
H677   H     0.67772   0.32887   0.03299   0.00000  Uiso   1.00
H678   H     0.81401   0.11976   0.07484   0.00000  Uiso   1.00
H679   H     0.80712   0.13839   0.82819   0.00000  Uiso   1.00
H680   H     0.56187   0.44442   0.05621   0.00000  Uiso   1.00
H681   H     0.84925   0.00348   0.14447   0.00000  Uiso   1.00
O682   O     0.73129   0.05438   0.76608   0.00000  Uiso   1.00
O683   O     0.40954   0.45587   0.06524   0.00000  Uiso   1.00
O684   O     0.78658   0.87736   0.18104   0.00000  Uiso   1.00
N685   N     0.65363   0.04020   0.83153   0.00000  Uiso   1.00
N686   N     0.42433   0.32632   0.04471   0.00000  Uiso   1.00
N687   N     0.69300   0.91409   0.12724   0.00000  Uiso   1.00
N688   N     0.75794   0.11149   0.83745   0.00000  Uiso   1.00
N689   N     0.52865   0.39761   0.05063   0.00000  Uiso   1.00
N690   N     0.79732   0.98538   0.13316   0.00000  Uiso   1.00
C691   C     0.08116   0.58723   0.50062   0.00000  Uiso   1.00
C692   C     0.12663   0.59168   0.45547   0.00000  Uiso   1.00
C693   C     0.10675   0.55572   0.41421   0.00000  Uiso   1.00
C694   C     0.15592   0.56692   0.37681   0.00000  Uiso   1.00
C695   C     0.21636   0.56694   0.30612   0.00000  Uiso   1.00
C696   C     0.06344   0.67054   0.51422   0.00000  Uiso   1.00
C697   C     0.99042   0.70088   0.52235   0.00000  Uiso   1.00
C698   C     0.98639   0.77847   0.53442   0.00000  Uiso   1.00
C699   C     0.94873   0.90091   0.55496   0.00000  Uiso   1.00
C700   C     0.13748   0.55693   0.53696   0.00000  Uiso   1.00
C701   C     0.12672   0.49175   0.56422   0.00000  Uiso   1.00
C702   C     0.18503   0.47369   0.59543   0.00000  Uiso   1.00
C703   C     0.26234   0.41972   0.65128   0.00000  Uiso   1.00
C704   C     0.20384   0.67107   0.50759   0.00000  Uiso   1.00
C705   C     0.19326   0.63722   0.45926   0.00000  Uiso   1.00
C706   C     0.24248   0.64848   0.42192   0.00000  Uiso   1.00
C707   C     0.22267   0.61254   0.38060   0.00000  Uiso   1.00
C708   C     0.13007   0.71609   0.51800   0.00000  Uiso   1.00
C709   C     0.12614   0.79365   0.53006   0.00000  Uiso   1.00
C710   C     0.05314   0.82410   0.53821   0.00000  Uiso   1.00
C711   C     0.20412   0.60247   0.54074   0.00000  Uiso   1.00
C712   C     0.26245   0.58451   0.57192   0.00000  Uiso   1.00
C713   C     0.25178   0.51931   0.59923   0.00000  Uiso   1.00
H714   H     0.02929   0.55178   0.49768   0.00000  Uiso   1.00
H715   H     0.05518   0.52049   0.41129   0.00000  Uiso   1.00
H716   H     0.93887   0.66563   0.51943   0.00000  Uiso   1.00
H717   H     0.07515   0.45652   0.56128   0.00000  Uiso   1.00
H718   H     0.11325   0.50590   0.31718   0.00000  Uiso   1.00
H719   H     0.86801   0.81193   0.54520   0.00000  Uiso   1.00
H720   H     0.15538   0.37099   0.63346   0.00000  Uiso   1.00
H721   H     0.25572   0.70653   0.51054   0.00000  Uiso   1.00
H722   H     0.29404   0.68373   0.42485   0.00000  Uiso   1.00
H723   H     0.17772   0.82887   0.53299   0.00000  Uiso   1.00
H724   H     0.31401   0.61976   0.57484   0.00000  Uiso   1.00
H725   H     0.30712   0.63839   0.32819   0.00000  Uiso   1.00
H726   H     0.06187   0.94442   0.55621   0.00000  Uiso   1.00
H727   H     0.34925   0.50348   0.64447   0.00000  Uiso   1.00
O728   O     0.23129   0.55438   0.26608   0.00000  Uiso   1.00
O729   O     0.90954   0.95587   0.56524   0.00000  Uiso   1.00
O730   O     0.28658   0.37736   0.68104   0.00000  Uiso   1.00
N731   N     0.15363   0.54020   0.33153   0.00000  Uiso   1.00
N732   N     0.92433   0.82632   0.54471   0.00000  Uiso   1.00
N733   N     0.19300   0.41409   0.62724   0.00000  Uiso   1.00
N734   N     0.25794   0.61149   0.33745   0.00000  Uiso   1.00
N735   N     0.02865   0.89761   0.55063   0.00000  Uiso   1.00
N736   N     0.29732   0.48538   0.63316   0.00000  Uiso   1.00
