data_job_02957
_audit_creation_date              2018-12-19
_audit_creation_method            'Materials Studio'
_symmetry_space_group_name_H-M    'P1'
_symmetry_Int_Tables_number       1
_symmetry_cell_setting            triclinic
loop_
_symmetry_equiv_pos_as_xyz
  x,y,z
_cell_length_a                    24.0983
_cell_length_b                    24.0983
_cell_length_c                    16.6892
_cell_angle_alpha                 90.0000
_cell_angle_beta                  90.0000
_cell_angle_gamma                 90.0000
loop_
_atom_site_label
_atom_site_type_symbol
_atom_site_fract_x
_atom_site_fract_y
_atom_site_fract_z
_atom_site_U_iso_or_equiv
_atom_site_adp_type
_atom_site_occupancy
C1     C     0.45345   0.74295   0.28264   0.00000  Uiso   1.00
C2     C     0.48924   0.79399   0.26690   0.00000  Uiso   1.00
C3     C     0.47702   0.83635   0.21340   0.00000  Uiso   1.00
C4     C     0.51509   0.87941   0.20769   0.00000  Uiso   1.00
C5     C     0.56330   0.95854   0.17620   0.00000  Uiso   1.00
C6     C     0.49058   0.69290   0.26682   0.00000  Uiso   1.00
C7     C     0.47949   0.65026   0.21326   0.00000  Uiso   1.00
C8     C     0.51868   0.60822   0.20749   0.00000  Uiso   1.00
C9     C     0.56895   0.53040   0.17592   0.00000  Uiso   1.00
C10    C     0.44175   0.74276   0.37243   0.00000  Uiso   1.00
C11    C     0.38960   0.74203   0.40768   0.00000  Uiso   1.00
C12    C     0.38768   0.74195   0.49083   0.00000  Uiso   1.00
C13    C     0.36213   0.74154   0.62324   0.00000  Uiso   1.00
C14    C     0.54279   0.74410   0.36763   0.00000  Uiso   1.00
C15    C     0.53777   0.79461   0.31306   0.00000  Uiso   1.00
C16    C     0.57586   0.83762   0.30743   0.00000  Uiso   1.00
C17    C     0.56370   0.88004   0.25393   0.00000  Uiso   1.00
C18    C     0.53911   0.69352   0.31298   0.00000  Uiso   1.00
C19    C     0.57833   0.65154   0.30729   0.00000  Uiso   1.00
C20    C     0.56730   0.60885   0.25374   0.00000  Uiso   1.00
C21    C     0.49028   0.74338   0.41859   0.00000  Uiso   1.00
C22    C     0.48844   0.74331   0.50171   0.00000  Uiso   1.00
C23    C     0.43629   0.74258   0.53707   0.00000  Uiso   1.00
H24    H     0.41567   0.74246   0.24670   0.00000  Uiso   1.00
H25    H     0.43946   0.83584   0.17768   0.00000  Uiso   1.00
H26    H     0.44193   0.64979   0.17755   0.00000  Uiso   1.00
H27    H     0.35205   0.74154   0.37194   0.00000  Uiso   1.00
H28    H     0.48725   0.93964   0.12150   0.00000  Uiso   1.00
H29    H     0.49244   0.54732   0.12125   0.00000  Uiso   1.00
H30    H     0.30292   0.74080   0.53115   0.00000  Uiso   1.00
H31    H     0.58057   0.74459   0.40357   0.00000  Uiso   1.00
H32    H     0.61341   0.83809   0.34316   0.00000  Uiso   1.00
H33    H     0.61587   0.65203   0.34303   0.00000  Uiso   1.00
H34    H     0.52600   0.74379   0.53741   0.00000  Uiso   1.00
H35    H     0.62844   0.94147   0.25580   0.00000  Uiso   1.00
H36    H     0.63362   0.54914   0.25555   0.00000  Uiso   1.00
H37    H     0.44410   0.74263   0.66545   0.00000  Uiso   1.00
O38    O     0.57648   0.00201   0.14607   0.00000  Uiso   1.00
O39    O     0.58328   0.48730   0.14574   0.00000  Uiso   1.00
O40    O     0.33464   0.74115   0.68352   0.00000  Uiso   1.00
N41    N     0.51597   0.92724   0.16141   0.00000  Uiso   1.00
N42    N     0.52082   0.56045   0.16116   0.00000  Uiso   1.00
N43    N     0.34364   0.74133   0.54438   0.00000  Uiso   1.00
N44    N     0.59194   0.92823   0.23368   0.00000  Uiso   1.00
N45    N     0.59679   0.56143   0.23343   0.00000  Uiso   1.00
N46    N     0.41960   0.74231   0.61665   0.00000  Uiso   1.00
C47    C     0.95345   0.24295   0.78264   0.00000  Uiso   1.00
C48    C     0.98924   0.29399   0.76690   0.00000  Uiso   1.00
C49    C     0.97702   0.33635   0.71340   0.00000  Uiso   1.00
C50    C     0.01509   0.37941   0.70769   0.00000  Uiso   1.00
C51    C     0.06330   0.45854   0.67620   0.00000  Uiso   1.00
C52    C     0.99058   0.19290   0.76682   0.00000  Uiso   1.00
C53    C     0.97949   0.15026   0.71326   0.00000  Uiso   1.00
C54    C     0.01868   0.10822   0.70749   0.00000  Uiso   1.00
C55    C     0.06895   0.03040   0.67592   0.00000  Uiso   1.00
C56    C     0.94175   0.24276   0.87243   0.00000  Uiso   1.00
C57    C     0.88960   0.24203   0.90768   0.00000  Uiso   1.00
C58    C     0.88768   0.24195   0.99083   0.00000  Uiso   1.00
C59    C     0.86213   0.24154   0.12324   0.00000  Uiso   1.00
C60    C     0.04279   0.24410   0.86763   0.00000  Uiso   1.00
C61    C     0.03777   0.29461   0.81306   0.00000  Uiso   1.00
C62    C     0.07586   0.33762   0.80743   0.00000  Uiso   1.00
C63    C     0.06370   0.38004   0.75393   0.00000  Uiso   1.00
C64    C     0.03911   0.19352   0.81298   0.00000  Uiso   1.00
C65    C     0.07833   0.15154   0.80729   0.00000  Uiso   1.00
C66    C     0.06730   0.10885   0.75374   0.00000  Uiso   1.00
C67    C     0.99028   0.24338   0.91859   0.00000  Uiso   1.00
C68    C     0.98844   0.24331   0.00171   0.00000  Uiso   1.00
C69    C     0.93629   0.24258   0.03707   0.00000  Uiso   1.00
H70    H     0.91567   0.24246   0.74670   0.00000  Uiso   1.00
H71    H     0.93946   0.33584   0.67768   0.00000  Uiso   1.00
H72    H     0.94193   0.14979   0.67755   0.00000  Uiso   1.00
H73    H     0.85205   0.24154   0.87194   0.00000  Uiso   1.00
H74    H     0.98725   0.43964   0.62150   0.00000  Uiso   1.00
H75    H     0.99244   0.04732   0.62125   0.00000  Uiso   1.00
H76    H     0.80292   0.24080   0.03115   0.00000  Uiso   1.00
H77    H     0.08057   0.24459   0.90357   0.00000  Uiso   1.00
H78    H     0.11341   0.33809   0.84316   0.00000  Uiso   1.00
H79    H     0.11587   0.15203   0.84303   0.00000  Uiso   1.00
H80    H     0.02600   0.24379   0.03741   0.00000  Uiso   1.00
H81    H     0.12844   0.44147   0.75580   0.00000  Uiso   1.00
H82    H     0.13362   0.04914   0.75555   0.00000  Uiso   1.00
H83    H     0.94410   0.24263   0.16545   0.00000  Uiso   1.00
O84    O     0.07648   0.50201   0.64607   0.00000  Uiso   1.00
O85    O     0.08328   0.98730   0.64574   0.00000  Uiso   1.00
O86    O     0.83464   0.24115   0.18352   0.00000  Uiso   1.00
N87    N     0.01597   0.42724   0.66141   0.00000  Uiso   1.00
N88    N     0.02082   0.06045   0.66116   0.00000  Uiso   1.00
N89    N     0.84364   0.24133   0.04438   0.00000  Uiso   1.00
N90    N     0.09194   0.42823   0.73368   0.00000  Uiso   1.00
N91    N     0.09679   0.06143   0.73343   0.00000  Uiso   1.00
N92    N     0.91960   0.24231   0.11665   0.00000  Uiso   1.00
C93    C     0.04655   0.75705   0.78264   0.00000  Uiso   1.00
C94    C     0.01076   0.70601   0.76690   0.00000  Uiso   1.00
C95    C     0.02298   0.66365   0.71340   0.00000  Uiso   1.00
C96    C     0.98491   0.62059   0.70769   0.00000  Uiso   1.00
C97    C     0.93670   0.54146   0.67620   0.00000  Uiso   1.00
C98    C     0.00942   0.80710   0.76682   0.00000  Uiso   1.00
C99    C     0.02051   0.84974   0.71326   0.00000  Uiso   1.00
C100   C     0.98132   0.89178   0.70749   0.00000  Uiso   1.00
C101   C     0.93105   0.96960   0.67592   0.00000  Uiso   1.00
C102   C     0.05825   0.75724   0.87243   0.00000  Uiso   1.00
C103   C     0.11040   0.75797   0.90768   0.00000  Uiso   1.00
C104   C     0.11232   0.75805   0.99083   0.00000  Uiso   1.00
C105   C     0.13787   0.75846   0.12324   0.00000  Uiso   1.00
C106   C     0.95721   0.75590   0.86763   0.00000  Uiso   1.00
C107   C     0.96223   0.70539   0.81306   0.00000  Uiso   1.00
C108   C     0.92414   0.66238   0.80743   0.00000  Uiso   1.00
C109   C     0.93630   0.61996   0.75393   0.00000  Uiso   1.00
C110   C     0.96089   0.80648   0.81298   0.00000  Uiso   1.00
C111   C     0.92167   0.84846   0.80729   0.00000  Uiso   1.00
C112   C     0.93270   0.89115   0.75374   0.00000  Uiso   1.00
C113   C     0.00972   0.75662   0.91859   0.00000  Uiso   1.00
C114   C     0.01156   0.75669   0.00171   0.00000  Uiso   1.00
C115   C     0.06371   0.75742   0.03707   0.00000  Uiso   1.00
H116   H     0.08433   0.75754   0.74670   0.00000  Uiso   1.00
H117   H     0.06054   0.66416   0.67768   0.00000  Uiso   1.00
H118   H     0.05807   0.85021   0.67755   0.00000  Uiso   1.00
H119   H     0.14795   0.75846   0.87194   0.00000  Uiso   1.00
H120   H     0.01275   0.56036   0.62150   0.00000  Uiso   1.00
H121   H     0.00756   0.95268   0.62125   0.00000  Uiso   1.00
H122   H     0.19708   0.75920   0.03115   0.00000  Uiso   1.00
H123   H     0.91943   0.75541   0.90357   0.00000  Uiso   1.00
H124   H     0.88659   0.66191   0.84316   0.00000  Uiso   1.00
H125   H     0.88413   0.84797   0.84303   0.00000  Uiso   1.00
H126   H     0.97400   0.75621   0.03741   0.00000  Uiso   1.00
H127   H     0.87156   0.55853   0.75580   0.00000  Uiso   1.00
H128   H     0.86638   0.95086   0.75555   0.00000  Uiso   1.00
H129   H     0.05590   0.75737   0.16545   0.00000  Uiso   1.00
O130   O     0.92352   0.49799   0.64607   0.00000  Uiso   1.00
O131   O     0.91672   0.01270   0.64574   0.00000  Uiso   1.00
O132   O     0.16536   0.75885   0.18352   0.00000  Uiso   1.00
N133   N     0.98403   0.57276   0.66141   0.00000  Uiso   1.00
N134   N     0.97918   0.93955   0.66116   0.00000  Uiso   1.00
N135   N     0.15636   0.75867   0.04438   0.00000  Uiso   1.00
N136   N     0.90806   0.57177   0.73368   0.00000  Uiso   1.00
N137   N     0.90321   0.93857   0.73343   0.00000  Uiso   1.00
N138   N     0.08040   0.75769   0.11665   0.00000  Uiso   1.00
C139   C     0.54655   0.25705   0.28264   0.00000  Uiso   1.00
C140   C     0.51076   0.20601   0.26690   0.00000  Uiso   1.00
C141   C     0.52298   0.16365   0.21340   0.00000  Uiso   1.00
C142   C     0.48491   0.12059   0.20769   0.00000  Uiso   1.00
C143   C     0.43670   0.04146   0.17620   0.00000  Uiso   1.00
C144   C     0.50942   0.30710   0.26682   0.00000  Uiso   1.00
C145   C     0.52051   0.34974   0.21326   0.00000  Uiso   1.00
C146   C     0.48132   0.39178   0.20749   0.00000  Uiso   1.00
C147   C     0.43105   0.46960   0.17592   0.00000  Uiso   1.00
C148   C     0.55825   0.25724   0.37243   0.00000  Uiso   1.00
C149   C     0.61040   0.25797   0.40768   0.00000  Uiso   1.00
C150   C     0.61232   0.25805   0.49083   0.00000  Uiso   1.00
C151   C     0.63787   0.25846   0.62324   0.00000  Uiso   1.00
C152   C     0.45721   0.25590   0.36763   0.00000  Uiso   1.00
C153   C     0.46223   0.20539   0.31306   0.00000  Uiso   1.00
C154   C     0.42414   0.16238   0.30743   0.00000  Uiso   1.00
C155   C     0.43630   0.11996   0.25393   0.00000  Uiso   1.00
C156   C     0.46089   0.30648   0.31298   0.00000  Uiso   1.00
C157   C     0.42167   0.34846   0.30729   0.00000  Uiso   1.00
C158   C     0.43270   0.39115   0.25374   0.00000  Uiso   1.00
C159   C     0.50972   0.25662   0.41859   0.00000  Uiso   1.00
C160   C     0.51156   0.25669   0.50171   0.00000  Uiso   1.00
C161   C     0.56371   0.25742   0.53707   0.00000  Uiso   1.00
H162   H     0.58433   0.25754   0.24670   0.00000  Uiso   1.00
H163   H     0.56054   0.16416   0.17768   0.00000  Uiso   1.00
H164   H     0.55807   0.35021   0.17755   0.00000  Uiso   1.00
H165   H     0.64795   0.25846   0.37194   0.00000  Uiso   1.00
H166   H     0.51275   0.06036   0.12150   0.00000  Uiso   1.00
H167   H     0.50756   0.45268   0.12125   0.00000  Uiso   1.00
H168   H     0.69708   0.25920   0.53115   0.00000  Uiso   1.00
H169   H     0.41943   0.25541   0.40357   0.00000  Uiso   1.00
H170   H     0.38659   0.16191   0.34316   0.00000  Uiso   1.00
H171   H     0.38413   0.34797   0.34303   0.00000  Uiso   1.00
H172   H     0.47400   0.25621   0.53741   0.00000  Uiso   1.00
H173   H     0.37156   0.05853   0.25580   0.00000  Uiso   1.00
H174   H     0.36638   0.45086   0.25555   0.00000  Uiso   1.00
H175   H     0.55590   0.25737   0.66545   0.00000  Uiso   1.00
O176   O     0.42352   0.99799   0.14607   0.00000  Uiso   1.00
O177   O     0.41672   0.51270   0.14574   0.00000  Uiso   1.00
O178   O     0.66536   0.25885   0.68352   0.00000  Uiso   1.00
N179   N     0.48403   0.07276   0.16141   0.00000  Uiso   1.00
N180   N     0.47918   0.43955   0.16116   0.00000  Uiso   1.00
N181   N     0.65636   0.25867   0.54438   0.00000  Uiso   1.00
N182   N     0.40806   0.07177   0.23368   0.00000  Uiso   1.00
N183   N     0.40321   0.43857   0.23343   0.00000  Uiso   1.00
N184   N     0.58040   0.25769   0.61665   0.00000  Uiso   1.00
C185   C     0.25705   0.95345   0.53264   0.00000  Uiso   1.00
C186   C     0.20601   0.98924   0.51690   0.00000  Uiso   1.00
C187   C     0.16365   0.97702   0.46340   0.00000  Uiso   1.00
C188   C     0.12059   0.01509   0.45769   0.00000  Uiso   1.00
C189   C     0.04146   0.06330   0.42620   0.00000  Uiso   1.00
C190   C     0.30710   0.99058   0.51682   0.00000  Uiso   1.00
C191   C     0.34974   0.97949   0.46326   0.00000  Uiso   1.00
C192   C     0.39178   0.01868   0.45749   0.00000  Uiso   1.00
C193   C     0.46960   0.06895   0.42592   0.00000  Uiso   1.00
C194   C     0.25724   0.94175   0.62243   0.00000  Uiso   1.00
C195   C     0.25797   0.88960   0.65768   0.00000  Uiso   1.00
C196   C     0.25805   0.88768   0.74083   0.00000  Uiso   1.00
C197   C     0.25846   0.86213   0.87324   0.00000  Uiso   1.00
C198   C     0.25590   0.04279   0.61763   0.00000  Uiso   1.00
C199   C     0.20539   0.03777   0.56306   0.00000  Uiso   1.00
C200   C     0.16238   0.07586   0.55743   0.00000  Uiso   1.00
C201   C     0.11996   0.06370   0.50393   0.00000  Uiso   1.00
C202   C     0.30648   0.03911   0.56298   0.00000  Uiso   1.00
C203   C     0.34846   0.07833   0.55729   0.00000  Uiso   1.00
C204   C     0.39115   0.06730   0.50374   0.00000  Uiso   1.00
C205   C     0.25662   0.99028   0.66859   0.00000  Uiso   1.00
C206   C     0.25669   0.98844   0.75171   0.00000  Uiso   1.00
C207   C     0.25742   0.93629   0.78707   0.00000  Uiso   1.00
H208   H     0.25754   0.91567   0.49670   0.00000  Uiso   1.00
H209   H     0.16416   0.93946   0.42768   0.00000  Uiso   1.00
H210   H     0.35021   0.94193   0.42755   0.00000  Uiso   1.00
H211   H     0.25846   0.85205   0.62194   0.00000  Uiso   1.00
H212   H     0.06036   0.98725   0.37150   0.00000  Uiso   1.00
H213   H     0.45268   0.99244   0.37125   0.00000  Uiso   1.00
H214   H     0.25920   0.80292   0.78115   0.00000  Uiso   1.00
H215   H     0.25541   0.08057   0.65357   0.00000  Uiso   1.00
H216   H     0.16191   0.11341   0.59316   0.00000  Uiso   1.00
H217   H     0.34797   0.11587   0.59303   0.00000  Uiso   1.00
H218   H     0.25621   0.02600   0.78741   0.00000  Uiso   1.00
H219   H     0.05853   0.12844   0.50580   0.00000  Uiso   1.00
H220   H     0.45086   0.13362   0.50555   0.00000  Uiso   1.00
H221   H     0.25737   0.94410   0.91545   0.00000  Uiso   1.00
O222   O     0.99799   0.07648   0.39607   0.00000  Uiso   1.00
O223   O     0.51270   0.08328   0.39574   0.00000  Uiso   1.00
O224   O     0.25885   0.83464   0.93352   0.00000  Uiso   1.00
N225   N     0.07276   0.01597   0.41141   0.00000  Uiso   1.00
N226   N     0.43955   0.02082   0.41116   0.00000  Uiso   1.00
N227   N     0.25867   0.84364   0.79438   0.00000  Uiso   1.00
N228   N     0.07177   0.09194   0.48368   0.00000  Uiso   1.00
N229   N     0.43857   0.09679   0.48343   0.00000  Uiso   1.00
N230   N     0.25769   0.91960   0.86665   0.00000  Uiso   1.00
C231   C     0.75705   0.45345   0.03264   0.00000  Uiso   1.00
C232   C     0.70601   0.48924   0.01690   0.00000  Uiso   1.00
C233   C     0.66365   0.47702   0.96340   0.00000  Uiso   1.00
C234   C     0.62059   0.51509   0.95769   0.00000  Uiso   1.00
C235   C     0.54146   0.56330   0.92620   0.00000  Uiso   1.00
C236   C     0.80710   0.49058   0.01682   0.00000  Uiso   1.00
C237   C     0.84974   0.47949   0.96326   0.00000  Uiso   1.00
C238   C     0.89178   0.51868   0.95749   0.00000  Uiso   1.00
C239   C     0.96960   0.56895   0.92592   0.00000  Uiso   1.00
C240   C     0.75724   0.44175   0.12243   0.00000  Uiso   1.00
C241   C     0.75797   0.38960   0.15768   0.00000  Uiso   1.00
C242   C     0.75805   0.38768   0.24083   0.00000  Uiso   1.00
C243   C     0.75846   0.36213   0.37324   0.00000  Uiso   1.00
C244   C     0.75590   0.54279   0.11763   0.00000  Uiso   1.00
C245   C     0.70539   0.53777   0.06306   0.00000  Uiso   1.00
C246   C     0.66238   0.57586   0.05743   0.00000  Uiso   1.00
C247   C     0.61996   0.56370   0.00393   0.00000  Uiso   1.00
C248   C     0.80648   0.53911   0.06298   0.00000  Uiso   1.00
C249   C     0.84846   0.57833   0.05729   0.00000  Uiso   1.00
C250   C     0.89115   0.56730   0.00374   0.00000  Uiso   1.00
C251   C     0.75662   0.49028   0.16859   0.00000  Uiso   1.00
C252   C     0.75669   0.48844   0.25171   0.00000  Uiso   1.00
C253   C     0.75742   0.43629   0.28707   0.00000  Uiso   1.00
H254   H     0.75754   0.41567   0.99670   0.00000  Uiso   1.00
H255   H     0.66416   0.43946   0.92768   0.00000  Uiso   1.00
H256   H     0.85021   0.44193   0.92755   0.00000  Uiso   1.00
H257   H     0.75846   0.35205   0.12194   0.00000  Uiso   1.00
H258   H     0.56036   0.48725   0.87150   0.00000  Uiso   1.00
H259   H     0.95268   0.49244   0.87125   0.00000  Uiso   1.00
H260   H     0.75920   0.30292   0.28115   0.00000  Uiso   1.00
H261   H     0.75541   0.58057   0.15357   0.00000  Uiso   1.00
H262   H     0.66191   0.61341   0.09316   0.00000  Uiso   1.00
H263   H     0.84797   0.61587   0.09303   0.00000  Uiso   1.00
H264   H     0.75621   0.52600   0.28741   0.00000  Uiso   1.00
H265   H     0.55853   0.62844   0.00580   0.00000  Uiso   1.00
H266   H     0.95086   0.63362   0.00555   0.00000  Uiso   1.00
H267   H     0.75737   0.44410   0.41545   0.00000  Uiso   1.00
O268   O     0.49799   0.57648   0.89607   0.00000  Uiso   1.00
O269   O     0.01270   0.58328   0.89574   0.00000  Uiso   1.00
O270   O     0.75885   0.33464   0.43352   0.00000  Uiso   1.00
N271   N     0.57276   0.51597   0.91141   0.00000  Uiso   1.00
N272   N     0.93955   0.52082   0.91116   0.00000  Uiso   1.00
N273   N     0.75867   0.34364   0.29438   0.00000  Uiso   1.00
N274   N     0.57177   0.59194   0.98368   0.00000  Uiso   1.00
N275   N     0.93857   0.59679   0.98343   0.00000  Uiso   1.00
N276   N     0.75769   0.41960   0.36665   0.00000  Uiso   1.00
C277   C     0.24295   0.54655   0.03264   0.00000  Uiso   1.00
C278   C     0.29399   0.51076   0.01690   0.00000  Uiso   1.00
C279   C     0.33635   0.52298   0.96340   0.00000  Uiso   1.00
C280   C     0.37941   0.48491   0.95769   0.00000  Uiso   1.00
C281   C     0.45854   0.43670   0.92620   0.00000  Uiso   1.00
C282   C     0.19290   0.50942   0.01682   0.00000  Uiso   1.00
C283   C     0.15026   0.52051   0.96326   0.00000  Uiso   1.00
C284   C     0.10822   0.48132   0.95749   0.00000  Uiso   1.00
C285   C     0.03040   0.43105   0.92592   0.00000  Uiso   1.00
C286   C     0.24276   0.55825   0.12243   0.00000  Uiso   1.00
C287   C     0.24203   0.61040   0.15768   0.00000  Uiso   1.00
C288   C     0.24195   0.61232   0.24083   0.00000  Uiso   1.00
C289   C     0.24154   0.63787   0.37324   0.00000  Uiso   1.00
C290   C     0.24410   0.45721   0.11763   0.00000  Uiso   1.00
C291   C     0.29461   0.46223   0.06306   0.00000  Uiso   1.00
C292   C     0.33762   0.42414   0.05743   0.00000  Uiso   1.00
C293   C     0.38004   0.43630   0.00393   0.00000  Uiso   1.00
C294   C     0.19352   0.46089   0.06298   0.00000  Uiso   1.00
C295   C     0.15154   0.42167   0.05729   0.00000  Uiso   1.00
C296   C     0.10885   0.43270   0.00374   0.00000  Uiso   1.00
C297   C     0.24338   0.50972   0.16859   0.00000  Uiso   1.00
C298   C     0.24331   0.51156   0.25171   0.00000  Uiso   1.00
C299   C     0.24258   0.56371   0.28707   0.00000  Uiso   1.00
H300   H     0.24246   0.58433   0.99670   0.00000  Uiso   1.00
H301   H     0.33584   0.56054   0.92768   0.00000  Uiso   1.00
H302   H     0.14979   0.55807   0.92755   0.00000  Uiso   1.00
H303   H     0.24154   0.64795   0.12194   0.00000  Uiso   1.00
H304   H     0.43964   0.51275   0.87150   0.00000  Uiso   1.00
H305   H     0.04732   0.50756   0.87125   0.00000  Uiso   1.00
H306   H     0.24080   0.69708   0.28115   0.00000  Uiso   1.00
H307   H     0.24459   0.41943   0.15357   0.00000  Uiso   1.00
H308   H     0.33809   0.38659   0.09316   0.00000  Uiso   1.00
H309   H     0.15203   0.38413   0.09303   0.00000  Uiso   1.00
H310   H     0.24379   0.47400   0.28741   0.00000  Uiso   1.00
H311   H     0.44147   0.37156   0.00580   0.00000  Uiso   1.00
H312   H     0.04914   0.36638   0.00555   0.00000  Uiso   1.00
H313   H     0.24263   0.55590   0.41545   0.00000  Uiso   1.00
O314   O     0.50201   0.42352   0.89607   0.00000  Uiso   1.00
O315   O     0.98730   0.41672   0.89574   0.00000  Uiso   1.00
O316   O     0.24115   0.66536   0.43352   0.00000  Uiso   1.00
N317   N     0.42724   0.48403   0.91141   0.00000  Uiso   1.00
N318   N     0.06045   0.47918   0.91116   0.00000  Uiso   1.00
N319   N     0.24133   0.65636   0.29438   0.00000  Uiso   1.00
N320   N     0.42823   0.40806   0.98368   0.00000  Uiso   1.00
N321   N     0.06143   0.40321   0.98343   0.00000  Uiso   1.00
N322   N     0.24231   0.58040   0.36665   0.00000  Uiso   1.00
C323   C     0.74295   0.04655   0.53264   0.00000  Uiso   1.00
C324   C     0.79399   0.01076   0.51690   0.00000  Uiso   1.00
C325   C     0.83635   0.02298   0.46340   0.00000  Uiso   1.00
C326   C     0.87941   0.98491   0.45769   0.00000  Uiso   1.00
C327   C     0.95854   0.93670   0.42620   0.00000  Uiso   1.00
C328   C     0.69290   0.00942   0.51682   0.00000  Uiso   1.00
C329   C     0.65026   0.02051   0.46326   0.00000  Uiso   1.00
C330   C     0.60822   0.98132   0.45749   0.00000  Uiso   1.00
C331   C     0.53040   0.93105   0.42592   0.00000  Uiso   1.00
C332   C     0.74276   0.05825   0.62243   0.00000  Uiso   1.00
C333   C     0.74203   0.11040   0.65768   0.00000  Uiso   1.00
C334   C     0.74195   0.11232   0.74083   0.00000  Uiso   1.00
C335   C     0.74154   0.13787   0.87324   0.00000  Uiso   1.00
C336   C     0.74410   0.95721   0.61763   0.00000  Uiso   1.00
C337   C     0.79461   0.96223   0.56306   0.00000  Uiso   1.00
C338   C     0.83762   0.92414   0.55743   0.00000  Uiso   1.00
C339   C     0.88004   0.93630   0.50393   0.00000  Uiso   1.00
C340   C     0.69352   0.96089   0.56298   0.00000  Uiso   1.00
C341   C     0.65154   0.92167   0.55729   0.00000  Uiso   1.00
C342   C     0.60885   0.93270   0.50374   0.00000  Uiso   1.00
C343   C     0.74338   0.00972   0.66859   0.00000  Uiso   1.00
C344   C     0.74331   0.01156   0.75171   0.00000  Uiso   1.00
C345   C     0.74258   0.06371   0.78707   0.00000  Uiso   1.00
H346   H     0.74246   0.08433   0.49670   0.00000  Uiso   1.00
H347   H     0.83584   0.06054   0.42768   0.00000  Uiso   1.00
H348   H     0.64979   0.05807   0.42755   0.00000  Uiso   1.00
H349   H     0.74154   0.14795   0.62194   0.00000  Uiso   1.00
H350   H     0.93964   0.01275   0.37150   0.00000  Uiso   1.00
H351   H     0.54732   0.00756   0.37125   0.00000  Uiso   1.00
H352   H     0.74080   0.19708   0.78115   0.00000  Uiso   1.00
H353   H     0.74459   0.91943   0.65357   0.00000  Uiso   1.00
H354   H     0.83809   0.88659   0.59316   0.00000  Uiso   1.00
H355   H     0.65203   0.88413   0.59303   0.00000  Uiso   1.00
H356   H     0.74379   0.97400   0.78741   0.00000  Uiso   1.00
H357   H     0.94147   0.87156   0.50580   0.00000  Uiso   1.00
H358   H     0.54914   0.86638   0.50555   0.00000  Uiso   1.00
H359   H     0.74263   0.05590   0.91545   0.00000  Uiso   1.00
O360   O     0.00201   0.92352   0.39607   0.00000  Uiso   1.00
O361   O     0.48730   0.91672   0.39574   0.00000  Uiso   1.00
O362   O     0.74115   0.16536   0.93352   0.00000  Uiso   1.00
N363   N     0.92724   0.98403   0.41141   0.00000  Uiso   1.00
N364   N     0.56045   0.97918   0.41116   0.00000  Uiso   1.00
N365   N     0.74133   0.15636   0.79438   0.00000  Uiso   1.00
N366   N     0.92823   0.90806   0.48368   0.00000  Uiso   1.00
N367   N     0.56143   0.90321   0.48343   0.00000  Uiso   1.00
N368   N     0.74231   0.08040   0.86665   0.00000  Uiso   1.00
C369   C     0.45345   0.25705   0.78264   0.00000  Uiso   1.00
C370   C     0.48924   0.20601   0.76690   0.00000  Uiso   1.00
C371   C     0.47702   0.16365   0.71340   0.00000  Uiso   1.00
C372   C     0.51509   0.12059   0.70769   0.00000  Uiso   1.00
C373   C     0.56330   0.04146   0.67620   0.00000  Uiso   1.00
C374   C     0.49058   0.30710   0.76682   0.00000  Uiso   1.00
C375   C     0.47949   0.34974   0.71326   0.00000  Uiso   1.00
C376   C     0.51868   0.39178   0.70749   0.00000  Uiso   1.00
C377   C     0.56895   0.46960   0.67592   0.00000  Uiso   1.00
C378   C     0.44175   0.25724   0.87243   0.00000  Uiso   1.00
C379   C     0.38960   0.25797   0.90768   0.00000  Uiso   1.00
C380   C     0.38768   0.25805   0.99083   0.00000  Uiso   1.00
C381   C     0.36213   0.25846   0.12324   0.00000  Uiso   1.00
C382   C     0.54279   0.25590   0.86763   0.00000  Uiso   1.00
C383   C     0.53777   0.20539   0.81306   0.00000  Uiso   1.00
C384   C     0.57586   0.16238   0.80743   0.00000  Uiso   1.00
C385   C     0.56370   0.11996   0.75393   0.00000  Uiso   1.00
C386   C     0.53911   0.30648   0.81298   0.00000  Uiso   1.00
C387   C     0.57833   0.34846   0.80729   0.00000  Uiso   1.00
C388   C     0.56730   0.39115   0.75374   0.00000  Uiso   1.00
C389   C     0.49028   0.25662   0.91859   0.00000  Uiso   1.00
C390   C     0.48844   0.25669   0.00171   0.00000  Uiso   1.00
C391   C     0.43629   0.25742   0.03707   0.00000  Uiso   1.00
H392   H     0.41567   0.25754   0.74670   0.00000  Uiso   1.00
H393   H     0.43946   0.16416   0.67768   0.00000  Uiso   1.00
H394   H     0.44193   0.35021   0.67755   0.00000  Uiso   1.00
H395   H     0.35205   0.25846   0.87194   0.00000  Uiso   1.00
H396   H     0.48725   0.06036   0.62150   0.00000  Uiso   1.00
H397   H     0.49244   0.45268   0.62125   0.00000  Uiso   1.00
H398   H     0.30292   0.25920   0.03115   0.00000  Uiso   1.00
H399   H     0.58057   0.25541   0.90357   0.00000  Uiso   1.00
H400   H     0.61341   0.16191   0.84316   0.00000  Uiso   1.00
H401   H     0.61587   0.34797   0.84303   0.00000  Uiso   1.00
H402   H     0.52600   0.25621   0.03741   0.00000  Uiso   1.00
H403   H     0.62844   0.05853   0.75580   0.00000  Uiso   1.00
H404   H     0.63362   0.45086   0.75555   0.00000  Uiso   1.00
H405   H     0.44410   0.25737   0.16545   0.00000  Uiso   1.00
O406   O     0.57648   0.99799   0.64607   0.00000  Uiso   1.00
O407   O     0.58328   0.51270   0.64574   0.00000  Uiso   1.00
O408   O     0.33464   0.25885   0.18352   0.00000  Uiso   1.00
N409   N     0.51597   0.07276   0.66141   0.00000  Uiso   1.00
N410   N     0.52082   0.43955   0.66116   0.00000  Uiso   1.00
N411   N     0.34364   0.25867   0.04438   0.00000  Uiso   1.00
N412   N     0.59194   0.07177   0.73368   0.00000  Uiso   1.00
N413   N     0.59679   0.43857   0.73343   0.00000  Uiso   1.00
N414   N     0.41960   0.25769   0.11665   0.00000  Uiso   1.00
C415   C     0.95345   0.75705   0.28264   0.00000  Uiso   1.00
C416   C     0.98924   0.70601   0.26690   0.00000  Uiso   1.00
C417   C     0.97702   0.66365   0.21340   0.00000  Uiso   1.00
C418   C     0.01509   0.62059   0.20769   0.00000  Uiso   1.00
C419   C     0.06330   0.54146   0.17620   0.00000  Uiso   1.00
C420   C     0.99058   0.80710   0.26682   0.00000  Uiso   1.00
C421   C     0.97949   0.84974   0.21326   0.00000  Uiso   1.00
C422   C     0.01868   0.89178   0.20749   0.00000  Uiso   1.00
C423   C     0.06895   0.96960   0.17592   0.00000  Uiso   1.00
C424   C     0.94175   0.75724   0.37243   0.00000  Uiso   1.00
C425   C     0.88960   0.75797   0.40768   0.00000  Uiso   1.00
C426   C     0.88768   0.75805   0.49083   0.00000  Uiso   1.00
C427   C     0.86213   0.75846   0.62324   0.00000  Uiso   1.00
C428   C     0.04279   0.75590   0.36763   0.00000  Uiso   1.00
C429   C     0.03777   0.70539   0.31306   0.00000  Uiso   1.00
C430   C     0.07586   0.66238   0.30743   0.00000  Uiso   1.00
C431   C     0.06370   0.61996   0.25393   0.00000  Uiso   1.00
C432   C     0.03911   0.80648   0.31298   0.00000  Uiso   1.00
C433   C     0.07833   0.84846   0.30729   0.00000  Uiso   1.00
C434   C     0.06730   0.89115   0.25374   0.00000  Uiso   1.00
C435   C     0.99028   0.75662   0.41859   0.00000  Uiso   1.00
C436   C     0.98844   0.75669   0.50171   0.00000  Uiso   1.00
C437   C     0.93629   0.75742   0.53707   0.00000  Uiso   1.00
H438   H     0.91567   0.75754   0.24670   0.00000  Uiso   1.00
H439   H     0.93946   0.66416   0.17768   0.00000  Uiso   1.00
H440   H     0.94193   0.85021   0.17755   0.00000  Uiso   1.00
H441   H     0.85205   0.75846   0.37194   0.00000  Uiso   1.00
H442   H     0.98725   0.56036   0.12150   0.00000  Uiso   1.00
H443   H     0.99244   0.95268   0.12125   0.00000  Uiso   1.00
H444   H     0.80292   0.75920   0.53115   0.00000  Uiso   1.00
H445   H     0.08057   0.75541   0.40357   0.00000  Uiso   1.00
H446   H     0.11341   0.66191   0.34316   0.00000  Uiso   1.00
H447   H     0.11587   0.84797   0.34303   0.00000  Uiso   1.00
H448   H     0.02600   0.75621   0.53741   0.00000  Uiso   1.00
H449   H     0.12844   0.55853   0.25580   0.00000  Uiso   1.00
H450   H     0.13362   0.95086   0.25555   0.00000  Uiso   1.00
H451   H     0.94410   0.75737   0.66545   0.00000  Uiso   1.00
O452   O     0.07648   0.49799   0.14607   0.00000  Uiso   1.00
O453   O     0.08328   0.01270   0.14574   0.00000  Uiso   1.00
O454   O     0.83464   0.75885   0.68352   0.00000  Uiso   1.00
N455   N     0.01597   0.57276   0.16141   0.00000  Uiso   1.00
N456   N     0.02082   0.93955   0.16116   0.00000  Uiso   1.00
N457   N     0.84364   0.75867   0.54438   0.00000  Uiso   1.00
N458   N     0.09194   0.57177   0.23368   0.00000  Uiso   1.00
N459   N     0.09679   0.93857   0.23343   0.00000  Uiso   1.00
N460   N     0.91960   0.75769   0.61665   0.00000  Uiso   1.00
C461   C     0.04655   0.24295   0.28264   0.00000  Uiso   1.00
C462   C     0.01076   0.29399   0.26690   0.00000  Uiso   1.00
C463   C     0.02298   0.33635   0.21340   0.00000  Uiso   1.00
C464   C     0.98491   0.37941   0.20769   0.00000  Uiso   1.00
C465   C     0.93670   0.45854   0.17620   0.00000  Uiso   1.00
C466   C     0.00942   0.19290   0.26682   0.00000  Uiso   1.00
C467   C     0.02051   0.15026   0.21326   0.00000  Uiso   1.00
C468   C     0.98132   0.10822   0.20749   0.00000  Uiso   1.00
C469   C     0.93105   0.03040   0.17592   0.00000  Uiso   1.00
C470   C     0.05825   0.24276   0.37243   0.00000  Uiso   1.00
C471   C     0.11040   0.24203   0.40768   0.00000  Uiso   1.00
C472   C     0.11232   0.24195   0.49083   0.00000  Uiso   1.00
C473   C     0.13787   0.24154   0.62324   0.00000  Uiso   1.00
C474   C     0.95721   0.24410   0.36763   0.00000  Uiso   1.00
C475   C     0.96223   0.29461   0.31306   0.00000  Uiso   1.00
C476   C     0.92414   0.33762   0.30743   0.00000  Uiso   1.00
C477   C     0.93630   0.38004   0.25393   0.00000  Uiso   1.00
C478   C     0.96089   0.19352   0.31298   0.00000  Uiso   1.00
C479   C     0.92167   0.15154   0.30729   0.00000  Uiso   1.00
C480   C     0.93270   0.10885   0.25374   0.00000  Uiso   1.00
C481   C     0.00972   0.24338   0.41859   0.00000  Uiso   1.00
C482   C     0.01156   0.24331   0.50171   0.00000  Uiso   1.00
C483   C     0.06371   0.24258   0.53707   0.00000  Uiso   1.00
H484   H     0.08433   0.24246   0.24670   0.00000  Uiso   1.00
H485   H     0.06054   0.33584   0.17768   0.00000  Uiso   1.00
H486   H     0.05807   0.14979   0.17755   0.00000  Uiso   1.00
H487   H     0.14795   0.24154   0.37194   0.00000  Uiso   1.00
H488   H     0.01275   0.43964   0.12150   0.00000  Uiso   1.00
H489   H     0.00756   0.04732   0.12125   0.00000  Uiso   1.00
H490   H     0.19708   0.24080   0.53115   0.00000  Uiso   1.00
H491   H     0.91943   0.24459   0.40357   0.00000  Uiso   1.00
H492   H     0.88659   0.33809   0.34316   0.00000  Uiso   1.00
H493   H     0.88413   0.15203   0.34303   0.00000  Uiso   1.00
H494   H     0.97400   0.24379   0.53741   0.00000  Uiso   1.00
H495   H     0.87156   0.44147   0.25580   0.00000  Uiso   1.00
H496   H     0.86638   0.04914   0.25555   0.00000  Uiso   1.00
H497   H     0.05590   0.24263   0.66545   0.00000  Uiso   1.00
O498   O     0.92352   0.50201   0.14607   0.00000  Uiso   1.00
O499   O     0.91672   0.98730   0.14574   0.00000  Uiso   1.00
O500   O     0.16536   0.24115   0.68352   0.00000  Uiso   1.00
N501   N     0.98403   0.42724   0.16141   0.00000  Uiso   1.00
N502   N     0.97918   0.06045   0.16116   0.00000  Uiso   1.00
N503   N     0.15636   0.24133   0.54438   0.00000  Uiso   1.00
N504   N     0.90806   0.42823   0.23368   0.00000  Uiso   1.00
N505   N     0.90321   0.06143   0.23343   0.00000  Uiso   1.00
N506   N     0.08040   0.24231   0.61665   0.00000  Uiso   1.00
C507   C     0.54655   0.74295   0.78264   0.00000  Uiso   1.00
C508   C     0.51076   0.79399   0.76690   0.00000  Uiso   1.00
C509   C     0.52298   0.83635   0.71340   0.00000  Uiso   1.00
C510   C     0.48491   0.87941   0.70769   0.00000  Uiso   1.00
C511   C     0.43670   0.95854   0.67620   0.00000  Uiso   1.00
C512   C     0.50942   0.69290   0.76682   0.00000  Uiso   1.00
C513   C     0.52051   0.65026   0.71326   0.00000  Uiso   1.00
C514   C     0.48132   0.60822   0.70749   0.00000  Uiso   1.00
C515   C     0.43105   0.53040   0.67592   0.00000  Uiso   1.00
C516   C     0.55825   0.74276   0.87243   0.00000  Uiso   1.00
C517   C     0.61040   0.74203   0.90768   0.00000  Uiso   1.00
C518   C     0.61232   0.74195   0.99083   0.00000  Uiso   1.00
C519   C     0.63787   0.74154   0.12324   0.00000  Uiso   1.00
C520   C     0.45721   0.74410   0.86763   0.00000  Uiso   1.00
C521   C     0.46223   0.79461   0.81306   0.00000  Uiso   1.00
C522   C     0.42414   0.83762   0.80743   0.00000  Uiso   1.00
C523   C     0.43630   0.88004   0.75393   0.00000  Uiso   1.00
C524   C     0.46089   0.69352   0.81298   0.00000  Uiso   1.00
C525   C     0.42167   0.65154   0.80729   0.00000  Uiso   1.00
C526   C     0.43270   0.60885   0.75374   0.00000  Uiso   1.00
C527   C     0.50972   0.74338   0.91859   0.00000  Uiso   1.00
C528   C     0.51156   0.74331   0.00171   0.00000  Uiso   1.00
C529   C     0.56371   0.74258   0.03707   0.00000  Uiso   1.00
H530   H     0.58433   0.74246   0.74670   0.00000  Uiso   1.00
H531   H     0.56054   0.83584   0.67768   0.00000  Uiso   1.00
H532   H     0.55807   0.64979   0.67755   0.00000  Uiso   1.00
H533   H     0.64795   0.74154   0.87194   0.00000  Uiso   1.00
H534   H     0.51275   0.93964   0.62150   0.00000  Uiso   1.00
H535   H     0.50756   0.54732   0.62125   0.00000  Uiso   1.00
H536   H     0.69708   0.74080   0.03115   0.00000  Uiso   1.00
H537   H     0.41943   0.74459   0.90357   0.00000  Uiso   1.00
H538   H     0.38659   0.83809   0.84316   0.00000  Uiso   1.00
H539   H     0.38413   0.65203   0.84303   0.00000  Uiso   1.00
H540   H     0.47400   0.74379   0.03741   0.00000  Uiso   1.00
H541   H     0.37156   0.94147   0.75580   0.00000  Uiso   1.00
H542   H     0.36638   0.54914   0.75555   0.00000  Uiso   1.00
H543   H     0.55590   0.74263   0.16545   0.00000  Uiso   1.00
O544   O     0.42352   0.00201   0.64607   0.00000  Uiso   1.00
O545   O     0.41672   0.48730   0.64574   0.00000  Uiso   1.00
O546   O     0.66536   0.74115   0.18352   0.00000  Uiso   1.00
N547   N     0.48403   0.92724   0.66141   0.00000  Uiso   1.00
N548   N     0.47918   0.56045   0.66116   0.00000  Uiso   1.00
N549   N     0.65636   0.74133   0.04438   0.00000  Uiso   1.00
N550   N     0.40806   0.92823   0.73368   0.00000  Uiso   1.00
N551   N     0.40321   0.56143   0.73343   0.00000  Uiso   1.00
N552   N     0.58040   0.74231   0.11665   0.00000  Uiso   1.00
C553   C     0.25705   0.04655   0.03264   0.00000  Uiso   1.00
C554   C     0.20601   0.01076   0.01690   0.00000  Uiso   1.00
C555   C     0.16365   0.02298   0.96340   0.00000  Uiso   1.00
C556   C     0.12059   0.98491   0.95769   0.00000  Uiso   1.00
C557   C     0.04146   0.93670   0.92620   0.00000  Uiso   1.00
C558   C     0.30710   0.00942   0.01682   0.00000  Uiso   1.00
C559   C     0.34974   0.02051   0.96326   0.00000  Uiso   1.00
C560   C     0.39178   0.98132   0.95749   0.00000  Uiso   1.00
C561   C     0.46960   0.93105   0.92592   0.00000  Uiso   1.00
C562   C     0.25724   0.05825   0.12243   0.00000  Uiso   1.00
C563   C     0.25797   0.11040   0.15768   0.00000  Uiso   1.00
C564   C     0.25805   0.11232   0.24083   0.00000  Uiso   1.00
C565   C     0.25846   0.13787   0.37324   0.00000  Uiso   1.00
C566   C     0.25590   0.95721   0.11763   0.00000  Uiso   1.00
C567   C     0.20539   0.96223   0.06306   0.00000  Uiso   1.00
C568   C     0.16238   0.92414   0.05743   0.00000  Uiso   1.00
C569   C     0.11996   0.93630   0.00393   0.00000  Uiso   1.00
C570   C     0.30648   0.96089   0.06298   0.00000  Uiso   1.00
C571   C     0.34846   0.92167   0.05729   0.00000  Uiso   1.00
C572   C     0.39115   0.93270   0.00374   0.00000  Uiso   1.00
C573   C     0.25662   0.00972   0.16859   0.00000  Uiso   1.00
C574   C     0.25669   0.01156   0.25171   0.00000  Uiso   1.00
C575   C     0.25742   0.06371   0.28707   0.00000  Uiso   1.00
H576   H     0.25754   0.08433   0.99670   0.00000  Uiso   1.00
H577   H     0.16416   0.06054   0.92768   0.00000  Uiso   1.00
H578   H     0.35021   0.05807   0.92755   0.00000  Uiso   1.00
H579   H     0.25846   0.14795   0.12194   0.00000  Uiso   1.00
H580   H     0.06036   0.01275   0.87150   0.00000  Uiso   1.00
H581   H     0.45268   0.00756   0.87125   0.00000  Uiso   1.00
H582   H     0.25920   0.19708   0.28115   0.00000  Uiso   1.00
H583   H     0.25541   0.91943   0.15357   0.00000  Uiso   1.00
H584   H     0.16191   0.88659   0.09316   0.00000  Uiso   1.00
H585   H     0.34797   0.88413   0.09303   0.00000  Uiso   1.00
H586   H     0.25621   0.97400   0.28741   0.00000  Uiso   1.00
H587   H     0.05853   0.87156   0.00580   0.00000  Uiso   1.00
H588   H     0.45086   0.86638   0.00555   0.00000  Uiso   1.00
H589   H     0.25737   0.05590   0.41545   0.00000  Uiso   1.00
O590   O     0.99799   0.92352   0.89607   0.00000  Uiso   1.00
O591   O     0.51270   0.91672   0.89574   0.00000  Uiso   1.00
O592   O     0.25885   0.16536   0.43352   0.00000  Uiso   1.00
N593   N     0.07276   0.98403   0.91141   0.00000  Uiso   1.00
N594   N     0.43955   0.97918   0.91116   0.00000  Uiso   1.00
N595   N     0.25867   0.15636   0.29438   0.00000  Uiso   1.00
N596   N     0.07177   0.90806   0.98368   0.00000  Uiso   1.00
N597   N     0.43857   0.90321   0.98343   0.00000  Uiso   1.00
N598   N     0.25769   0.08040   0.36665   0.00000  Uiso   1.00
C599   C     0.75705   0.54655   0.53264   0.00000  Uiso   1.00
C600   C     0.70601   0.51076   0.51690   0.00000  Uiso   1.00
C601   C     0.66365   0.52298   0.46340   0.00000  Uiso   1.00
C602   C     0.62059   0.48491   0.45769   0.00000  Uiso   1.00
C603   C     0.54146   0.43670   0.42620   0.00000  Uiso   1.00
C604   C     0.80710   0.50942   0.51682   0.00000  Uiso   1.00
C605   C     0.84974   0.52051   0.46326   0.00000  Uiso   1.00
C606   C     0.89178   0.48132   0.45749   0.00000  Uiso   1.00
C607   C     0.96960   0.43105   0.42592   0.00000  Uiso   1.00
C608   C     0.75724   0.55825   0.62243   0.00000  Uiso   1.00
C609   C     0.75797   0.61040   0.65768   0.00000  Uiso   1.00
C610   C     0.75805   0.61232   0.74083   0.00000  Uiso   1.00
C611   C     0.75846   0.63787   0.87324   0.00000  Uiso   1.00
C612   C     0.75590   0.45721   0.61763   0.00000  Uiso   1.00
C613   C     0.70539   0.46223   0.56306   0.00000  Uiso   1.00
C614   C     0.66238   0.42414   0.55743   0.00000  Uiso   1.00
C615   C     0.61996   0.43630   0.50393   0.00000  Uiso   1.00
C616   C     0.80648   0.46089   0.56298   0.00000  Uiso   1.00
C617   C     0.84846   0.42167   0.55729   0.00000  Uiso   1.00
C618   C     0.89115   0.43270   0.50374   0.00000  Uiso   1.00
C619   C     0.75662   0.50972   0.66859   0.00000  Uiso   1.00
C620   C     0.75669   0.51156   0.75171   0.00000  Uiso   1.00
C621   C     0.75742   0.56371   0.78707   0.00000  Uiso   1.00
H622   H     0.75754   0.58433   0.49670   0.00000  Uiso   1.00
H623   H     0.66416   0.56054   0.42768   0.00000  Uiso   1.00
H624   H     0.85021   0.55807   0.42755   0.00000  Uiso   1.00
H625   H     0.75846   0.64795   0.62194   0.00000  Uiso   1.00
H626   H     0.56036   0.51275   0.37150   0.00000  Uiso   1.00
H627   H     0.95268   0.50756   0.37125   0.00000  Uiso   1.00
H628   H     0.75920   0.69708   0.78115   0.00000  Uiso   1.00
H629   H     0.75541   0.41943   0.65357   0.00000  Uiso   1.00
H630   H     0.66191   0.38659   0.59316   0.00000  Uiso   1.00
H631   H     0.84797   0.38413   0.59303   0.00000  Uiso   1.00
H632   H     0.75621   0.47400   0.78741   0.00000  Uiso   1.00
H633   H     0.55853   0.37156   0.50580   0.00000  Uiso   1.00
H634   H     0.95086   0.36638   0.50555   0.00000  Uiso   1.00
H635   H     0.75737   0.55590   0.91545   0.00000  Uiso   1.00
O636   O     0.49799   0.42352   0.39607   0.00000  Uiso   1.00
O637   O     0.01270   0.41672   0.39574   0.00000  Uiso   1.00
O638   O     0.75885   0.66536   0.93352   0.00000  Uiso   1.00
N639   N     0.57276   0.48403   0.41141   0.00000  Uiso   1.00
N640   N     0.93955   0.47918   0.41116   0.00000  Uiso   1.00
N641   N     0.75867   0.65636   0.79438   0.00000  Uiso   1.00
N642   N     0.57177   0.40806   0.48368   0.00000  Uiso   1.00
N643   N     0.93857   0.40321   0.48343   0.00000  Uiso   1.00
N644   N     0.75769   0.58040   0.86665   0.00000  Uiso   1.00
C645   C     0.24295   0.45345   0.53264   0.00000  Uiso   1.00
C646   C     0.29399   0.48924   0.51690   0.00000  Uiso   1.00
C647   C     0.33635   0.47702   0.46340   0.00000  Uiso   1.00
C648   C     0.37941   0.51509   0.45769   0.00000  Uiso   1.00
C649   C     0.45854   0.56330   0.42620   0.00000  Uiso   1.00
C650   C     0.19290   0.49058   0.51682   0.00000  Uiso   1.00
C651   C     0.15026   0.47949   0.46326   0.00000  Uiso   1.00
C652   C     0.10822   0.51868   0.45749   0.00000  Uiso   1.00
C653   C     0.03040   0.56895   0.42592   0.00000  Uiso   1.00
C654   C     0.24276   0.44175   0.62243   0.00000  Uiso   1.00
C655   C     0.24203   0.38960   0.65768   0.00000  Uiso   1.00
C656   C     0.24195   0.38768   0.74083   0.00000  Uiso   1.00
C657   C     0.24154   0.36213   0.87324   0.00000  Uiso   1.00
C658   C     0.24410   0.54279   0.61763   0.00000  Uiso   1.00
C659   C     0.29461   0.53777   0.56306   0.00000  Uiso   1.00
C660   C     0.33762   0.57586   0.55743   0.00000  Uiso   1.00
C661   C     0.38004   0.56370   0.50393   0.00000  Uiso   1.00
C662   C     0.19352   0.53911   0.56298   0.00000  Uiso   1.00
C663   C     0.15154   0.57833   0.55729   0.00000  Uiso   1.00
C664   C     0.10885   0.56730   0.50374   0.00000  Uiso   1.00
C665   C     0.24338   0.49028   0.66859   0.00000  Uiso   1.00
C666   C     0.24331   0.48844   0.75171   0.00000  Uiso   1.00
C667   C     0.24258   0.43629   0.78707   0.00000  Uiso   1.00
H668   H     0.24246   0.41567   0.49670   0.00000  Uiso   1.00
H669   H     0.33584   0.43946   0.42768   0.00000  Uiso   1.00
H670   H     0.14979   0.44193   0.42755   0.00000  Uiso   1.00
H671   H     0.24154   0.35205   0.62194   0.00000  Uiso   1.00
H672   H     0.43964   0.48725   0.37150   0.00000  Uiso   1.00
H673   H     0.04732   0.49244   0.37125   0.00000  Uiso   1.00
H674   H     0.24080   0.30292   0.78115   0.00000  Uiso   1.00
H675   H     0.24459   0.58057   0.65357   0.00000  Uiso   1.00
H676   H     0.33809   0.61341   0.59316   0.00000  Uiso   1.00
H677   H     0.15203   0.61587   0.59303   0.00000  Uiso   1.00
H678   H     0.24379   0.52600   0.78741   0.00000  Uiso   1.00
H679   H     0.44147   0.62844   0.50580   0.00000  Uiso   1.00
H680   H     0.04914   0.63362   0.50555   0.00000  Uiso   1.00
H681   H     0.24263   0.44410   0.91545   0.00000  Uiso   1.00
O682   O     0.50201   0.57648   0.39607   0.00000  Uiso   1.00
O683   O     0.98730   0.58328   0.39574   0.00000  Uiso   1.00
O684   O     0.24115   0.33464   0.93352   0.00000  Uiso   1.00
N685   N     0.42724   0.51597   0.41141   0.00000  Uiso   1.00
N686   N     0.06045   0.52082   0.41116   0.00000  Uiso   1.00
N687   N     0.24133   0.34364   0.79438   0.00000  Uiso   1.00
N688   N     0.42823   0.59194   0.48368   0.00000  Uiso   1.00
N689   N     0.06143   0.59679   0.48343   0.00000  Uiso   1.00
N690   N     0.24231   0.41960   0.86665   0.00000  Uiso   1.00
C691   C     0.74295   0.95345   0.03264   0.00000  Uiso   1.00
C692   C     0.79399   0.98924   0.01690   0.00000  Uiso   1.00
C693   C     0.83635   0.97702   0.96340   0.00000  Uiso   1.00
C694   C     0.87941   0.01509   0.95769   0.00000  Uiso   1.00
C695   C     0.95854   0.06330   0.92620   0.00000  Uiso   1.00
C696   C     0.69290   0.99058   0.01682   0.00000  Uiso   1.00
C697   C     0.65026   0.97949   0.96326   0.00000  Uiso   1.00
C698   C     0.60822   0.01868   0.95749   0.00000  Uiso   1.00
C699   C     0.53040   0.06895   0.92592   0.00000  Uiso   1.00
C700   C     0.74276   0.94175   0.12243   0.00000  Uiso   1.00
C701   C     0.74203   0.88960   0.15768   0.00000  Uiso   1.00
C702   C     0.74195   0.88768   0.24083   0.00000  Uiso   1.00
C703   C     0.74154   0.86213   0.37324   0.00000  Uiso   1.00
C704   C     0.74410   0.04279   0.11763   0.00000  Uiso   1.00
C705   C     0.79461   0.03777   0.06306   0.00000  Uiso   1.00
C706   C     0.83762   0.07586   0.05743   0.00000  Uiso   1.00
C707   C     0.88004   0.06370   0.00393   0.00000  Uiso   1.00
C708   C     0.69352   0.03911   0.06298   0.00000  Uiso   1.00
C709   C     0.65154   0.07833   0.05729   0.00000  Uiso   1.00
C710   C     0.60885   0.06730   0.00374   0.00000  Uiso   1.00
C711   C     0.74338   0.99028   0.16859   0.00000  Uiso   1.00
C712   C     0.74331   0.98844   0.25171   0.00000  Uiso   1.00
C713   C     0.74258   0.93629   0.28707   0.00000  Uiso   1.00
H714   H     0.74246   0.91567   0.99670   0.00000  Uiso   1.00
H715   H     0.83584   0.93946   0.92768   0.00000  Uiso   1.00
H716   H     0.64979   0.94193   0.92755   0.00000  Uiso   1.00
H717   H     0.74154   0.85205   0.12194   0.00000  Uiso   1.00
H718   H     0.93964   0.98725   0.87150   0.00000  Uiso   1.00
H719   H     0.54732   0.99244   0.87125   0.00000  Uiso   1.00
H720   H     0.74080   0.80292   0.28115   0.00000  Uiso   1.00
H721   H     0.74459   0.08057   0.15357   0.00000  Uiso   1.00
H722   H     0.83809   0.11341   0.09316   0.00000  Uiso   1.00
H723   H     0.65203   0.11587   0.09303   0.00000  Uiso   1.00
H724   H     0.74379   0.02600   0.28741   0.00000  Uiso   1.00
H725   H     0.94147   0.12844   0.00580   0.00000  Uiso   1.00
H726   H     0.54914   0.13362   0.00555   0.00000  Uiso   1.00
H727   H     0.74263   0.94410   0.41545   0.00000  Uiso   1.00
O728   O     0.00201   0.07648   0.89607   0.00000  Uiso   1.00
O729   O     0.48730   0.08328   0.89574   0.00000  Uiso   1.00
O730   O     0.74115   0.83464   0.43352   0.00000  Uiso   1.00
N731   N     0.92724   0.01597   0.91141   0.00000  Uiso   1.00
N732   N     0.56045   0.02082   0.91116   0.00000  Uiso   1.00
N733   N     0.74133   0.84364   0.29438   0.00000  Uiso   1.00
N734   N     0.92823   0.09194   0.98368   0.00000  Uiso   1.00
N735   N     0.56143   0.09679   0.98343   0.00000  Uiso   1.00
N736   N     0.74231   0.91960   0.36665   0.00000  Uiso   1.00
