data_job_05341
_audit_creation_date              2018-12-19
_audit_creation_method            'Materials Studio'
_symmetry_space_group_name_H-M    'P1'
_symmetry_Int_Tables_number       1
_symmetry_cell_setting            triclinic
loop_
_symmetry_equiv_pos_as_xyz
  x,y,z
_cell_length_a                    25.9097
_cell_length_b                    13.0063
_cell_length_c                    42.3276
_cell_angle_alpha                 90.0000
_cell_angle_beta                  90.0000
_cell_angle_gamma                 90.0000
loop_
_atom_site_label
_atom_site_type_symbol
_atom_site_fract_x
_atom_site_fract_y
_atom_site_fract_z
_atom_site_U_iso_or_equiv
_atom_site_adp_type
_atom_site_occupancy
C1     C     0.21354   0.03321   0.90613   0.00000  Uiso   1.00
C2     C     0.23789   0.11356   0.92772   0.00000  Uiso   1.00
C3     C     0.28328   0.10151   0.94473   0.00000  Uiso   1.00
C4     C     0.29910   0.18407   0.96313   0.00000  Uiso   1.00
C5     C     0.34123   0.29493   0.99647   0.00000  Uiso   1.00
C6     C     0.15884   0.01676   0.91842   0.00000  Uiso   1.00
C7     C     0.13776   0.92331   0.92759   0.00000  Uiso   1.00
C8     C     0.08703   0.92439   0.93815   0.00000  Uiso   1.00
C9     C     0.00643   0.88495   0.95703   0.00000  Uiso   1.00
C10    C     0.20784   0.08448   0.87392   0.00000  Uiso   1.00
C11    C     0.22795   0.04796   0.84568   0.00000  Uiso   1.00
C12    C     0.21846   0.10603   0.81877   0.00000  Uiso   1.00
C13    C     0.21394   0.17173   0.76855   0.00000  Uiso   1.00
C14    C     0.16092   0.20127   0.90856   0.00000  Uiso   1.00
C15    C     0.20930   0.20484   0.92904   0.00000  Uiso   1.00
C16    C     0.22506   0.28745   0.94742   0.00000  Uiso   1.00
C17    C     0.27046   0.27552   0.96445   0.00000  Uiso   1.00
C18    C     0.13025   0.10804   0.91974   0.00000  Uiso   1.00
C19    C     0.07954   0.10925   0.93029   0.00000  Uiso   1.00
C20    C     0.05840   0.01584   0.93948   0.00000  Uiso   1.00
C21    C     0.17925   0.17576   0.87524   0.00000  Uiso   1.00
C22    C     0.16973   0.23390   0.84837   0.00000  Uiso   1.00
C23    C     0.18983   0.19748   0.82010   0.00000  Uiso   1.00
H24    H     0.23579   0.96214   0.90510   0.00000  Uiso   1.00
H25    H     0.30539   0.03085   0.94370   0.00000  Uiso   1.00
H26    H     0.15989   0.85269   0.92656   0.00000  Uiso   1.00
H27    H     0.25007   0.97731   0.84466   0.00000  Uiso   1.00
H28    H     0.36993   0.14727   0.98709   0.00000  Uiso   1.00
H29    H     0.06314   0.77160   0.95095   0.00000  Uiso   1.00
H30    H     0.25329   0.03439   0.77824   0.00000  Uiso   1.00
H31    H     0.13866   0.27234   0.90959   0.00000  Uiso   1.00
H32    H     0.20293   0.35808   0.94844   0.00000  Uiso   1.00
H33    H     0.05743   0.17991   0.93131   0.00000  Uiso   1.00
H34    H     0.14761   0.30453   0.84940   0.00000  Uiso   1.00
H35    H     0.28677   0.41286   0.99094   0.00000  Uiso   1.00
H36    H     0.97997   0.03718   0.95479   0.00000  Uiso   1.00
H37    H     0.17013   0.29998   0.78209   0.00000  Uiso   1.00
O38    O     0.37237   0.33085   0.01449   0.00000  Uiso   1.00
O39    O     0.96987   0.83798   0.96707   0.00000  Uiso   1.00
O40    O     0.21935   0.18276   0.74049   0.00000  Uiso   1.00
N41    N     0.34154   0.19802   0.98266   0.00000  Uiso   1.00
N42    N     0.05471   0.84678   0.94887   0.00000  Uiso   1.00
N43    N     0.23248   0.09246   0.78741   0.00000  Uiso   1.00
N44    N     0.29679   0.34093   0.98473   0.00000  Uiso   1.00
N45    N     0.00997   0.98969   0.95094   0.00000  Uiso   1.00
N46    N     0.18773   0.23537   0.78948   0.00000  Uiso   1.00
C47    C     0.79453   0.53244   0.91187   0.00000  Uiso   1.00
C48    C     0.76220   0.45823   0.93152   0.00000  Uiso   1.00
C49    C     0.71908   0.48413   0.94927   0.00000  Uiso   1.00
C50    C     0.69485   0.40511   0.96559   0.00000  Uiso   1.00
C51    C     0.64187   0.30530   0.99633   0.00000  Uiso   1.00
C52    C     0.84973   0.52203   0.92395   0.00000  Uiso   1.00
C53    C     0.88022   0.60158   0.93533   0.00000  Uiso   1.00
C54    C     0.92968   0.57626   0.94527   0.00000  Uiso   1.00
C55    C     0.01262   0.57552   0.96424   0.00000  Uiso   1.00
C56    C     0.79473   0.48933   0.87837   0.00000  Uiso   1.00
C57    C     0.77897   0.54137   0.85142   0.00000  Uiso   1.00
C58    C     0.78213   0.48853   0.82298   0.00000  Uiso   1.00
C59    C     0.77966   0.43700   0.77117   0.00000  Uiso   1.00
C60    C     0.82817   0.34606   0.90929   0.00000  Uiso   1.00
C61    C     0.78047   0.35700   0.93012   0.00000  Uiso   1.00
C62    C     0.75629   0.27792   0.94641   0.00000  Uiso   1.00
C63    C     0.71315   0.30370   0.96418   0.00000  Uiso   1.00
C64    C     0.86800   0.42081   0.92255   0.00000  Uiso   1.00
C65    C     0.91743   0.39537   0.93248   0.00000  Uiso   1.00
C66    C     0.94798   0.47485   0.94387   0.00000  Uiso   1.00
C67    C     0.81300   0.38809   0.87696   0.00000  Uiso   1.00
C68    C     0.81618   0.33516   0.84856   0.00000  Uiso   1.00
C69    C     0.80044   0.38711   0.82157   0.00000  Uiso   1.00
H70    H     0.78031   0.61125   0.91296   0.00000  Uiso   1.00
H71    H     0.70495   0.56248   0.95035   0.00000  Uiso   1.00
H72    H     0.86607   0.67991   0.93641   0.00000  Uiso   1.00
H73    H     0.76484   0.61971   0.85251   0.00000  Uiso   1.00
H74    H     0.62947   0.46377   0.99119   0.00000  Uiso   1.00
H75    H     0.96920   0.71138   0.96179   0.00000  Uiso   1.00
H76    H     0.75573   0.58444   0.78487   0.00000  Uiso   1.00
H77    H     0.84240   0.26725   0.90819   0.00000  Uiso   1.00
H78    H     0.77044   0.19959   0.94532   0.00000  Uiso   1.00
H79    H     0.93156   0.31702   0.93139   0.00000  Uiso   1.00
H80    H     0.83033   0.25682   0.84749   0.00000  Uiso   1.00
H81    H     0.68263   0.16924   0.98712   0.00000  Uiso   1.00
H82    H     0.02236   0.41685   0.95771   0.00000  Uiso   1.00
H83    H     0.80889   0.28991   0.78080   0.00000  Uiso   1.00
O84    O     0.60761   0.27822   0.01368   0.00000  Uiso   1.00
O85    O     0.05332   0.60307   0.97510   0.00000  Uiso   1.00
O86    O     0.77325   0.43653   0.74298   0.00000  Uiso   1.00
N87    N     0.65185   0.40373   0.98513   0.00000  Uiso   1.00
N88    N     0.96947   0.63523   0.95765   0.00000  Uiso   1.00
N89    N     0.76991   0.51656   0.79224   0.00000  Uiso   1.00
N90    N     0.68045   0.24525   0.98294   0.00000  Uiso   1.00
N91    N     0.99807   0.47674   0.95546   0.00000  Uiso   1.00
N92    N     0.79851   0.35808   0.79005   0.00000  Uiso   1.00
C93    C     0.28646   0.46679   0.40613   0.00000  Uiso   1.00
C94    C     0.26211   0.38644   0.42772   0.00000  Uiso   1.00
C95    C     0.21672   0.39849   0.44473   0.00000  Uiso   1.00
C96    C     0.20090   0.31593   0.46313   0.00000  Uiso   1.00
C97    C     0.15877   0.20507   0.49647   0.00000  Uiso   1.00
C98    C     0.34116   0.48324   0.41842   0.00000  Uiso   1.00
C99    C     0.36224   0.57669   0.42759   0.00000  Uiso   1.00
C100   C     0.41297   0.57561   0.43815   0.00000  Uiso   1.00
C101   C     0.49357   0.61505   0.45703   0.00000  Uiso   1.00
C102   C     0.29216   0.41552   0.37392   0.00000  Uiso   1.00
C103   C     0.27205   0.45204   0.34568   0.00000  Uiso   1.00
C104   C     0.28154   0.39397   0.31877   0.00000  Uiso   1.00
C105   C     0.28606   0.32827   0.26855   0.00000  Uiso   1.00
C106   C     0.33908   0.29873   0.40856   0.00000  Uiso   1.00
C107   C     0.29070   0.29516   0.42904   0.00000  Uiso   1.00
C108   C     0.27494   0.21255   0.44742   0.00000  Uiso   1.00
C109   C     0.22954   0.22448   0.46445   0.00000  Uiso   1.00
C110   C     0.36975   0.39196   0.41974   0.00000  Uiso   1.00
C111   C     0.42046   0.39075   0.43029   0.00000  Uiso   1.00
C112   C     0.44160   0.48416   0.43948   0.00000  Uiso   1.00
C113   C     0.32075   0.32424   0.37524   0.00000  Uiso   1.00
C114   C     0.33027   0.26610   0.34837   0.00000  Uiso   1.00
C115   C     0.31017   0.30252   0.32010   0.00000  Uiso   1.00
H116   H     0.26421   0.53786   0.40510   0.00000  Uiso   1.00
H117   H     0.19461   0.46915   0.44370   0.00000  Uiso   1.00
H118   H     0.34011   0.64731   0.42656   0.00000  Uiso   1.00
H119   H     0.24993   0.52269   0.34466   0.00000  Uiso   1.00
H120   H     0.13007   0.35273   0.48709   0.00000  Uiso   1.00
H121   H     0.43686   0.72840   0.45095   0.00000  Uiso   1.00
H122   H     0.24671   0.46561   0.27824   0.00000  Uiso   1.00
H123   H     0.36134   0.22766   0.40959   0.00000  Uiso   1.00
H124   H     0.29707   0.14192   0.44844   0.00000  Uiso   1.00
H125   H     0.44257   0.32009   0.43131   0.00000  Uiso   1.00
H126   H     0.35239   0.19547   0.34940   0.00000  Uiso   1.00
H127   H     0.21323   0.08714   0.49094   0.00000  Uiso   1.00
H128   H     0.52003   0.46282   0.45479   0.00000  Uiso   1.00
H129   H     0.32987   0.20002   0.28209   0.00000  Uiso   1.00
O130   O     0.12763   0.16915   0.51449   0.00000  Uiso   1.00
O131   O     0.53013   0.66202   0.46707   0.00000  Uiso   1.00
O132   O     0.28065   0.31724   0.24049   0.00000  Uiso   1.00
N133   N     0.15846   0.30198   0.48266   0.00000  Uiso   1.00
N134   N     0.44529   0.65322   0.44887   0.00000  Uiso   1.00
N135   N     0.26752   0.40754   0.28741   0.00000  Uiso   1.00
N136   N     0.20321   0.15907   0.48473   0.00000  Uiso   1.00
N137   N     0.49003   0.51031   0.45094   0.00000  Uiso   1.00
N138   N     0.31227   0.26463   0.28948   0.00000  Uiso   1.00
C139   C     0.70547   0.96756   0.41187   0.00000  Uiso   1.00
C140   C     0.73780   0.04177   0.43152   0.00000  Uiso   1.00
C141   C     0.78092   0.01587   0.44927   0.00000  Uiso   1.00
C142   C     0.80515   0.09489   0.46559   0.00000  Uiso   1.00
C143   C     0.85813   0.19470   0.49633   0.00000  Uiso   1.00
C144   C     0.65027   0.97797   0.42395   0.00000  Uiso   1.00
C145   C     0.61978   0.89842   0.43533   0.00000  Uiso   1.00
C146   C     0.57032   0.92374   0.44527   0.00000  Uiso   1.00
C147   C     0.48738   0.92448   0.46424   0.00000  Uiso   1.00
C148   C     0.70527   0.01067   0.37837   0.00000  Uiso   1.00
C149   C     0.72103   0.95863   0.35142   0.00000  Uiso   1.00
C150   C     0.71787   0.01147   0.32298   0.00000  Uiso   1.00
C151   C     0.72034   0.06300   0.27117   0.00000  Uiso   1.00
C152   C     0.67183   0.15394   0.40929   0.00000  Uiso   1.00
C153   C     0.71953   0.14300   0.43012   0.00000  Uiso   1.00
C154   C     0.74371   0.22208   0.44641   0.00000  Uiso   1.00
C155   C     0.78685   0.19630   0.46418   0.00000  Uiso   1.00
C156   C     0.63200   0.07919   0.42255   0.00000  Uiso   1.00
C157   C     0.58257   0.10463   0.43248   0.00000  Uiso   1.00
C158   C     0.55202   0.02515   0.44387   0.00000  Uiso   1.00
C159   C     0.68700   0.11191   0.37696   0.00000  Uiso   1.00
C160   C     0.68382   0.16484   0.34856   0.00000  Uiso   1.00
C161   C     0.69956   0.11289   0.32157   0.00000  Uiso   1.00
H162   H     0.71969   0.88875   0.41296   0.00000  Uiso   1.00
H163   H     0.79505   0.93752   0.45035   0.00000  Uiso   1.00
H164   H     0.63393   0.82009   0.43641   0.00000  Uiso   1.00
H165   H     0.73516   0.88029   0.35251   0.00000  Uiso   1.00
H166   H     0.87053   0.03623   0.49119   0.00000  Uiso   1.00
H167   H     0.53080   0.78862   0.46179   0.00000  Uiso   1.00
H168   H     0.74427   0.91556   0.28487   0.00000  Uiso   1.00
H169   H     0.65760   0.23275   0.40819   0.00000  Uiso   1.00
H170   H     0.72956   0.30041   0.44532   0.00000  Uiso   1.00
H171   H     0.56844   0.18298   0.43139   0.00000  Uiso   1.00
H172   H     0.66967   0.24318   0.34749   0.00000  Uiso   1.00
H173   H     0.81737   0.33076   0.48712   0.00000  Uiso   1.00
H174   H     0.47764   0.08315   0.45771   0.00000  Uiso   1.00
H175   H     0.69111   0.21009   0.28080   0.00000  Uiso   1.00
O176   O     0.89239   0.22178   0.51368   0.00000  Uiso   1.00
O177   O     0.44668   0.89693   0.47510   0.00000  Uiso   1.00
O178   O     0.72675   0.06347   0.24298   0.00000  Uiso   1.00
N179   N     0.84815   0.09627   0.48513   0.00000  Uiso   1.00
N180   N     0.53053   0.86477   0.45765   0.00000  Uiso   1.00
N181   N     0.73009   0.98344   0.29224   0.00000  Uiso   1.00
N182   N     0.81955   0.25475   0.48294   0.00000  Uiso   1.00
N183   N     0.50193   0.02326   0.45546   0.00000  Uiso   1.00
N184   N     0.70149   0.14192   0.29005   0.00000  Uiso   1.00
C185   C     0.78646   0.03321   0.59387   0.00000  Uiso   1.00
C186   C     0.76211   0.11356   0.57228   0.00000  Uiso   1.00
C187   C     0.71672   0.10151   0.55527   0.00000  Uiso   1.00
C188   C     0.70090   0.18407   0.53687   0.00000  Uiso   1.00
C189   C     0.65877   0.29493   0.50353   0.00000  Uiso   1.00
C190   C     0.84116   0.01676   0.58158   0.00000  Uiso   1.00
C191   C     0.86224   0.92331   0.57241   0.00000  Uiso   1.00
C192   C     0.91297   0.92439   0.56185   0.00000  Uiso   1.00
C193   C     0.99357   0.88495   0.54297   0.00000  Uiso   1.00
C194   C     0.79216   0.08448   0.62608   0.00000  Uiso   1.00
C195   C     0.77205   0.04796   0.65432   0.00000  Uiso   1.00
C196   C     0.78154   0.10603   0.68123   0.00000  Uiso   1.00
C197   C     0.78606   0.17173   0.73145   0.00000  Uiso   1.00
C198   C     0.83908   0.20127   0.59144   0.00000  Uiso   1.00
C199   C     0.79070   0.20484   0.57096   0.00000  Uiso   1.00
C200   C     0.77494   0.28745   0.55258   0.00000  Uiso   1.00
C201   C     0.72954   0.27552   0.53555   0.00000  Uiso   1.00
C202   C     0.86975   0.10804   0.58026   0.00000  Uiso   1.00
C203   C     0.92046   0.10925   0.56971   0.00000  Uiso   1.00
C204   C     0.94160   0.01584   0.56052   0.00000  Uiso   1.00
C205   C     0.82075   0.17576   0.62476   0.00000  Uiso   1.00
C206   C     0.83027   0.23390   0.65163   0.00000  Uiso   1.00
C207   C     0.81017   0.19748   0.67990   0.00000  Uiso   1.00
H208   H     0.76421   0.96214   0.59490   0.00000  Uiso   1.00
H209   H     0.69461   0.03085   0.55630   0.00000  Uiso   1.00
H210   H     0.84011   0.85269   0.57344   0.00000  Uiso   1.00
H211   H     0.74993   0.97731   0.65534   0.00000  Uiso   1.00
H212   H     0.63007   0.14727   0.51291   0.00000  Uiso   1.00
H213   H     0.93686   0.77160   0.54905   0.00000  Uiso   1.00
H214   H     0.74671   0.03439   0.72176   0.00000  Uiso   1.00
H215   H     0.86134   0.27234   0.59041   0.00000  Uiso   1.00
H216   H     0.79707   0.35808   0.55156   0.00000  Uiso   1.00
H217   H     0.94257   0.17991   0.56869   0.00000  Uiso   1.00
H218   H     0.85239   0.30453   0.65060   0.00000  Uiso   1.00
H219   H     0.71323   0.41286   0.50906   0.00000  Uiso   1.00
H220   H     0.02003   0.03718   0.54521   0.00000  Uiso   1.00
H221   H     0.82987   0.29998   0.71791   0.00000  Uiso   1.00
O222   O     0.62763   0.33085   0.48551   0.00000  Uiso   1.00
O223   O     0.03013   0.83798   0.53293   0.00000  Uiso   1.00
O224   O     0.78065   0.18276   0.75951   0.00000  Uiso   1.00
N225   N     0.65846   0.19802   0.51734   0.00000  Uiso   1.00
N226   N     0.94529   0.84678   0.55113   0.00000  Uiso   1.00
N227   N     0.76752   0.09246   0.71259   0.00000  Uiso   1.00
N228   N     0.70321   0.34093   0.51527   0.00000  Uiso   1.00
N229   N     0.99003   0.98969   0.54906   0.00000  Uiso   1.00
N230   N     0.81227   0.23537   0.71052   0.00000  Uiso   1.00
C231   C     0.20547   0.53244   0.58813   0.00000  Uiso   1.00
C232   C     0.23780   0.45823   0.56848   0.00000  Uiso   1.00
C233   C     0.28092   0.48413   0.55073   0.00000  Uiso   1.00
C234   C     0.30515   0.40511   0.53441   0.00000  Uiso   1.00
C235   C     0.35813   0.30530   0.50367   0.00000  Uiso   1.00
C236   C     0.15027   0.52203   0.57605   0.00000  Uiso   1.00
C237   C     0.11978   0.60158   0.56467   0.00000  Uiso   1.00
C238   C     0.07032   0.57626   0.55473   0.00000  Uiso   1.00
C239   C     0.98738   0.57552   0.53576   0.00000  Uiso   1.00
C240   C     0.20527   0.48933   0.62163   0.00000  Uiso   1.00
C241   C     0.22103   0.54137   0.64858   0.00000  Uiso   1.00
C242   C     0.21787   0.48853   0.67702   0.00000  Uiso   1.00
C243   C     0.22034   0.43700   0.72883   0.00000  Uiso   1.00
C244   C     0.17183   0.34606   0.59071   0.00000  Uiso   1.00
C245   C     0.21953   0.35700   0.56988   0.00000  Uiso   1.00
C246   C     0.24371   0.27792   0.55359   0.00000  Uiso   1.00
C247   C     0.28685   0.30370   0.53582   0.00000  Uiso   1.00
C248   C     0.13200   0.42081   0.57745   0.00000  Uiso   1.00
C249   C     0.08257   0.39537   0.56752   0.00000  Uiso   1.00
C250   C     0.05202   0.47485   0.55613   0.00000  Uiso   1.00
C251   C     0.18700   0.38809   0.62304   0.00000  Uiso   1.00
C252   C     0.18382   0.33516   0.65144   0.00000  Uiso   1.00
C253   C     0.19956   0.38711   0.67843   0.00000  Uiso   1.00
H254   H     0.21969   0.61125   0.58704   0.00000  Uiso   1.00
H255   H     0.29505   0.56248   0.54965   0.00000  Uiso   1.00
H256   H     0.13393   0.67991   0.56359   0.00000  Uiso   1.00
H257   H     0.23516   0.61971   0.64749   0.00000  Uiso   1.00
H258   H     0.37053   0.46377   0.50881   0.00000  Uiso   1.00
H259   H     0.03080   0.71138   0.53821   0.00000  Uiso   1.00
H260   H     0.24427   0.58444   0.71513   0.00000  Uiso   1.00
H261   H     0.15760   0.26725   0.59181   0.00000  Uiso   1.00
H262   H     0.22956   0.19959   0.55468   0.00000  Uiso   1.00
H263   H     0.06844   0.31702   0.56861   0.00000  Uiso   1.00
H264   H     0.16967   0.25682   0.65251   0.00000  Uiso   1.00
H265   H     0.31737   0.16924   0.51288   0.00000  Uiso   1.00
H266   H     0.97764   0.41685   0.54229   0.00000  Uiso   1.00
H267   H     0.19111   0.28991   0.71920   0.00000  Uiso   1.00
O268   O     0.39239   0.27822   0.48632   0.00000  Uiso   1.00
O269   O     0.94668   0.60307   0.52490   0.00000  Uiso   1.00
O270   O     0.22675   0.43653   0.75702   0.00000  Uiso   1.00
N271   N     0.34815   0.40373   0.51487   0.00000  Uiso   1.00
N272   N     0.03053   0.63523   0.54235   0.00000  Uiso   1.00
N273   N     0.23009   0.51656   0.70776   0.00000  Uiso   1.00
N274   N     0.31955   0.24525   0.51706   0.00000  Uiso   1.00
N275   N     0.00193   0.47674   0.54454   0.00000  Uiso   1.00
N276   N     0.20149   0.35808   0.70995   0.00000  Uiso   1.00
C277   C     0.71354   0.46679   0.09387   0.00000  Uiso   1.00
C278   C     0.73789   0.38644   0.07228   0.00000  Uiso   1.00
C279   C     0.78328   0.39849   0.05527   0.00000  Uiso   1.00
C280   C     0.79910   0.31593   0.03687   0.00000  Uiso   1.00
C281   C     0.84123   0.20507   0.00353   0.00000  Uiso   1.00
C282   C     0.65884   0.48324   0.08158   0.00000  Uiso   1.00
C283   C     0.63776   0.57669   0.07241   0.00000  Uiso   1.00
C284   C     0.58703   0.57561   0.06185   0.00000  Uiso   1.00
C285   C     0.50643   0.61505   0.04297   0.00000  Uiso   1.00
C286   C     0.70784   0.41552   0.12608   0.00000  Uiso   1.00
C287   C     0.72795   0.45204   0.15432   0.00000  Uiso   1.00
C288   C     0.71846   0.39397   0.18123   0.00000  Uiso   1.00
C289   C     0.71394   0.32827   0.23145   0.00000  Uiso   1.00
C290   C     0.66092   0.29873   0.09144   0.00000  Uiso   1.00
C291   C     0.70930   0.29516   0.07096   0.00000  Uiso   1.00
C292   C     0.72506   0.21255   0.05258   0.00000  Uiso   1.00
C293   C     0.77046   0.22448   0.03555   0.00000  Uiso   1.00
C294   C     0.63025   0.39196   0.08026   0.00000  Uiso   1.00
C295   C     0.57954   0.39075   0.06971   0.00000  Uiso   1.00
C296   C     0.55840   0.48416   0.06052   0.00000  Uiso   1.00
C297   C     0.67925   0.32424   0.12476   0.00000  Uiso   1.00
C298   C     0.66973   0.26610   0.15163   0.00000  Uiso   1.00
C299   C     0.68983   0.30252   0.17990   0.00000  Uiso   1.00
H300   H     0.73579   0.53786   0.09490   0.00000  Uiso   1.00
H301   H     0.80539   0.46915   0.05630   0.00000  Uiso   1.00
H302   H     0.65989   0.64731   0.07344   0.00000  Uiso   1.00
H303   H     0.75007   0.52269   0.15534   0.00000  Uiso   1.00
H304   H     0.86993   0.35273   0.01291   0.00000  Uiso   1.00
H305   H     0.56314   0.72840   0.04905   0.00000  Uiso   1.00
H306   H     0.75329   0.46561   0.22176   0.00000  Uiso   1.00
H307   H     0.63866   0.22766   0.09041   0.00000  Uiso   1.00
H308   H     0.70293   0.14192   0.05156   0.00000  Uiso   1.00
H309   H     0.55743   0.32009   0.06869   0.00000  Uiso   1.00
H310   H     0.64761   0.19547   0.15060   0.00000  Uiso   1.00
H311   H     0.78677   0.08714   0.00906   0.00000  Uiso   1.00
H312   H     0.47997   0.46282   0.04521   0.00000  Uiso   1.00
H313   H     0.67013   0.20002   0.21791   0.00000  Uiso   1.00
O314   O     0.87237   0.16915   0.98551   0.00000  Uiso   1.00
O315   O     0.46987   0.66202   0.03293   0.00000  Uiso   1.00
O316   O     0.71935   0.31724   0.25951   0.00000  Uiso   1.00
N317   N     0.84154   0.30198   0.01734   0.00000  Uiso   1.00
N318   N     0.55471   0.65322   0.05113   0.00000  Uiso   1.00
N319   N     0.73248   0.40754   0.21259   0.00000  Uiso   1.00
N320   N     0.79679   0.15907   0.01527   0.00000  Uiso   1.00
N321   N     0.50997   0.51031   0.04906   0.00000  Uiso   1.00
N322   N     0.68773   0.26463   0.21052   0.00000  Uiso   1.00
C323   C     0.29453   0.96756   0.08813   0.00000  Uiso   1.00
C324   C     0.26220   0.04177   0.06848   0.00000  Uiso   1.00
C325   C     0.21908   0.01587   0.05073   0.00000  Uiso   1.00
C326   C     0.19485   0.09489   0.03441   0.00000  Uiso   1.00
C327   C     0.14187   0.19470   0.00367   0.00000  Uiso   1.00
C328   C     0.34973   0.97797   0.07605   0.00000  Uiso   1.00
C329   C     0.38022   0.89842   0.06467   0.00000  Uiso   1.00
C330   C     0.42968   0.92374   0.05473   0.00000  Uiso   1.00
C331   C     0.51262   0.92448   0.03576   0.00000  Uiso   1.00
C332   C     0.29473   0.01067   0.12163   0.00000  Uiso   1.00
C333   C     0.27897   0.95863   0.14858   0.00000  Uiso   1.00
C334   C     0.28213   0.01147   0.17702   0.00000  Uiso   1.00
C335   C     0.27966   0.06300   0.22883   0.00000  Uiso   1.00
C336   C     0.32817   0.15394   0.09071   0.00000  Uiso   1.00
C337   C     0.28047   0.14300   0.06988   0.00000  Uiso   1.00
C338   C     0.25629   0.22208   0.05359   0.00000  Uiso   1.00
C339   C     0.21315   0.19630   0.03582   0.00000  Uiso   1.00
C340   C     0.36800   0.07919   0.07745   0.00000  Uiso   1.00
C341   C     0.41743   0.10463   0.06752   0.00000  Uiso   1.00
C342   C     0.44798   0.02515   0.05613   0.00000  Uiso   1.00
C343   C     0.31300   0.11191   0.12304   0.00000  Uiso   1.00
C344   C     0.31618   0.16484   0.15144   0.00000  Uiso   1.00
C345   C     0.30044   0.11289   0.17843   0.00000  Uiso   1.00
H346   H     0.28031   0.88875   0.08704   0.00000  Uiso   1.00
H347   H     0.20495   0.93752   0.04965   0.00000  Uiso   1.00
H348   H     0.36607   0.82009   0.06359   0.00000  Uiso   1.00
H349   H     0.26484   0.88029   0.14749   0.00000  Uiso   1.00
H350   H     0.12947   0.03623   0.00881   0.00000  Uiso   1.00
H351   H     0.46920   0.78862   0.03821   0.00000  Uiso   1.00
H352   H     0.25573   0.91556   0.21513   0.00000  Uiso   1.00
H353   H     0.34240   0.23275   0.09181   0.00000  Uiso   1.00
H354   H     0.27044   0.30041   0.05468   0.00000  Uiso   1.00
H355   H     0.43156   0.18298   0.06861   0.00000  Uiso   1.00
H356   H     0.33033   0.24318   0.15251   0.00000  Uiso   1.00
H357   H     0.18263   0.33076   0.01288   0.00000  Uiso   1.00
H358   H     0.52236   0.08315   0.04229   0.00000  Uiso   1.00
H359   H     0.30889   0.21009   0.21920   0.00000  Uiso   1.00
O360   O     0.10761   0.22178   0.98632   0.00000  Uiso   1.00
O361   O     0.55332   0.89693   0.02490   0.00000  Uiso   1.00
O362   O     0.27325   0.06347   0.25702   0.00000  Uiso   1.00
N363   N     0.15185   0.09627   0.01487   0.00000  Uiso   1.00
N364   N     0.46947   0.86477   0.04235   0.00000  Uiso   1.00
N365   N     0.26991   0.98344   0.20776   0.00000  Uiso   1.00
N366   N     0.18045   0.25475   0.01706   0.00000  Uiso   1.00
N367   N     0.49807   0.02326   0.04454   0.00000  Uiso   1.00
N368   N     0.29851   0.14192   0.20995   0.00000  Uiso   1.00
C369   C     0.78646   0.96679   0.09387   0.00000  Uiso   1.00
C370   C     0.76211   0.88644   0.07228   0.00000  Uiso   1.00
C371   C     0.71672   0.89849   0.05527   0.00000  Uiso   1.00
C372   C     0.70090   0.81593   0.03687   0.00000  Uiso   1.00
C373   C     0.65877   0.70507   0.00353   0.00000  Uiso   1.00
C374   C     0.84116   0.98324   0.08158   0.00000  Uiso   1.00
C375   C     0.86224   0.07669   0.07241   0.00000  Uiso   1.00
C376   C     0.91297   0.07561   0.06185   0.00000  Uiso   1.00
C377   C     0.99357   0.11505   0.04297   0.00000  Uiso   1.00
C378   C     0.79216   0.91552   0.12608   0.00000  Uiso   1.00
C379   C     0.77205   0.95204   0.15432   0.00000  Uiso   1.00
C380   C     0.78154   0.89397   0.18123   0.00000  Uiso   1.00
C381   C     0.78606   0.82827   0.23145   0.00000  Uiso   1.00
C382   C     0.83908   0.79873   0.09144   0.00000  Uiso   1.00
C383   C     0.79070   0.79516   0.07096   0.00000  Uiso   1.00
C384   C     0.77494   0.71255   0.05258   0.00000  Uiso   1.00
C385   C     0.72954   0.72448   0.03555   0.00000  Uiso   1.00
C386   C     0.86975   0.89196   0.08026   0.00000  Uiso   1.00
C387   C     0.92046   0.89075   0.06971   0.00000  Uiso   1.00
C388   C     0.94160   0.98416   0.06052   0.00000  Uiso   1.00
C389   C     0.82075   0.82424   0.12476   0.00000  Uiso   1.00
C390   C     0.83027   0.76610   0.15163   0.00000  Uiso   1.00
C391   C     0.81017   0.80252   0.17990   0.00000  Uiso   1.00
H392   H     0.76421   0.03786   0.09490   0.00000  Uiso   1.00
H393   H     0.69461   0.96915   0.05630   0.00000  Uiso   1.00
H394   H     0.84011   0.14731   0.07344   0.00000  Uiso   1.00
H395   H     0.74993   0.02269   0.15534   0.00000  Uiso   1.00
H396   H     0.63007   0.85273   0.01291   0.00000  Uiso   1.00
H397   H     0.93686   0.22840   0.04905   0.00000  Uiso   1.00
H398   H     0.74671   0.96561   0.22176   0.00000  Uiso   1.00
H399   H     0.86134   0.72766   0.09041   0.00000  Uiso   1.00
H400   H     0.79707   0.64192   0.05156   0.00000  Uiso   1.00
H401   H     0.94257   0.82009   0.06869   0.00000  Uiso   1.00
H402   H     0.85239   0.69547   0.15060   0.00000  Uiso   1.00
H403   H     0.71323   0.58714   0.00906   0.00000  Uiso   1.00
H404   H     0.02003   0.96282   0.04521   0.00000  Uiso   1.00
H405   H     0.82987   0.70002   0.21791   0.00000  Uiso   1.00
O406   O     0.62763   0.66915   0.98551   0.00000  Uiso   1.00
O407   O     0.03013   0.16202   0.03293   0.00000  Uiso   1.00
O408   O     0.78065   0.81724   0.25951   0.00000  Uiso   1.00
N409   N     0.65846   0.80198   0.01734   0.00000  Uiso   1.00
N410   N     0.94529   0.15322   0.05113   0.00000  Uiso   1.00
N411   N     0.76752   0.90754   0.21259   0.00000  Uiso   1.00
N412   N     0.70321   0.65907   0.01527   0.00000  Uiso   1.00
N413   N     0.99003   0.01031   0.04906   0.00000  Uiso   1.00
N414   N     0.81227   0.76463   0.21052   0.00000  Uiso   1.00
C415   C     0.20547   0.46756   0.08813   0.00000  Uiso   1.00
C416   C     0.23780   0.54177   0.06848   0.00000  Uiso   1.00
C417   C     0.28092   0.51587   0.05073   0.00000  Uiso   1.00
C418   C     0.30515   0.59489   0.03441   0.00000  Uiso   1.00
C419   C     0.35813   0.69470   0.00367   0.00000  Uiso   1.00
C420   C     0.15027   0.47797   0.07605   0.00000  Uiso   1.00
C421   C     0.11978   0.39842   0.06467   0.00000  Uiso   1.00
C422   C     0.07032   0.42374   0.05473   0.00000  Uiso   1.00
C423   C     0.98738   0.42448   0.03576   0.00000  Uiso   1.00
C424   C     0.20527   0.51067   0.12163   0.00000  Uiso   1.00
C425   C     0.22103   0.45863   0.14858   0.00000  Uiso   1.00
C426   C     0.21787   0.51147   0.17702   0.00000  Uiso   1.00
C427   C     0.22034   0.56300   0.22883   0.00000  Uiso   1.00
C428   C     0.17183   0.65394   0.09071   0.00000  Uiso   1.00
C429   C     0.21953   0.64300   0.06988   0.00000  Uiso   1.00
C430   C     0.24371   0.72208   0.05359   0.00000  Uiso   1.00
C431   C     0.28685   0.69630   0.03582   0.00000  Uiso   1.00
C432   C     0.13200   0.57919   0.07745   0.00000  Uiso   1.00
C433   C     0.08257   0.60463   0.06752   0.00000  Uiso   1.00
C434   C     0.05202   0.52515   0.05613   0.00000  Uiso   1.00
C435   C     0.18700   0.61191   0.12304   0.00000  Uiso   1.00
C436   C     0.18382   0.66484   0.15144   0.00000  Uiso   1.00
C437   C     0.19956   0.61289   0.17843   0.00000  Uiso   1.00
H438   H     0.21969   0.38875   0.08704   0.00000  Uiso   1.00
H439   H     0.29505   0.43752   0.04965   0.00000  Uiso   1.00
H440   H     0.13393   0.32009   0.06359   0.00000  Uiso   1.00
H441   H     0.23516   0.38029   0.14749   0.00000  Uiso   1.00
H442   H     0.37053   0.53623   0.00881   0.00000  Uiso   1.00
H443   H     0.03080   0.28862   0.03821   0.00000  Uiso   1.00
H444   H     0.24427   0.41556   0.21513   0.00000  Uiso   1.00
H445   H     0.15760   0.73275   0.09181   0.00000  Uiso   1.00
H446   H     0.22956   0.80041   0.05468   0.00000  Uiso   1.00
H447   H     0.06844   0.68298   0.06861   0.00000  Uiso   1.00
H448   H     0.16967   0.74318   0.15251   0.00000  Uiso   1.00
H449   H     0.31737   0.83076   0.01288   0.00000  Uiso   1.00
H450   H     0.97764   0.58315   0.04229   0.00000  Uiso   1.00
H451   H     0.19111   0.71009   0.21920   0.00000  Uiso   1.00
O452   O     0.39239   0.72178   0.98632   0.00000  Uiso   1.00
O453   O     0.94668   0.39693   0.02490   0.00000  Uiso   1.00
O454   O     0.22675   0.56347   0.25702   0.00000  Uiso   1.00
N455   N     0.34815   0.59627   0.01487   0.00000  Uiso   1.00
N456   N     0.03053   0.36477   0.04235   0.00000  Uiso   1.00
N457   N     0.23009   0.48344   0.20776   0.00000  Uiso   1.00
N458   N     0.31955   0.75475   0.01706   0.00000  Uiso   1.00
N459   N     0.00193   0.52326   0.04454   0.00000  Uiso   1.00
N460   N     0.20149   0.64192   0.20995   0.00000  Uiso   1.00
C461   C     0.71354   0.53321   0.59387   0.00000  Uiso   1.00
C462   C     0.73789   0.61356   0.57228   0.00000  Uiso   1.00
C463   C     0.78328   0.60151   0.55527   0.00000  Uiso   1.00
C464   C     0.79910   0.68407   0.53687   0.00000  Uiso   1.00
C465   C     0.84123   0.79493   0.50353   0.00000  Uiso   1.00
C466   C     0.65884   0.51676   0.58158   0.00000  Uiso   1.00
C467   C     0.63776   0.42331   0.57241   0.00000  Uiso   1.00
C468   C     0.58703   0.42439   0.56185   0.00000  Uiso   1.00
C469   C     0.50643   0.38495   0.54297   0.00000  Uiso   1.00
C470   C     0.70784   0.58448   0.62608   0.00000  Uiso   1.00
C471   C     0.72795   0.54796   0.65432   0.00000  Uiso   1.00
C472   C     0.71846   0.60603   0.68123   0.00000  Uiso   1.00
C473   C     0.71394   0.67173   0.73145   0.00000  Uiso   1.00
C474   C     0.66092   0.70127   0.59144   0.00000  Uiso   1.00
C475   C     0.70930   0.70484   0.57096   0.00000  Uiso   1.00
C476   C     0.72506   0.78745   0.55258   0.00000  Uiso   1.00
C477   C     0.77046   0.77552   0.53555   0.00000  Uiso   1.00
C478   C     0.63025   0.60804   0.58026   0.00000  Uiso   1.00
C479   C     0.57954   0.60925   0.56971   0.00000  Uiso   1.00
C480   C     0.55840   0.51584   0.56052   0.00000  Uiso   1.00
C481   C     0.67925   0.67576   0.62476   0.00000  Uiso   1.00
C482   C     0.66973   0.73390   0.65163   0.00000  Uiso   1.00
C483   C     0.68983   0.69748   0.67990   0.00000  Uiso   1.00
H484   H     0.73579   0.46214   0.59490   0.00000  Uiso   1.00
H485   H     0.80539   0.53085   0.55630   0.00000  Uiso   1.00
H486   H     0.65989   0.35269   0.57344   0.00000  Uiso   1.00
H487   H     0.75007   0.47731   0.65534   0.00000  Uiso   1.00
H488   H     0.86993   0.64727   0.51291   0.00000  Uiso   1.00
H489   H     0.56314   0.27160   0.54905   0.00000  Uiso   1.00
H490   H     0.75329   0.53439   0.72176   0.00000  Uiso   1.00
H491   H     0.63866   0.77234   0.59041   0.00000  Uiso   1.00
H492   H     0.70293   0.85808   0.55156   0.00000  Uiso   1.00
H493   H     0.55743   0.67991   0.56869   0.00000  Uiso   1.00
H494   H     0.64761   0.80453   0.65060   0.00000  Uiso   1.00
H495   H     0.78677   0.91286   0.50906   0.00000  Uiso   1.00
H496   H     0.47997   0.53718   0.54521   0.00000  Uiso   1.00
H497   H     0.67013   0.79998   0.71791   0.00000  Uiso   1.00
O498   O     0.87237   0.83085   0.48551   0.00000  Uiso   1.00
O499   O     0.46987   0.33798   0.53293   0.00000  Uiso   1.00
O500   O     0.71935   0.68276   0.75951   0.00000  Uiso   1.00
N501   N     0.84154   0.69802   0.51734   0.00000  Uiso   1.00
N502   N     0.55471   0.34678   0.55113   0.00000  Uiso   1.00
N503   N     0.73248   0.59246   0.71259   0.00000  Uiso   1.00
N504   N     0.79679   0.84093   0.51527   0.00000  Uiso   1.00
N505   N     0.50997   0.48969   0.54906   0.00000  Uiso   1.00
N506   N     0.68773   0.73537   0.71052   0.00000  Uiso   1.00
C507   C     0.29453   0.03244   0.58813   0.00000  Uiso   1.00
C508   C     0.26220   0.95823   0.56848   0.00000  Uiso   1.00
C509   C     0.21908   0.98413   0.55073   0.00000  Uiso   1.00
C510   C     0.19485   0.90511   0.53441   0.00000  Uiso   1.00
C511   C     0.14187   0.80530   0.50367   0.00000  Uiso   1.00
C512   C     0.34973   0.02203   0.57605   0.00000  Uiso   1.00
C513   C     0.38022   0.10158   0.56467   0.00000  Uiso   1.00
C514   C     0.42968   0.07626   0.55473   0.00000  Uiso   1.00
C515   C     0.51262   0.07552   0.53576   0.00000  Uiso   1.00
C516   C     0.29473   0.98933   0.62163   0.00000  Uiso   1.00
C517   C     0.27897   0.04137   0.64858   0.00000  Uiso   1.00
C518   C     0.28213   0.98853   0.67702   0.00000  Uiso   1.00
C519   C     0.27966   0.93700   0.72883   0.00000  Uiso   1.00
C520   C     0.32817   0.84606   0.59071   0.00000  Uiso   1.00
C521   C     0.28047   0.85700   0.56988   0.00000  Uiso   1.00
C522   C     0.25629   0.77792   0.55359   0.00000  Uiso   1.00
C523   C     0.21315   0.80370   0.53582   0.00000  Uiso   1.00
C524   C     0.36800   0.92081   0.57745   0.00000  Uiso   1.00
C525   C     0.41743   0.89537   0.56752   0.00000  Uiso   1.00
C526   C     0.44798   0.97485   0.55613   0.00000  Uiso   1.00
C527   C     0.31300   0.88809   0.62304   0.00000  Uiso   1.00
C528   C     0.31618   0.83516   0.65144   0.00000  Uiso   1.00
C529   C     0.30044   0.88711   0.67843   0.00000  Uiso   1.00
H530   H     0.28031   0.11125   0.58704   0.00000  Uiso   1.00
H531   H     0.20495   0.06248   0.54965   0.00000  Uiso   1.00
H532   H     0.36607   0.17991   0.56359   0.00000  Uiso   1.00
H533   H     0.26484   0.11971   0.64749   0.00000  Uiso   1.00
H534   H     0.12947   0.96377   0.50881   0.00000  Uiso   1.00
H535   H     0.46920   0.21138   0.53821   0.00000  Uiso   1.00
H536   H     0.25573   0.08444   0.71513   0.00000  Uiso   1.00
H537   H     0.34240   0.76725   0.59181   0.00000  Uiso   1.00
H538   H     0.27044   0.69959   0.55468   0.00000  Uiso   1.00
H539   H     0.43156   0.81702   0.56861   0.00000  Uiso   1.00
H540   H     0.33033   0.75682   0.65251   0.00000  Uiso   1.00
H541   H     0.18263   0.66924   0.51288   0.00000  Uiso   1.00
H542   H     0.52236   0.91685   0.54229   0.00000  Uiso   1.00
H543   H     0.30889   0.78991   0.71920   0.00000  Uiso   1.00
O544   O     0.10761   0.77822   0.48632   0.00000  Uiso   1.00
O545   O     0.55332   0.10307   0.52490   0.00000  Uiso   1.00
O546   O     0.27325   0.93653   0.75702   0.00000  Uiso   1.00
N547   N     0.15185   0.90373   0.51487   0.00000  Uiso   1.00
N548   N     0.46947   0.13523   0.54235   0.00000  Uiso   1.00
N549   N     0.26991   0.01656   0.70776   0.00000  Uiso   1.00
N550   N     0.18045   0.74525   0.51706   0.00000  Uiso   1.00
N551   N     0.49807   0.97674   0.54454   0.00000  Uiso   1.00
N552   N     0.29851   0.85808   0.70995   0.00000  Uiso   1.00
C553   C     0.21354   0.96679   0.40613   0.00000  Uiso   1.00
C554   C     0.23789   0.88644   0.42772   0.00000  Uiso   1.00
C555   C     0.28328   0.89849   0.44473   0.00000  Uiso   1.00
C556   C     0.29910   0.81593   0.46313   0.00000  Uiso   1.00
C557   C     0.34123   0.70507   0.49647   0.00000  Uiso   1.00
C558   C     0.15884   0.98324   0.41842   0.00000  Uiso   1.00
C559   C     0.13776   0.07669   0.42759   0.00000  Uiso   1.00
C560   C     0.08703   0.07561   0.43815   0.00000  Uiso   1.00
C561   C     0.00643   0.11505   0.45703   0.00000  Uiso   1.00
C562   C     0.20784   0.91552   0.37392   0.00000  Uiso   1.00
C563   C     0.22795   0.95204   0.34568   0.00000  Uiso   1.00
C564   C     0.21846   0.89397   0.31877   0.00000  Uiso   1.00
C565   C     0.21394   0.82827   0.26855   0.00000  Uiso   1.00
C566   C     0.16092   0.79873   0.40856   0.00000  Uiso   1.00
C567   C     0.20930   0.79516   0.42904   0.00000  Uiso   1.00
C568   C     0.22506   0.71255   0.44742   0.00000  Uiso   1.00
C569   C     0.27046   0.72448   0.46445   0.00000  Uiso   1.00
C570   C     0.13025   0.89196   0.41974   0.00000  Uiso   1.00
C571   C     0.07954   0.89075   0.43029   0.00000  Uiso   1.00
C572   C     0.05840   0.98416   0.43948   0.00000  Uiso   1.00
C573   C     0.17925   0.82424   0.37524   0.00000  Uiso   1.00
C574   C     0.16973   0.76610   0.34837   0.00000  Uiso   1.00
C575   C     0.18983   0.80252   0.32010   0.00000  Uiso   1.00
H576   H     0.23579   0.03786   0.40510   0.00000  Uiso   1.00
H577   H     0.30539   0.96915   0.44370   0.00000  Uiso   1.00
H578   H     0.15989   0.14731   0.42656   0.00000  Uiso   1.00
H579   H     0.25007   0.02269   0.34466   0.00000  Uiso   1.00
H580   H     0.36993   0.85273   0.48709   0.00000  Uiso   1.00
H581   H     0.06314   0.22840   0.45095   0.00000  Uiso   1.00
H582   H     0.25329   0.96561   0.27824   0.00000  Uiso   1.00
H583   H     0.13866   0.72766   0.40959   0.00000  Uiso   1.00
H584   H     0.20293   0.64192   0.44844   0.00000  Uiso   1.00
H585   H     0.05743   0.82009   0.43131   0.00000  Uiso   1.00
H586   H     0.14761   0.69547   0.34940   0.00000  Uiso   1.00
H587   H     0.28677   0.58714   0.49094   0.00000  Uiso   1.00
H588   H     0.97997   0.96282   0.45479   0.00000  Uiso   1.00
H589   H     0.17013   0.70002   0.28209   0.00000  Uiso   1.00
O590   O     0.37237   0.66915   0.51449   0.00000  Uiso   1.00
O591   O     0.96987   0.16202   0.46707   0.00000  Uiso   1.00
O592   O     0.21935   0.81724   0.24049   0.00000  Uiso   1.00
N593   N     0.34154   0.80198   0.48266   0.00000  Uiso   1.00
N594   N     0.05471   0.15322   0.44887   0.00000  Uiso   1.00
N595   N     0.23248   0.90754   0.28741   0.00000  Uiso   1.00
N596   N     0.29679   0.65907   0.48473   0.00000  Uiso   1.00
N597   N     0.00997   0.01031   0.45094   0.00000  Uiso   1.00
N598   N     0.18773   0.76463   0.28948   0.00000  Uiso   1.00
C599   C     0.79453   0.46756   0.41187   0.00000  Uiso   1.00
C600   C     0.76220   0.54177   0.43152   0.00000  Uiso   1.00
C601   C     0.71908   0.51587   0.44927   0.00000  Uiso   1.00
C602   C     0.69485   0.59489   0.46559   0.00000  Uiso   1.00
C603   C     0.64187   0.69470   0.49633   0.00000  Uiso   1.00
C604   C     0.84973   0.47797   0.42395   0.00000  Uiso   1.00
C605   C     0.88022   0.39842   0.43533   0.00000  Uiso   1.00
C606   C     0.92968   0.42374   0.44527   0.00000  Uiso   1.00
C607   C     0.01262   0.42448   0.46424   0.00000  Uiso   1.00
C608   C     0.79473   0.51067   0.37837   0.00000  Uiso   1.00
C609   C     0.77897   0.45863   0.35142   0.00000  Uiso   1.00
C610   C     0.78213   0.51147   0.32298   0.00000  Uiso   1.00
C611   C     0.77966   0.56300   0.27117   0.00000  Uiso   1.00
C612   C     0.82817   0.65394   0.40929   0.00000  Uiso   1.00
C613   C     0.78047   0.64300   0.43012   0.00000  Uiso   1.00
C614   C     0.75629   0.72208   0.44641   0.00000  Uiso   1.00
C615   C     0.71315   0.69630   0.46418   0.00000  Uiso   1.00
C616   C     0.86800   0.57919   0.42255   0.00000  Uiso   1.00
C617   C     0.91743   0.60463   0.43248   0.00000  Uiso   1.00
C618   C     0.94798   0.52515   0.44387   0.00000  Uiso   1.00
C619   C     0.81300   0.61191   0.37696   0.00000  Uiso   1.00
C620   C     0.81618   0.66484   0.34856   0.00000  Uiso   1.00
C621   C     0.80044   0.61289   0.32157   0.00000  Uiso   1.00
H622   H     0.78031   0.38875   0.41296   0.00000  Uiso   1.00
H623   H     0.70495   0.43752   0.45035   0.00000  Uiso   1.00
H624   H     0.86607   0.32009   0.43641   0.00000  Uiso   1.00
H625   H     0.76484   0.38029   0.35251   0.00000  Uiso   1.00
H626   H     0.62947   0.53623   0.49119   0.00000  Uiso   1.00
H627   H     0.96920   0.28862   0.46179   0.00000  Uiso   1.00
H628   H     0.75573   0.41556   0.28487   0.00000  Uiso   1.00
H629   H     0.84240   0.73275   0.40819   0.00000  Uiso   1.00
H630   H     0.77044   0.80041   0.44532   0.00000  Uiso   1.00
H631   H     0.93156   0.68298   0.43139   0.00000  Uiso   1.00
H632   H     0.83033   0.74318   0.34749   0.00000  Uiso   1.00
H633   H     0.68263   0.83076   0.48712   0.00000  Uiso   1.00
H634   H     0.02236   0.58315   0.45771   0.00000  Uiso   1.00
H635   H     0.80889   0.71009   0.28080   0.00000  Uiso   1.00
O636   O     0.60761   0.72178   0.51368   0.00000  Uiso   1.00
O637   O     0.05332   0.39693   0.47510   0.00000  Uiso   1.00
O638   O     0.77325   0.56347   0.24298   0.00000  Uiso   1.00
N639   N     0.65185   0.59627   0.48513   0.00000  Uiso   1.00
N640   N     0.96947   0.36477   0.45765   0.00000  Uiso   1.00
N641   N     0.76991   0.48344   0.29224   0.00000  Uiso   1.00
N642   N     0.68045   0.75475   0.48294   0.00000  Uiso   1.00
N643   N     0.99807   0.52326   0.45546   0.00000  Uiso   1.00
N644   N     0.79851   0.64192   0.29005   0.00000  Uiso   1.00
C645   C     0.28646   0.53321   0.90613   0.00000  Uiso   1.00
C646   C     0.26211   0.61356   0.92772   0.00000  Uiso   1.00
C647   C     0.21672   0.60151   0.94473   0.00000  Uiso   1.00
C648   C     0.20090   0.68407   0.96313   0.00000  Uiso   1.00
C649   C     0.15877   0.79493   0.99647   0.00000  Uiso   1.00
C650   C     0.34116   0.51676   0.91842   0.00000  Uiso   1.00
C651   C     0.36224   0.42331   0.92759   0.00000  Uiso   1.00
C652   C     0.41297   0.42439   0.93815   0.00000  Uiso   1.00
C653   C     0.49357   0.38495   0.95703   0.00000  Uiso   1.00
C654   C     0.29216   0.58448   0.87392   0.00000  Uiso   1.00
C655   C     0.27205   0.54796   0.84568   0.00000  Uiso   1.00
C656   C     0.28154   0.60603   0.81877   0.00000  Uiso   1.00
C657   C     0.28606   0.67173   0.76855   0.00000  Uiso   1.00
C658   C     0.33908   0.70127   0.90856   0.00000  Uiso   1.00
C659   C     0.29070   0.70484   0.92904   0.00000  Uiso   1.00
C660   C     0.27494   0.78745   0.94742   0.00000  Uiso   1.00
C661   C     0.22954   0.77552   0.96445   0.00000  Uiso   1.00
C662   C     0.36975   0.60804   0.91974   0.00000  Uiso   1.00
C663   C     0.42046   0.60925   0.93029   0.00000  Uiso   1.00
C664   C     0.44160   0.51584   0.93948   0.00000  Uiso   1.00
C665   C     0.32075   0.67576   0.87524   0.00000  Uiso   1.00
C666   C     0.33027   0.73390   0.84837   0.00000  Uiso   1.00
C667   C     0.31017   0.69748   0.82010   0.00000  Uiso   1.00
H668   H     0.26421   0.46214   0.90510   0.00000  Uiso   1.00
H669   H     0.19461   0.53085   0.94370   0.00000  Uiso   1.00
H670   H     0.34011   0.35269   0.92656   0.00000  Uiso   1.00
H671   H     0.24993   0.47731   0.84466   0.00000  Uiso   1.00
H672   H     0.13007   0.64727   0.98709   0.00000  Uiso   1.00
H673   H     0.43686   0.27160   0.95095   0.00000  Uiso   1.00
H674   H     0.24671   0.53439   0.77824   0.00000  Uiso   1.00
H675   H     0.36134   0.77234   0.90959   0.00000  Uiso   1.00
H676   H     0.29707   0.85808   0.94844   0.00000  Uiso   1.00
H677   H     0.44257   0.67991   0.93131   0.00000  Uiso   1.00
H678   H     0.35239   0.80453   0.84940   0.00000  Uiso   1.00
H679   H     0.21323   0.91286   0.99094   0.00000  Uiso   1.00
H680   H     0.52003   0.53718   0.95479   0.00000  Uiso   1.00
H681   H     0.32987   0.79998   0.78209   0.00000  Uiso   1.00
O682   O     0.12763   0.83085   0.01449   0.00000  Uiso   1.00
O683   O     0.53013   0.33798   0.96707   0.00000  Uiso   1.00
O684   O     0.28065   0.68276   0.74049   0.00000  Uiso   1.00
N685   N     0.15846   0.69802   0.98266   0.00000  Uiso   1.00
N686   N     0.44529   0.34678   0.94887   0.00000  Uiso   1.00
N687   N     0.26752   0.59246   0.78741   0.00000  Uiso   1.00
N688   N     0.20321   0.84093   0.98473   0.00000  Uiso   1.00
N689   N     0.49003   0.48969   0.95094   0.00000  Uiso   1.00
N690   N     0.31227   0.73537   0.78948   0.00000  Uiso   1.00
C691   C     0.70547   0.03244   0.91187   0.00000  Uiso   1.00
C692   C     0.73780   0.95823   0.93152   0.00000  Uiso   1.00
C693   C     0.78092   0.98413   0.94927   0.00000  Uiso   1.00
C694   C     0.80515   0.90511   0.96559   0.00000  Uiso   1.00
C695   C     0.85813   0.80530   0.99633   0.00000  Uiso   1.00
C696   C     0.65027   0.02203   0.92395   0.00000  Uiso   1.00
C697   C     0.61978   0.10158   0.93533   0.00000  Uiso   1.00
C698   C     0.57032   0.07626   0.94527   0.00000  Uiso   1.00
C699   C     0.48738   0.07552   0.96424   0.00000  Uiso   1.00
C700   C     0.70527   0.98933   0.87837   0.00000  Uiso   1.00
C701   C     0.72103   0.04137   0.85142   0.00000  Uiso   1.00
C702   C     0.71787   0.98853   0.82298   0.00000  Uiso   1.00
C703   C     0.72034   0.93700   0.77117   0.00000  Uiso   1.00
C704   C     0.67183   0.84606   0.90929   0.00000  Uiso   1.00
C705   C     0.71953   0.85700   0.93012   0.00000  Uiso   1.00
C706   C     0.74371   0.77792   0.94641   0.00000  Uiso   1.00
C707   C     0.78685   0.80370   0.96418   0.00000  Uiso   1.00
C708   C     0.63200   0.92081   0.92255   0.00000  Uiso   1.00
C709   C     0.58257   0.89537   0.93248   0.00000  Uiso   1.00
C710   C     0.55202   0.97485   0.94387   0.00000  Uiso   1.00
C711   C     0.68700   0.88809   0.87696   0.00000  Uiso   1.00
C712   C     0.68382   0.83516   0.84856   0.00000  Uiso   1.00
C713   C     0.69956   0.88711   0.82157   0.00000  Uiso   1.00
H714   H     0.71969   0.11125   0.91296   0.00000  Uiso   1.00
H715   H     0.79505   0.06248   0.95035   0.00000  Uiso   1.00
H716   H     0.63393   0.17991   0.93641   0.00000  Uiso   1.00
H717   H     0.73516   0.11971   0.85251   0.00000  Uiso   1.00
H718   H     0.87053   0.96377   0.99119   0.00000  Uiso   1.00
H719   H     0.53080   0.21138   0.96179   0.00000  Uiso   1.00
H720   H     0.74427   0.08444   0.78487   0.00000  Uiso   1.00
H721   H     0.65760   0.76725   0.90819   0.00000  Uiso   1.00
H722   H     0.72956   0.69959   0.94532   0.00000  Uiso   1.00
H723   H     0.56844   0.81702   0.93139   0.00000  Uiso   1.00
H724   H     0.66967   0.75682   0.84749   0.00000  Uiso   1.00
H725   H     0.81737   0.66924   0.98712   0.00000  Uiso   1.00
H726   H     0.47764   0.91685   0.95771   0.00000  Uiso   1.00
H727   H     0.69111   0.78991   0.78080   0.00000  Uiso   1.00
O728   O     0.89239   0.77822   0.01368   0.00000  Uiso   1.00
O729   O     0.44668   0.10307   0.97510   0.00000  Uiso   1.00
O730   O     0.72675   0.93653   0.74298   0.00000  Uiso   1.00
N731   N     0.84815   0.90373   0.98513   0.00000  Uiso   1.00
N732   N     0.53053   0.13523   0.95765   0.00000  Uiso   1.00
N733   N     0.73009   0.01656   0.79224   0.00000  Uiso   1.00
N734   N     0.81955   0.74525   0.98294   0.00000  Uiso   1.00
N735   N     0.50193   0.97674   0.95546   0.00000  Uiso   1.00
N736   N     0.70149   0.85808   0.79005   0.00000  Uiso   1.00
