data_job_06853
_audit_creation_date              2018-12-19
_audit_creation_method            'Materials Studio'
_symmetry_space_group_name_H-M    'P1'
_symmetry_Int_Tables_number       1
_symmetry_cell_setting            triclinic
loop_
_symmetry_equiv_pos_as_xyz
  x,y,z
_cell_length_a                    37.7960
_cell_length_b                    28.1080
_cell_length_c                    21.7598
_cell_angle_alpha                 90.0000
_cell_angle_beta                  61.8877
_cell_angle_gamma                 90.0000
loop_
_atom_site_label
_atom_site_type_symbol
_atom_site_fract_x
_atom_site_fract_y
_atom_site_fract_z
_atom_site_U_iso_or_equiv
_atom_site_adp_type
_atom_site_occupancy
C1     C     0.89185   0.89917   0.49042   0.00000  Uiso   1.00
C2     C     0.40967   0.35099   0.49291   0.00000  Uiso   1.00
C3     C     0.43427   0.32343   0.43562   0.00000  Uiso   1.00
C4     C     0.44747   0.28043   0.44884   0.00000  Uiso   1.00
C5     C     0.47680   0.20786   0.44235   0.00000  Uiso   1.00
C6     C     0.34658   0.39408   0.53501   0.00000  Uiso   1.00
C7     C     0.31812   0.40277   0.51313   0.00000  Uiso   1.00
C8     C     0.27820   0.39605   0.56180   0.00000  Uiso   1.00
C9     C     0.20957   0.39043   0.62068   0.00000  Uiso   1.00
C10    C     0.90539   0.93370   0.52925   0.00000  Uiso   1.00
C11    C     0.92638   0.97570   0.50254   0.00000  Uiso   1.00
C12    C     0.93597   0.00234   0.54637   0.00000  Uiso   1.00
C13    C     0.95867   0.05822   0.59631   0.00000  Uiso   1.00
C14    C     0.37156   0.37182   0.61577   0.00000  Uiso   1.00
C15    C     0.39865   0.33613   0.56099   0.00000  Uiso   1.00
C16    C     0.41182   0.29316   0.57431   0.00000  Uiso   1.00
C17    C     0.43643   0.26555   0.51705   0.00000  Uiso   1.00
C18    C     0.33555   0.37923   0.60309   0.00000  Uiso   1.00
C19    C     0.29567   0.37250   0.65181   0.00000  Uiso   1.00
C20    C     0.26716   0.38117   0.63000   0.00000  Uiso   1.00
C21    C     0.89437   0.91884   0.59734   0.00000  Uiso   1.00
C22    C     0.90393   0.94543   0.64122   0.00000  Uiso   1.00
C23    C     0.92493   0.98746   0.61457   0.00000  Uiso   1.00
H24    H     0.90043   0.91074   0.43742   0.00000  Uiso   1.00
H25    H     0.94279   0.83494   0.38294   0.00000  Uiso   1.00
H26    H     0.32665   0.41427   0.46044   0.00000  Uiso   1.00
H27    H     0.93490   0.98718   0.44985   0.00000  Uiso   1.00
H28    H     0.48488   0.24434   0.35257   0.00000  Uiso   1.00
H29    H     0.24000   0.41162   0.51598   0.00000  Uiso   1.00
H30    H     0.96826   0.06538   0.49365   0.00000  Uiso   1.00
H31    H     0.36298   0.36025   0.66878   0.00000  Uiso   1.00
H32    H     0.40329   0.28168   0.62700   0.00000  Uiso   1.00
H33    H     0.28715   0.36101   0.70449   0.00000  Uiso   1.00
H34    H     0.89540   0.93392   0.69390   0.00000  Uiso   1.00
H35    H     0.45281   0.20111   0.55066   0.00000  Uiso   1.00
H36    H     0.20794   0.36840   0.71406   0.00000  Uiso   1.00
H37    H     0.93620   0.02215   0.69173   0.00000  Uiso   1.00
O38    O     0.49602   0.17193   0.41996   0.00000  Uiso   1.00
O39    O     0.17476   0.39142   0.63434   0.00000  Uiso   1.00
O40    O     0.97424   0.09314   0.60504   0.00000  Uiso   1.00
N41    N     0.47181   0.24495   0.40492   0.00000  Uiso   1.00
N42    N     0.24286   0.40135   0.55770   0.00000  Uiso   1.00
N43    N     0.95626   0.04510   0.53683   0.00000  Uiso   1.00
N44    N     0.45455   0.22169   0.51151   0.00000  Uiso   1.00
N45    N     0.22561   0.37809   0.66429   0.00000  Uiso   1.00
N46    N     0.93901   0.02184   0.64341   0.00000  Uiso   1.00
C47    C     0.13482   0.74082   0.81079   0.00000  Uiso   1.00
C48    C     0.17009   0.76441   0.74932   0.00000  Uiso   1.00
C49    C     0.17600   0.81304   0.73815   0.00000  Uiso   1.00
C50    C     0.21014   0.82750   0.67880   0.00000  Uiso   1.00
C51    C     0.26075   0.86916   0.59040   0.00000  Uiso   1.00
C52    C     0.11567   0.70765   0.77941   0.00000  Uiso   1.00
C53    C     0.07583   0.70855   0.79354   0.00000  Uiso   1.00
C54    C     0.56416   0.17522   0.75952   0.00000  Uiso   1.00
C55    C     0.53028   0.12873   0.71786   0.00000  Uiso   1.00
C56    C     0.15304   0.70874   0.84503   0.00000  Uiso   1.00
C57    C     0.14461   0.71055   0.91434   0.00000  Uiso   1.00
C58    C     0.16439   0.67814   0.93557   0.00000  Uiso   1.00
C59    C     0.18853   0.63334   0.99580   0.00000  Uiso   1.00
C60    C     0.18492   0.68004   0.72525   0.00000  Uiso   1.00
C61    C     0.19730   0.73140   0.70286   0.00000  Uiso   1.00
C62    C     0.23144   0.74579   0.64351   0.00000  Uiso   1.00
C63    C     0.23740   0.79443   0.63225   0.00000  Uiso   1.00
C64    C     0.14288   0.67464   0.73294   0.00000  Uiso   1.00
C65    C     0.63127   0.14130   0.69890   0.00000  Uiso   1.00
C66    C     0.59142   0.14215   0.71297   0.00000  Uiso   1.00
C67    C     0.18025   0.67573   0.79856   0.00000  Uiso   1.00
C68    C     0.20005   0.64331   0.81969   0.00000  Uiso   1.00
C69    C     0.19166   0.64506   0.88902   0.00000  Uiso   1.00
H70    H     0.11363   0.76652   0.84697   0.00000  Uiso   1.00
H71    H     0.15493   0.83857   0.77412   0.00000  Uiso   1.00
H72    H     0.05478   0.73409   0.82950   0.00000  Uiso   1.00
H73    H     0.12355   0.73610   0.95028   0.00000  Uiso   1.00
H74    H     0.21272   0.90390   0.67285   0.00000  Uiso   1.00
H75    H     0.50153   0.18360   0.78965   0.00000  Uiso   1.00
H76    H     0.14655   0.68782   0.04433   0.00000  Uiso   1.00
H77    H     0.20611   0.65434   0.68908   0.00000  Uiso   1.00
H78    H     0.25249   0.72024   0.60756   0.00000  Uiso   1.00
H79    H     0.65233   0.11576   0.66295   0.00000  Uiso   1.00
H80    H     0.22111   0.61776   0.78372   0.00000  Uiso   1.00
H81    H     0.29190   0.80786   0.53766   0.00000  Uiso   1.00
H82    H     0.58071   0.08755   0.65447   0.00000  Uiso   1.00
H83    H     0.22573   0.59177   0.90914   0.00000  Uiso   1.00
O84    O     0.28114   0.90125   0.55447   0.00000  Uiso   1.00
O85    O     0.50407   0.11222   0.70772   0.00000  Uiso   1.00
O86    O     0.19434   0.61776   0.04185   0.00000  Uiso   1.00
N87    N     0.22499   0.87225   0.65223   0.00000  Uiso   1.00
N88    N     0.52754   0.16628   0.76142   0.00000  Uiso   1.00
N89    N     0.16312   0.67022   0.99953   0.00000  Uiso   1.00
N90    N     0.26760   0.82057   0.57949   0.00000  Uiso   1.00
N91    N     0.57015   0.11460   0.68868   0.00000  Uiso   1.00
N92    N     0.20573   0.61854   0.92679   0.00000  Uiso   1.00
C93    C     0.15922   0.18609   0.86881   0.00000  Uiso   1.00
C94    C     0.11838   0.19577   0.93124   0.00000  Uiso   1.00
C95    C     0.09050   0.16153   0.97097   0.00000  Uiso   1.00
C96    C     0.05491   0.17762   0.02591   0.00000  Uiso   1.00
C97    C     0.99262   0.18525   0.12060   0.00000  Uiso   1.00
C98    C     0.15991   0.21407   0.80821   0.00000  Uiso   1.00
C99    C     0.16695   0.19522   0.74449   0.00000  Uiso   1.00
C100   C     0.16633   0.22673   0.69586   0.00000  Uiso   1.00
C101   C     0.16855   0.26279   0.59953   0.00000  Uiso   1.00
C102   C     0.19002   0.20974   0.88542   0.00000  Uiso   1.00
C103   C     0.22238   0.18726   0.88662   0.00000  Uiso   1.00
C104   C     0.24712   0.21512   0.90299   0.00000  Uiso   1.00
C105   C     0.29608   0.24445   0.92655   0.00000  Uiso   1.00
C106   C     0.14561   0.27556   0.89573   0.00000  Uiso   1.00
C107   C     0.11099   0.24436   0.94586   0.00000  Uiso   1.00
C108   C     0.07544   0.26051   0.00076   0.00000  Uiso   1.00
C109   C     0.04750   0.22630   0.04056   0.00000  Uiso   1.00
C110   C     0.15252   0.26267   0.82283   0.00000  Uiso   1.00
C111   C     0.15189   0.29421   0.77428   0.00000  Uiso   1.00
C112   C     0.15892   0.27541   0.71051   0.00000  Uiso   1.00
C113   C     0.18263   0.25834   0.90005   0.00000  Uiso   1.00
C114   C     0.20732   0.28624   0.91641   0.00000  Uiso   1.00
C115   C     0.23971   0.26380   0.91764   0.00000  Uiso   1.00
H116   H     0.16497   0.14826   0.85742   0.00000  Uiso   1.00
H117   H     0.09623   0.12392   0.95963   0.00000  Uiso   1.00
H118   H     0.17268   0.15762   0.73319   0.00000  Uiso   1.00
H119   H     0.22809   0.14965   0.87530   0.00000  Uiso   1.00
H120   H     0.01675   0.11838   0.07938   0.00000  Uiso   1.00
H121   H     0.17795   0.18942   0.60191   0.00000  Uiso   1.00
H122   H     0.29482   0.17262   0.90157   0.00000  Uiso   1.00
H123   H     0.13985   0.31339   0.90712   0.00000  Uiso   1.00
H124   H     0.56973   0.79812   0.01206   0.00000  Uiso   1.00
H125   H     0.14617   0.33181   0.78562   0.00000  Uiso   1.00
H126   H     0.20159   0.32384   0.92773   0.00000  Uiso   1.00
H127   H     0.49523   0.75976   0.12194   0.00000  Uiso   1.00
H128   H     0.15644   0.33080   0.64446   0.00000  Uiso   1.00
H129   H     0.27331   0.31400   0.94413   0.00000  Uiso   1.00
O130   O     0.96031   0.17604   0.16878   0.00000  Uiso   1.00
O131   O     0.17181   0.26925   0.54235   0.00000  Uiso   1.00
O132   O     0.32513   0.24721   0.93551   0.00000  Uiso   1.00
N133   N     0.02131   0.15375   0.07500   0.00000  Uiso   1.00
N134   N     0.17202   0.22017   0.62860   0.00000  Uiso   1.00
N135   N     0.28129   0.20447   0.90874   0.00000  Uiso   1.00
N136   N     0.00974   0.22982   0.09790   0.00000  Uiso   1.00
N137   N     0.16045   0.29624   0.65150   0.00000  Uiso   1.00
N138   N     0.26971   0.28054   0.93164   0.00000  Uiso   1.00
C139   C     0.63338   0.12865   0.42227   0.00000  Uiso   1.00
C140   C     0.17338   0.60243   0.38666   0.00000  Uiso   1.00
C141   C     0.67971   0.05528   0.39770   0.00000  Uiso   1.00
C142   C     0.71850   0.03791   0.36002   0.00000  Uiso   1.00
C143   C     0.27585   0.49281   0.31184   0.00000  Uiso   1.00
C144   C     0.62583   0.14771   0.36386   0.00000  Uiso   1.00
C145   C     0.59218   0.13862   0.35575   0.00000  Uiso   1.00
C146   C     0.59094   0.15938   0.29888   0.00000  Uiso   1.00
C147   C     0.57446   0.18460   0.21535   0.00000  Uiso   1.00
C148   C     0.14043   0.67214   0.45698   0.00000  Uiso   1.00
C149   C     0.11904   0.68361   0.52716   0.00000  Uiso   1.00
C150   C     0.13009   0.72493   0.54870   0.00000  Uiso   1.00
C151   C     0.13626   0.78809   0.60975   0.00000  Uiso   1.00
C152   C     0.19103   0.68166   0.33572   0.00000  Uiso   1.00
C153   C     0.20469   0.63123   0.33964   0.00000  Uiso   1.00
C154   C     0.24349   0.61393   0.30194   0.00000  Uiso   1.00
C155   C     0.24987   0.56676   0.31293   0.00000  Uiso   1.00
C156   C     0.15714   0.67650   0.31685   0.00000  Uiso   1.00
C157   C     0.15596   0.69728   0.25999   0.00000  Uiso   1.00
C158   C     0.12231   0.68822   0.25179   0.00000  Uiso   1.00
C159   C     0.17174   0.70093   0.40997   0.00000  Uiso   1.00
C160   C     0.18282   0.74226   0.43140   0.00000  Uiso   1.00
C161   C     0.16145   0.75378   0.50160   0.00000  Uiso   1.00
H162   H     0.60900   0.10624   0.45887   0.00000  Uiso   1.00
H163   H     0.65547   0.03300   0.43408   0.00000  Uiso   1.00
H164   H     0.56795   0.11634   0.39214   0.00000  Uiso   1.00
H165   H     0.59481   0.16132   0.56353   0.00000  Uiso   1.00
H166   H     0.72079   0.96451   0.38585   0.00000  Uiso   1.00
H167   H     0.53625   0.14025   0.29742   0.00000  Uiso   1.00
H168   H     0.09288   0.73508   0.65883   0.00000  Uiso   1.00
H169   H     0.21541   0.70408   0.29912   0.00000  Uiso   1.00
H170   H     0.26772   0.63622   0.26557   0.00000  Uiso   1.00
H171   H     0.18020   0.71956   0.22362   0.00000  Uiso   1.00
H172   H     0.20705   0.76453   0.39501   0.00000  Uiso   1.00
H173   H     0.31189   0.54828   0.24907   0.00000  Uiso   1.00
H174   H     0.12735   0.72402   0.16065   0.00000  Uiso   1.00
H175   H     0.18399   0.81885   0.52205   0.00000  Uiso   1.00
O176   O     0.29883   0.45998   0.29825   0.00000  Uiso   1.00
O177   O     0.55671   0.19055   0.18225   0.00000  Uiso   1.00
O178   O     0.13102   0.81497   0.65641   0.00000  Uiso   1.00
N179   N     0.73505   0.99354   0.35827   0.00000  Uiso   1.00
N180   N     0.56252   0.15784   0.27559   0.00000  Uiso   1.00
N181   N     0.11546   0.74651   0.61348   0.00000  Uiso   1.00
N182   N     0.28408   0.53862   0.28467   0.00000  Uiso   1.00
N183   N     0.11154   0.70292   0.20200   0.00000  Uiso   1.00
N184   N     0.16448   0.79158   0.53988   0.00000  Uiso   1.00
C185   C     0.17135   0.12803   0.51462   0.00000  Uiso   1.00
C186   C     0.13964   0.10128   0.57741   0.00000  Uiso   1.00
C187   C     0.11386   0.12123   0.64145   0.00000  Uiso   1.00
C188   C     0.08699   0.09076   0.69220   0.00000  Uiso   1.00
C189   C     0.03789   0.05663   0.79165   0.00000  Uiso   1.00
C190   C     0.16206   0.11825   0.45478   0.00000  Uiso   1.00
C191   C     0.15514   0.15248   0.41570   0.00000  Uiso   1.00
C192   C     0.14714   0.13629   0.36322   0.00000  Uiso   1.00
C193   C     0.13288   0.12852   0.27224   0.00000  Uiso   1.00
C194   C     0.21107   0.10315   0.49539   0.00000  Uiso   1.00
C195   C     0.24536   0.12468   0.49045   0.00000  Uiso   1.00
C196   C     0.27863   0.09578   0.47214   0.00000  Uiso   1.00
C197   C     0.34046   0.06457   0.44423   0.00000  Uiso   1.00
C198   C     0.16947   0.03844   0.49087   0.00000  Uiso   1.00
C199   C     0.13862   0.05262   0.56451   0.00000  Uiso   1.00
C200   C     0.11178   0.02211   0.61518   0.00000  Uiso   1.00
C201   C     0.08597   0.04201   0.67928   0.00000  Uiso   1.00
C202   C     0.16104   0.06960   0.44188   0.00000  Uiso   1.00
C203   C     0.15306   0.05336   0.38943   0.00000  Uiso   1.00
C204   C     0.14612   0.08754   0.35029   0.00000  Uiso   1.00
C205   C     0.21005   0.05449   0.48250   0.00000  Uiso   1.00
C206   C     0.24327   0.02556   0.46418   0.00000  Uiso   1.00
C207   C     0.27761   0.04704   0.45922   0.00000  Uiso   1.00
H208   H     0.17215   0.16591   0.52466   0.00000  Uiso   1.00
H209   H     0.11466   0.15889   0.65141   0.00000  Uiso   1.00
H210   H     0.15593   0.19013   0.42569   0.00000  Uiso   1.00
H211   H     0.24614   0.16234   0.50043   0.00000  Uiso   1.00
H212   H     0.05046   0.12965   0.78624   0.00000  Uiso   1.00
H213   H     0.13750   0.19552   0.31029   0.00000  Uiso   1.00
H214   H     0.32772   0.13691   0.46789   0.00000  Uiso   1.00
H215   H     0.16867   0.00055   0.48083   0.00000  Uiso   1.00
H216   H     0.11099   0.98446   0.60518   0.00000  Uiso   1.00
H217   H     0.15227   0.01570   0.37947   0.00000  Uiso   1.00
H218   H     0.24247   0.98791   0.45421   0.00000  Uiso   1.00
H219   H     0.04748   0.98807   0.74872   0.00000  Uiso   1.00
H220   H     0.13453   0.05394   0.27277   0.00000  Uiso   1.00
H221   H     0.32474   0.99534   0.43037   0.00000  Uiso   1.00
O222   O     0.01108   0.05125   0.85007   0.00000  Uiso   1.00
O223   O     0.12529   0.13768   0.22563   0.00000  Uiso   1.00
O224   O     0.37485   0.06079   0.43240   0.00000  Uiso   1.00
N225   N     0.05768   0.09853   0.76035   0.00000  Uiso   1.00
N226   N     0.13906   0.16012   0.31537   0.00000  Uiso   1.00
N227   N     0.31690   0.10533   0.46270   0.00000  Uiso   1.00
N228   N     0.05608   0.02235   0.74016   0.00000  Uiso   1.00
N229   N     0.13746   0.08394   0.29519   0.00000  Uiso   1.00
N230   N     0.31529   0.02915   0.44251   0.00000  Uiso   1.00
C231   C     0.38034   0.98295   0.04546   0.00000  Uiso   1.00
C232   C     0.39994   0.03166   0.03654   0.00000  Uiso   1.00
C233   C     0.42261   0.05483   0.97364   0.00000  Uiso   1.00
C234   C     0.43794   0.09917   0.97651   0.00000  Uiso   1.00
C235   C     0.46944   0.17171   0.95299   0.00000  Uiso   1.00
C236   C     0.33582   0.99032   0.09489   0.00000  Uiso   1.00
C237   C     0.30458   0.97873   0.08107   0.00000  Uiso   1.00
C238   C     0.26594   0.98828   0.13307   0.00000  Uiso   1.00
C239   C     0.19789   0.99661   0.20016   0.00000  Uiso   1.00
C240   C     0.39630   0.95261   0.08510   0.00000  Uiso   1.00
C241   C     0.41590   0.90929   0.06305   0.00000  Uiso   1.00
C242   C     0.42817   0.88707   0.10680   0.00000  Uiso   1.00
C243   C     0.45402   0.83684   0.15869   0.00000  Uiso   1.00
C244   C     0.36728   0.02050   0.16239   0.00000  Uiso   1.00
C245   C     0.39285   0.05206   0.10005   0.00000  Uiso   1.00
C246   C     0.40816   0.09638   0.10301   0.00000  Uiso   1.00
C247   C     0.43084   0.11961   0.04013   0.00000  Uiso   1.00
C248   C     0.32873   0.01072   0.15840   0.00000  Uiso   1.00
C249   C     0.29012   0.02028   0.21043   0.00000  Uiso   1.00
C250   C     0.25883   0.00871   0.19669   0.00000  Uiso   1.00
C251   C     0.38921   0.97300   0.14861   0.00000  Uiso   1.00
C252   C     0.40144   0.95084   0.19241   0.00000  Uiso   1.00
C253   C     0.42106   0.90751   0.17043   0.00000  Uiso   1.00
H254   H     0.38586   0.96707   0.99602   0.00000  Uiso   1.00
H255   H     0.42809   0.03903   0.92451   0.00000  Uiso   1.00
H256   H     0.31008   0.96294   0.03192   0.00000  Uiso   1.00
H257   H     0.42138   0.89352   0.01390   0.00000  Uiso   1.00
H258   H     0.47176   0.12782   0.87323   0.00000  Uiso   1.00
H259   H     0.22293   0.96737   0.09972   0.00000  Uiso   1.00
H260   H     0.45763   0.82097   0.06172   0.00000  Uiso   1.00
H261   H     0.36175   0.03639   0.21184   0.00000  Uiso   1.00
H262   H     0.40266   0.11215   0.15217   0.00000  Uiso   1.00
H263   H     0.28465   0.03607   0.25958   0.00000  Uiso   1.00
H264   H     0.39595   0.96664   0.24155   0.00000  Uiso   1.00
H265   H     0.45112   0.18717   0.05800   0.00000  Uiso   1.00
H266   H     0.20229   0.02671   0.28450   0.00000  Uiso   1.00
H267   H     0.43699   0.88032   0.24649   0.00000  Uiso   1.00
O268   O     0.48877   0.20609   0.92247   0.00000  Uiso   1.00
O269   O     0.16231   0.99558   0.21962   0.00000  Uiso   1.00
O270   O     0.47024   0.80351   0.16976   0.00000  Uiso   1.00
N271   N     0.46130   0.13138   0.92490   0.00000  Uiso   1.00
N272   N     0.22865   0.98138   0.13666   0.00000  Uiso   1.00
N273   N     0.44807   0.84450   0.10113   0.00000  Uiso   1.00
N274   N     0.45019   0.16332   0.02433   0.00000  Uiso   1.00
N275   N     0.21755   0.01331   0.23608   0.00000  Uiso   1.00
N276   N     0.43696   0.87644   0.20056   0.00000  Uiso   1.00
C277   C     0.39185   0.39917   0.49042   0.00000  Uiso   1.00
C278   C     0.90967   0.85099   0.49291   0.00000  Uiso   1.00
C279   C     0.93427   0.82343   0.43562   0.00000  Uiso   1.00
C280   C     0.94747   0.78043   0.44884   0.00000  Uiso   1.00
C281   C     0.97680   0.70786   0.44235   0.00000  Uiso   1.00
C282   C     0.84658   0.89408   0.53501   0.00000  Uiso   1.00
C283   C     0.81812   0.90277   0.51313   0.00000  Uiso   1.00
C284   C     0.77820   0.89605   0.56180   0.00000  Uiso   1.00
C285   C     0.70957   0.89043   0.62068   0.00000  Uiso   1.00
C286   C     0.40539   0.43370   0.52925   0.00000  Uiso   1.00
C287   C     0.42638   0.47570   0.50254   0.00000  Uiso   1.00
C288   C     0.43597   0.50234   0.54637   0.00000  Uiso   1.00
C289   C     0.45867   0.55822   0.59631   0.00000  Uiso   1.00
C290   C     0.87156   0.87182   0.61577   0.00000  Uiso   1.00
C291   C     0.89865   0.83613   0.56099   0.00000  Uiso   1.00
C292   C     0.91182   0.79316   0.57431   0.00000  Uiso   1.00
C293   C     0.93643   0.76555   0.51705   0.00000  Uiso   1.00
C294   C     0.83555   0.87923   0.60309   0.00000  Uiso   1.00
C295   C     0.79567   0.87250   0.65181   0.00000  Uiso   1.00
C296   C     0.76716   0.88117   0.63000   0.00000  Uiso   1.00
C297   C     0.39437   0.41884   0.59734   0.00000  Uiso   1.00
C298   C     0.40393   0.44543   0.64122   0.00000  Uiso   1.00
C299   C     0.42493   0.48746   0.61457   0.00000  Uiso   1.00
H300   H     0.40043   0.41074   0.43742   0.00000  Uiso   1.00
H301   H     0.44279   0.33494   0.38294   0.00000  Uiso   1.00
H302   H     0.82665   0.91427   0.46044   0.00000  Uiso   1.00
H303   H     0.43490   0.48718   0.44985   0.00000  Uiso   1.00
H304   H     0.98488   0.74434   0.35257   0.00000  Uiso   1.00
H305   H     0.74000   0.91162   0.51598   0.00000  Uiso   1.00
H306   H     0.46826   0.56538   0.49365   0.00000  Uiso   1.00
H307   H     0.86298   0.86025   0.66878   0.00000  Uiso   1.00
H308   H     0.90329   0.78168   0.62700   0.00000  Uiso   1.00
H309   H     0.78715   0.86101   0.70449   0.00000  Uiso   1.00
H310   H     0.39540   0.43392   0.69390   0.00000  Uiso   1.00
H311   H     0.95281   0.70111   0.55066   0.00000  Uiso   1.00
H312   H     0.70794   0.86840   0.71406   0.00000  Uiso   1.00
H313   H     0.43620   0.52215   0.69173   0.00000  Uiso   1.00
O314   O     0.99602   0.67193   0.41996   0.00000  Uiso   1.00
O315   O     0.67476   0.89142   0.63434   0.00000  Uiso   1.00
O316   O     0.47424   0.59314   0.60504   0.00000  Uiso   1.00
N317   N     0.97181   0.74495   0.40492   0.00000  Uiso   1.00
N318   N     0.74286   0.90135   0.55770   0.00000  Uiso   1.00
N319   N     0.45626   0.54510   0.53683   0.00000  Uiso   1.00
N320   N     0.95455   0.72169   0.51151   0.00000  Uiso   1.00
N321   N     0.72561   0.87809   0.66429   0.00000  Uiso   1.00
N322   N     0.43901   0.52184   0.64341   0.00000  Uiso   1.00
C323   C     0.63482   0.24082   0.81079   0.00000  Uiso   1.00
C324   C     0.67009   0.26441   0.74932   0.00000  Uiso   1.00
C325   C     0.67600   0.31304   0.73815   0.00000  Uiso   1.00
C326   C     0.71014   0.32750   0.67880   0.00000  Uiso   1.00
C327   C     0.76075   0.36916   0.59040   0.00000  Uiso   1.00
C328   C     0.61567   0.20765   0.77941   0.00000  Uiso   1.00
C329   C     0.57583   0.20855   0.79354   0.00000  Uiso   1.00
C330   C     0.06416   0.67522   0.75952   0.00000  Uiso   1.00
C331   C     0.03028   0.62873   0.71786   0.00000  Uiso   1.00
C332   C     0.65304   0.20874   0.84503   0.00000  Uiso   1.00
C333   C     0.64461   0.21055   0.91434   0.00000  Uiso   1.00
C334   C     0.66439   0.17814   0.93557   0.00000  Uiso   1.00
C335   C     0.68853   0.13334   0.99580   0.00000  Uiso   1.00
C336   C     0.68492   0.18004   0.72525   0.00000  Uiso   1.00
C337   C     0.69730   0.23140   0.70286   0.00000  Uiso   1.00
C338   C     0.73144   0.24579   0.64351   0.00000  Uiso   1.00
C339   C     0.73740   0.29443   0.63225   0.00000  Uiso   1.00
C340   C     0.64288   0.17464   0.73294   0.00000  Uiso   1.00
C341   C     0.13127   0.64130   0.69890   0.00000  Uiso   1.00
C342   C     0.09142   0.64215   0.71297   0.00000  Uiso   1.00
C343   C     0.68025   0.17573   0.79856   0.00000  Uiso   1.00
C344   C     0.70005   0.14331   0.81969   0.00000  Uiso   1.00
C345   C     0.69166   0.14506   0.88902   0.00000  Uiso   1.00
H346   H     0.61363   0.26652   0.84697   0.00000  Uiso   1.00
H347   H     0.65493   0.33857   0.77412   0.00000  Uiso   1.00
H348   H     0.55478   0.23409   0.82950   0.00000  Uiso   1.00
H349   H     0.62355   0.23610   0.95028   0.00000  Uiso   1.00
H350   H     0.71272   0.40390   0.67285   0.00000  Uiso   1.00
H351   H     0.00153   0.68360   0.78965   0.00000  Uiso   1.00
H352   H     0.64655   0.18782   0.04433   0.00000  Uiso   1.00
H353   H     0.70611   0.15434   0.68908   0.00000  Uiso   1.00
H354   H     0.75249   0.22024   0.60756   0.00000  Uiso   1.00
H355   H     0.15233   0.61576   0.66295   0.00000  Uiso   1.00
H356   H     0.72111   0.11776   0.78372   0.00000  Uiso   1.00
H357   H     0.79190   0.30786   0.53766   0.00000  Uiso   1.00
H358   H     0.08071   0.58755   0.65447   0.00000  Uiso   1.00
H359   H     0.72573   0.09177   0.90914   0.00000  Uiso   1.00
O360   O     0.78114   0.40125   0.55447   0.00000  Uiso   1.00
O361   O     0.00407   0.61222   0.70772   0.00000  Uiso   1.00
O362   O     0.69434   0.11776   0.04185   0.00000  Uiso   1.00
N363   N     0.72499   0.37225   0.65223   0.00000  Uiso   1.00
N364   N     0.02754   0.66628   0.76142   0.00000  Uiso   1.00
N365   N     0.66312   0.17022   0.99953   0.00000  Uiso   1.00
N366   N     0.76760   0.32057   0.57949   0.00000  Uiso   1.00
N367   N     0.07015   0.61460   0.68868   0.00000  Uiso   1.00
N368   N     0.70573   0.11854   0.92679   0.00000  Uiso   1.00
C369   C     0.65922   0.68609   0.86881   0.00000  Uiso   1.00
C370   C     0.61838   0.69577   0.93124   0.00000  Uiso   1.00
C371   C     0.59050   0.66153   0.97097   0.00000  Uiso   1.00
C372   C     0.55491   0.67762   0.02591   0.00000  Uiso   1.00
C373   C     0.49262   0.68525   0.12060   0.00000  Uiso   1.00
C374   C     0.65991   0.71407   0.80821   0.00000  Uiso   1.00
C375   C     0.66695   0.69522   0.74449   0.00000  Uiso   1.00
C376   C     0.66633   0.72673   0.69586   0.00000  Uiso   1.00
C377   C     0.66855   0.76279   0.59953   0.00000  Uiso   1.00
C378   C     0.69002   0.70974   0.88542   0.00000  Uiso   1.00
C379   C     0.72238   0.68726   0.88662   0.00000  Uiso   1.00
C380   C     0.74712   0.71512   0.90299   0.00000  Uiso   1.00
C381   C     0.79608   0.74445   0.92655   0.00000  Uiso   1.00
C382   C     0.64561   0.77556   0.89573   0.00000  Uiso   1.00
C383   C     0.61099   0.74436   0.94586   0.00000  Uiso   1.00
C384   C     0.57544   0.76051   0.00076   0.00000  Uiso   1.00
C385   C     0.54750   0.72630   0.04056   0.00000  Uiso   1.00
C386   C     0.65252   0.76267   0.82283   0.00000  Uiso   1.00
C387   C     0.65189   0.79421   0.77428   0.00000  Uiso   1.00
C388   C     0.65892   0.77541   0.71051   0.00000  Uiso   1.00
C389   C     0.68263   0.75834   0.90005   0.00000  Uiso   1.00
C390   C     0.70732   0.78624   0.91641   0.00000  Uiso   1.00
C391   C     0.73971   0.76380   0.91764   0.00000  Uiso   1.00
H392   H     0.66497   0.64826   0.85742   0.00000  Uiso   1.00
H393   H     0.59623   0.62392   0.95963   0.00000  Uiso   1.00
H394   H     0.67268   0.65762   0.73319   0.00000  Uiso   1.00
H395   H     0.72809   0.64965   0.87530   0.00000  Uiso   1.00
H396   H     0.51675   0.61838   0.07938   0.00000  Uiso   1.00
H397   H     0.67795   0.68942   0.60191   0.00000  Uiso   1.00
H398   H     0.79482   0.67262   0.90157   0.00000  Uiso   1.00
H399   H     0.63985   0.81339   0.90712   0.00000  Uiso   1.00
H400   H     0.06973   0.29812   0.01206   0.00000  Uiso   1.00
H401   H     0.64617   0.83181   0.78562   0.00000  Uiso   1.00
H402   H     0.70159   0.82384   0.92773   0.00000  Uiso   1.00
H403   H     0.99523   0.25976   0.12194   0.00000  Uiso   1.00
H404   H     0.65644   0.83080   0.64446   0.00000  Uiso   1.00
H405   H     0.77331   0.81400   0.94413   0.00000  Uiso   1.00
O406   O     0.46031   0.67604   0.16878   0.00000  Uiso   1.00
O407   O     0.67181   0.76925   0.54235   0.00000  Uiso   1.00
O408   O     0.82513   0.74721   0.93551   0.00000  Uiso   1.00
N409   N     0.52131   0.65375   0.07500   0.00000  Uiso   1.00
N410   N     0.67202   0.72017   0.62860   0.00000  Uiso   1.00
N411   N     0.78129   0.70447   0.90874   0.00000  Uiso   1.00
N412   N     0.50974   0.72982   0.09790   0.00000  Uiso   1.00
N413   N     0.66045   0.79624   0.65150   0.00000  Uiso   1.00
N414   N     0.76971   0.78054   0.93164   0.00000  Uiso   1.00
C415   C     0.13338   0.62865   0.42227   0.00000  Uiso   1.00
C416   C     0.67338   0.10243   0.38666   0.00000  Uiso   1.00
C417   C     0.17971   0.55528   0.39770   0.00000  Uiso   1.00
C418   C     0.21850   0.53791   0.36002   0.00000  Uiso   1.00
C419   C     0.77585   0.99281   0.31184   0.00000  Uiso   1.00
C420   C     0.12583   0.64771   0.36386   0.00000  Uiso   1.00
C421   C     0.09218   0.63862   0.35575   0.00000  Uiso   1.00
C422   C     0.09094   0.65938   0.29888   0.00000  Uiso   1.00
C423   C     0.07446   0.68460   0.21535   0.00000  Uiso   1.00
C424   C     0.64043   0.17214   0.45698   0.00000  Uiso   1.00
C425   C     0.61904   0.18361   0.52716   0.00000  Uiso   1.00
C426   C     0.63009   0.22493   0.54870   0.00000  Uiso   1.00
C427   C     0.63626   0.28809   0.60975   0.00000  Uiso   1.00
C428   C     0.69103   0.18166   0.33572   0.00000  Uiso   1.00
C429   C     0.70469   0.13123   0.33964   0.00000  Uiso   1.00
C430   C     0.74349   0.11393   0.30194   0.00000  Uiso   1.00
C431   C     0.74987   0.06676   0.31293   0.00000  Uiso   1.00
C432   C     0.65714   0.17650   0.31685   0.00000  Uiso   1.00
C433   C     0.65596   0.19728   0.25999   0.00000  Uiso   1.00
C434   C     0.62231   0.18822   0.25179   0.00000  Uiso   1.00
C435   C     0.67174   0.20093   0.40997   0.00000  Uiso   1.00
C436   C     0.68282   0.24226   0.43140   0.00000  Uiso   1.00
C437   C     0.66145   0.25378   0.50160   0.00000  Uiso   1.00
H438   H     0.10900   0.60624   0.45887   0.00000  Uiso   1.00
H439   H     0.15547   0.53300   0.43408   0.00000  Uiso   1.00
H440   H     0.06795   0.61634   0.39214   0.00000  Uiso   1.00
H441   H     0.09481   0.66132   0.56353   0.00000  Uiso   1.00
H442   H     0.22079   0.46451   0.38585   0.00000  Uiso   1.00
H443   H     0.03625   0.64025   0.29742   0.00000  Uiso   1.00
H444   H     0.59288   0.23508   0.65883   0.00000  Uiso   1.00
H445   H     0.71541   0.20408   0.29912   0.00000  Uiso   1.00
H446   H     0.76772   0.13622   0.26557   0.00000  Uiso   1.00
H447   H     0.68020   0.21956   0.22362   0.00000  Uiso   1.00
H448   H     0.70705   0.26453   0.39501   0.00000  Uiso   1.00
H449   H     0.81189   0.04828   0.24907   0.00000  Uiso   1.00
H450   H     0.62735   0.22402   0.16065   0.00000  Uiso   1.00
H451   H     0.68399   0.31885   0.52205   0.00000  Uiso   1.00
O452   O     0.79883   0.95998   0.29825   0.00000  Uiso   1.00
O453   O     0.05671   0.69055   0.18225   0.00000  Uiso   1.00
O454   O     0.63102   0.31497   0.65641   0.00000  Uiso   1.00
N455   N     0.23505   0.49354   0.35827   0.00000  Uiso   1.00
N456   N     0.06252   0.65784   0.27559   0.00000  Uiso   1.00
N457   N     0.61546   0.24651   0.61348   0.00000  Uiso   1.00
N458   N     0.78408   0.03862   0.28467   0.00000  Uiso   1.00
N459   N     0.61154   0.20292   0.20200   0.00000  Uiso   1.00
N460   N     0.66448   0.29158   0.53988   0.00000  Uiso   1.00
C461   C     0.67135   0.62803   0.51462   0.00000  Uiso   1.00
C462   C     0.63964   0.60128   0.57741   0.00000  Uiso   1.00
C463   C     0.61386   0.62123   0.64145   0.00000  Uiso   1.00
C464   C     0.58699   0.59076   0.69220   0.00000  Uiso   1.00
C465   C     0.53789   0.55663   0.79165   0.00000  Uiso   1.00
C466   C     0.66206   0.61825   0.45478   0.00000  Uiso   1.00
C467   C     0.65514   0.65248   0.41570   0.00000  Uiso   1.00
C468   C     0.64714   0.63629   0.36322   0.00000  Uiso   1.00
C469   C     0.63288   0.62852   0.27224   0.00000  Uiso   1.00
C470   C     0.71107   0.60315   0.49539   0.00000  Uiso   1.00
C471   C     0.74536   0.62468   0.49045   0.00000  Uiso   1.00
C472   C     0.77863   0.59578   0.47214   0.00000  Uiso   1.00
C473   C     0.84046   0.56457   0.44423   0.00000  Uiso   1.00
C474   C     0.66947   0.53844   0.49087   0.00000  Uiso   1.00
C475   C     0.63862   0.55262   0.56451   0.00000  Uiso   1.00
C476   C     0.61178   0.52211   0.61518   0.00000  Uiso   1.00
C477   C     0.58597   0.54201   0.67928   0.00000  Uiso   1.00
C478   C     0.66104   0.56960   0.44188   0.00000  Uiso   1.00
C479   C     0.65306   0.55336   0.38943   0.00000  Uiso   1.00
C480   C     0.64612   0.58754   0.35029   0.00000  Uiso   1.00
C481   C     0.71005   0.55449   0.48250   0.00000  Uiso   1.00
C482   C     0.74327   0.52556   0.46418   0.00000  Uiso   1.00
C483   C     0.77761   0.54704   0.45922   0.00000  Uiso   1.00
H484   H     0.67215   0.66591   0.52466   0.00000  Uiso   1.00
H485   H     0.61466   0.65889   0.65141   0.00000  Uiso   1.00
H486   H     0.65593   0.69013   0.42569   0.00000  Uiso   1.00
H487   H     0.74614   0.66234   0.50043   0.00000  Uiso   1.00
H488   H     0.55046   0.62965   0.78624   0.00000  Uiso   1.00
H489   H     0.63750   0.69552   0.31029   0.00000  Uiso   1.00
H490   H     0.82772   0.63691   0.46789   0.00000  Uiso   1.00
H491   H     0.66867   0.50055   0.48083   0.00000  Uiso   1.00
H492   H     0.61099   0.48446   0.60518   0.00000  Uiso   1.00
H493   H     0.65227   0.51570   0.37947   0.00000  Uiso   1.00
H494   H     0.74247   0.48791   0.45421   0.00000  Uiso   1.00
H495   H     0.54748   0.48807   0.74872   0.00000  Uiso   1.00
H496   H     0.63453   0.55394   0.27277   0.00000  Uiso   1.00
H497   H     0.82474   0.49534   0.43037   0.00000  Uiso   1.00
O498   O     0.51108   0.55125   0.85007   0.00000  Uiso   1.00
O499   O     0.62529   0.63768   0.22563   0.00000  Uiso   1.00
O500   O     0.87485   0.56079   0.43240   0.00000  Uiso   1.00
N501   N     0.55768   0.59853   0.76035   0.00000  Uiso   1.00
N502   N     0.63906   0.66012   0.31537   0.00000  Uiso   1.00
N503   N     0.81690   0.60533   0.46270   0.00000  Uiso   1.00
N504   N     0.55608   0.52235   0.74016   0.00000  Uiso   1.00
N505   N     0.63746   0.58394   0.29519   0.00000  Uiso   1.00
N506   N     0.81529   0.52915   0.44251   0.00000  Uiso   1.00
C507   C     0.88034   0.48295   0.04546   0.00000  Uiso   1.00
C508   C     0.89994   0.53166   0.03654   0.00000  Uiso   1.00
C509   C     0.92261   0.55483   0.97364   0.00000  Uiso   1.00
C510   C     0.93794   0.59917   0.97651   0.00000  Uiso   1.00
C511   C     0.96944   0.67171   0.95299   0.00000  Uiso   1.00
C512   C     0.83582   0.49032   0.09489   0.00000  Uiso   1.00
C513   C     0.80458   0.47873   0.08107   0.00000  Uiso   1.00
C514   C     0.76594   0.48828   0.13307   0.00000  Uiso   1.00
C515   C     0.69789   0.49661   0.20016   0.00000  Uiso   1.00
C516   C     0.89630   0.45261   0.08510   0.00000  Uiso   1.00
C517   C     0.91590   0.40929   0.06305   0.00000  Uiso   1.00
C518   C     0.92817   0.38707   0.10680   0.00000  Uiso   1.00
C519   C     0.95402   0.33684   0.15869   0.00000  Uiso   1.00
C520   C     0.86728   0.52050   0.16239   0.00000  Uiso   1.00
C521   C     0.89285   0.55206   0.10005   0.00000  Uiso   1.00
C522   C     0.90816   0.59638   0.10301   0.00000  Uiso   1.00
C523   C     0.93084   0.61961   0.04013   0.00000  Uiso   1.00
C524   C     0.82873   0.51072   0.15840   0.00000  Uiso   1.00
C525   C     0.79012   0.52028   0.21043   0.00000  Uiso   1.00
C526   C     0.75883   0.50871   0.19669   0.00000  Uiso   1.00
C527   C     0.88921   0.47300   0.14861   0.00000  Uiso   1.00
C528   C     0.90144   0.45084   0.19241   0.00000  Uiso   1.00
C529   C     0.92106   0.40751   0.17043   0.00000  Uiso   1.00
H530   H     0.88586   0.46707   0.99602   0.00000  Uiso   1.00
H531   H     0.92809   0.53903   0.92451   0.00000  Uiso   1.00
H532   H     0.81008   0.46294   0.03192   0.00000  Uiso   1.00
H533   H     0.92138   0.39352   0.01390   0.00000  Uiso   1.00
H534   H     0.97176   0.62782   0.87323   0.00000  Uiso   1.00
H535   H     0.72293   0.46737   0.09972   0.00000  Uiso   1.00
H536   H     0.95763   0.32097   0.06172   0.00000  Uiso   1.00
H537   H     0.86175   0.53639   0.21184   0.00000  Uiso   1.00
H538   H     0.90266   0.61215   0.15217   0.00000  Uiso   1.00
H539   H     0.78465   0.53607   0.25958   0.00000  Uiso   1.00
H540   H     0.89595   0.46664   0.24155   0.00000  Uiso   1.00
H541   H     0.95112   0.68717   0.05800   0.00000  Uiso   1.00
H542   H     0.70229   0.52671   0.28450   0.00000  Uiso   1.00
H543   H     0.93699   0.38032   0.24649   0.00000  Uiso   1.00
O544   O     0.98877   0.70609   0.92247   0.00000  Uiso   1.00
O545   O     0.66231   0.49558   0.21962   0.00000  Uiso   1.00
O546   O     0.97024   0.30351   0.16976   0.00000  Uiso   1.00
N547   N     0.96130   0.63138   0.92490   0.00000  Uiso   1.00
N548   N     0.72865   0.48138   0.13666   0.00000  Uiso   1.00
N549   N     0.94807   0.34450   0.10113   0.00000  Uiso   1.00
N550   N     0.95019   0.66332   0.02433   0.00000  Uiso   1.00
N551   N     0.71755   0.51331   0.23608   0.00000  Uiso   1.00
N552   N     0.93696   0.37644   0.20056   0.00000  Uiso   1.00
C553   C     0.10815   0.89917   0.50958   0.00000  Uiso   1.00
C554   C     0.59033   0.35099   0.50709   0.00000  Uiso   1.00
C555   C     0.56573   0.32343   0.56438   0.00000  Uiso   1.00
C556   C     0.55253   0.28043   0.55116   0.00000  Uiso   1.00
C557   C     0.52320   0.20786   0.55765   0.00000  Uiso   1.00
C558   C     0.65342   0.39408   0.46499   0.00000  Uiso   1.00
C559   C     0.68188   0.40277   0.48687   0.00000  Uiso   1.00
C560   C     0.72180   0.39605   0.43820   0.00000  Uiso   1.00
C561   C     0.79043   0.39043   0.37932   0.00000  Uiso   1.00
C562   C     0.09461   0.93370   0.47075   0.00000  Uiso   1.00
C563   C     0.07362   0.97570   0.49746   0.00000  Uiso   1.00
C564   C     0.06403   0.00234   0.45363   0.00000  Uiso   1.00
C565   C     0.04133   0.05822   0.40369   0.00000  Uiso   1.00
C566   C     0.62844   0.37182   0.38423   0.00000  Uiso   1.00
C567   C     0.60135   0.33613   0.43901   0.00000  Uiso   1.00
C568   C     0.58818   0.29316   0.42569   0.00000  Uiso   1.00
C569   C     0.56357   0.26555   0.48295   0.00000  Uiso   1.00
C570   C     0.66445   0.37923   0.39691   0.00000  Uiso   1.00
C571   C     0.70433   0.37250   0.34819   0.00000  Uiso   1.00
C572   C     0.73284   0.38117   0.37000   0.00000  Uiso   1.00
C573   C     0.10563   0.91884   0.40266   0.00000  Uiso   1.00
C574   C     0.09607   0.94543   0.35878   0.00000  Uiso   1.00
C575   C     0.07507   0.98746   0.38543   0.00000  Uiso   1.00
H576   H     0.09957   0.91074   0.56258   0.00000  Uiso   1.00
H577   H     0.05721   0.83494   0.61706   0.00000  Uiso   1.00
H578   H     0.67335   0.41427   0.53956   0.00000  Uiso   1.00
H579   H     0.06510   0.98718   0.55015   0.00000  Uiso   1.00
H580   H     0.51512   0.24434   0.64743   0.00000  Uiso   1.00
H581   H     0.76000   0.41162   0.48402   0.00000  Uiso   1.00
H582   H     0.03174   0.06538   0.50635   0.00000  Uiso   1.00
H583   H     0.63702   0.36025   0.33122   0.00000  Uiso   1.00
H584   H     0.59671   0.28168   0.37300   0.00000  Uiso   1.00
H585   H     0.71285   0.36101   0.29551   0.00000  Uiso   1.00
H586   H     0.10460   0.93392   0.30610   0.00000  Uiso   1.00
H587   H     0.54719   0.20111   0.44934   0.00000  Uiso   1.00
H588   H     0.79206   0.36840   0.28594   0.00000  Uiso   1.00
H589   H     0.06380   0.02215   0.30827   0.00000  Uiso   1.00
O590   O     0.50398   0.17193   0.58004   0.00000  Uiso   1.00
O591   O     0.82524   0.39142   0.36566   0.00000  Uiso   1.00
O592   O     0.02576   0.09314   0.39496   0.00000  Uiso   1.00
N593   N     0.52819   0.24495   0.59508   0.00000  Uiso   1.00
N594   N     0.75714   0.40135   0.44230   0.00000  Uiso   1.00
N595   N     0.04374   0.04510   0.46317   0.00000  Uiso   1.00
N596   N     0.54545   0.22169   0.48849   0.00000  Uiso   1.00
N597   N     0.77439   0.37809   0.33571   0.00000  Uiso   1.00
N598   N     0.06099   0.02184   0.35659   0.00000  Uiso   1.00
C599   C     0.86518   0.74082   0.18921   0.00000  Uiso   1.00
C600   C     0.82991   0.76441   0.25068   0.00000  Uiso   1.00
C601   C     0.82400   0.81304   0.26185   0.00000  Uiso   1.00
C602   C     0.78986   0.82750   0.32120   0.00000  Uiso   1.00
C603   C     0.73925   0.86916   0.40960   0.00000  Uiso   1.00
C604   C     0.88433   0.70765   0.22059   0.00000  Uiso   1.00
C605   C     0.92417   0.70855   0.20646   0.00000  Uiso   1.00
C606   C     0.43584   0.17522   0.24048   0.00000  Uiso   1.00
C607   C     0.46972   0.12873   0.28214   0.00000  Uiso   1.00
C608   C     0.84696   0.70874   0.15497   0.00000  Uiso   1.00
C609   C     0.85539   0.71055   0.08566   0.00000  Uiso   1.00
C610   C     0.83561   0.67814   0.06443   0.00000  Uiso   1.00
C611   C     0.81147   0.63334   0.00420   0.00000  Uiso   1.00
C612   C     0.81508   0.68004   0.27475   0.00000  Uiso   1.00
C613   C     0.80270   0.73140   0.29714   0.00000  Uiso   1.00
C614   C     0.76856   0.74579   0.35649   0.00000  Uiso   1.00
C615   C     0.76260   0.79443   0.36775   0.00000  Uiso   1.00
C616   C     0.85712   0.67464   0.26706   0.00000  Uiso   1.00
C617   C     0.36873   0.14130   0.30110   0.00000  Uiso   1.00
C618   C     0.40858   0.14215   0.28703   0.00000  Uiso   1.00
C619   C     0.81975   0.67573   0.20144   0.00000  Uiso   1.00
C620   C     0.79995   0.64331   0.18031   0.00000  Uiso   1.00
C621   C     0.80834   0.64506   0.11098   0.00000  Uiso   1.00
H622   H     0.88637   0.76652   0.15303   0.00000  Uiso   1.00
H623   H     0.84507   0.83857   0.22588   0.00000  Uiso   1.00
H624   H     0.94522   0.73409   0.17050   0.00000  Uiso   1.00
H625   H     0.87645   0.73610   0.04972   0.00000  Uiso   1.00
H626   H     0.78728   0.90390   0.32715   0.00000  Uiso   1.00
H627   H     0.49847   0.18360   0.21035   0.00000  Uiso   1.00
H628   H     0.85345   0.68782   0.95567   0.00000  Uiso   1.00
H629   H     0.79389   0.65434   0.31092   0.00000  Uiso   1.00
H630   H     0.74751   0.72024   0.39244   0.00000  Uiso   1.00
H631   H     0.34767   0.11576   0.33705   0.00000  Uiso   1.00
H632   H     0.77889   0.61776   0.21628   0.00000  Uiso   1.00
H633   H     0.70810   0.80786   0.46234   0.00000  Uiso   1.00
H634   H     0.41929   0.08755   0.34553   0.00000  Uiso   1.00
H635   H     0.77427   0.59177   0.09086   0.00000  Uiso   1.00
O636   O     0.71886   0.90125   0.44553   0.00000  Uiso   1.00
O637   O     0.49593   0.11222   0.29228   0.00000  Uiso   1.00
O638   O     0.80566   0.61776   0.95815   0.00000  Uiso   1.00
N639   N     0.77501   0.87225   0.34777   0.00000  Uiso   1.00
N640   N     0.47246   0.16628   0.23858   0.00000  Uiso   1.00
N641   N     0.83688   0.67022   0.00047   0.00000  Uiso   1.00
N642   N     0.73240   0.82057   0.42051   0.00000  Uiso   1.00
N643   N     0.42985   0.11460   0.31132   0.00000  Uiso   1.00
N644   N     0.79427   0.61854   0.07321   0.00000  Uiso   1.00
C645   C     0.84078   0.18609   0.13119   0.00000  Uiso   1.00
C646   C     0.88162   0.19577   0.06876   0.00000  Uiso   1.00
C647   C     0.90950   0.16153   0.02903   0.00000  Uiso   1.00
C648   C     0.94509   0.17762   0.97409   0.00000  Uiso   1.00
C649   C     0.00738   0.18525   0.87940   0.00000  Uiso   1.00
C650   C     0.84009   0.21407   0.19179   0.00000  Uiso   1.00
C651   C     0.83305   0.19522   0.25551   0.00000  Uiso   1.00
C652   C     0.83367   0.22673   0.30414   0.00000  Uiso   1.00
C653   C     0.83145   0.26279   0.40047   0.00000  Uiso   1.00
C654   C     0.80998   0.20974   0.11458   0.00000  Uiso   1.00
C655   C     0.77762   0.18726   0.11338   0.00000  Uiso   1.00
C656   C     0.75288   0.21512   0.09701   0.00000  Uiso   1.00
C657   C     0.70392   0.24445   0.07345   0.00000  Uiso   1.00
C658   C     0.85439   0.27556   0.10427   0.00000  Uiso   1.00
C659   C     0.88901   0.24436   0.05414   0.00000  Uiso   1.00
C660   C     0.92456   0.26051   0.99924   0.00000  Uiso   1.00
C661   C     0.95250   0.22630   0.95944   0.00000  Uiso   1.00
C662   C     0.84748   0.26267   0.17717   0.00000  Uiso   1.00
C663   C     0.84811   0.29421   0.22572   0.00000  Uiso   1.00
C664   C     0.84108   0.27541   0.28949   0.00000  Uiso   1.00
C665   C     0.81737   0.25834   0.09995   0.00000  Uiso   1.00
C666   C     0.79268   0.28624   0.08359   0.00000  Uiso   1.00
C667   C     0.76029   0.26380   0.08236   0.00000  Uiso   1.00
H668   H     0.83503   0.14826   0.14258   0.00000  Uiso   1.00
H669   H     0.90377   0.12392   0.04037   0.00000  Uiso   1.00
H670   H     0.82732   0.15762   0.26681   0.00000  Uiso   1.00
H671   H     0.77191   0.14965   0.12470   0.00000  Uiso   1.00
H672   H     0.98325   0.11838   0.92062   0.00000  Uiso   1.00
H673   H     0.82205   0.18942   0.39809   0.00000  Uiso   1.00
H674   H     0.70518   0.17262   0.09843   0.00000  Uiso   1.00
H675   H     0.86015   0.31339   0.09288   0.00000  Uiso   1.00
H676   H     0.43027   0.79812   0.98794   0.00000  Uiso   1.00
H677   H     0.85383   0.33181   0.21438   0.00000  Uiso   1.00
H678   H     0.79841   0.32384   0.07227   0.00000  Uiso   1.00
H679   H     0.50477   0.75976   0.87806   0.00000  Uiso   1.00
H680   H     0.84356   0.33080   0.35554   0.00000  Uiso   1.00
H681   H     0.72669   0.31400   0.05587   0.00000  Uiso   1.00
O682   O     0.03969   0.17604   0.83122   0.00000  Uiso   1.00
O683   O     0.82819   0.26925   0.45765   0.00000  Uiso   1.00
O684   O     0.67487   0.24721   0.06449   0.00000  Uiso   1.00
N685   N     0.97869   0.15375   0.92500   0.00000  Uiso   1.00
N686   N     0.82798   0.22017   0.37140   0.00000  Uiso   1.00
N687   N     0.71871   0.20447   0.09126   0.00000  Uiso   1.00
N688   N     0.99026   0.22982   0.90210   0.00000  Uiso   1.00
N689   N     0.83955   0.29624   0.34850   0.00000  Uiso   1.00
N690   N     0.73029   0.28054   0.06836   0.00000  Uiso   1.00
C691   C     0.36662   0.12865   0.57773   0.00000  Uiso   1.00
C692   C     0.82662   0.60243   0.61334   0.00000  Uiso   1.00
C693   C     0.32029   0.05528   0.60230   0.00000  Uiso   1.00
C694   C     0.28150   0.03791   0.63998   0.00000  Uiso   1.00
C695   C     0.72415   0.49281   0.68816   0.00000  Uiso   1.00
C696   C     0.37417   0.14771   0.63614   0.00000  Uiso   1.00
C697   C     0.40782   0.13862   0.64425   0.00000  Uiso   1.00
C698   C     0.40906   0.15938   0.70112   0.00000  Uiso   1.00
C699   C     0.42554   0.18460   0.78465   0.00000  Uiso   1.00
C700   C     0.85957   0.67214   0.54302   0.00000  Uiso   1.00
C701   C     0.88096   0.68361   0.47284   0.00000  Uiso   1.00
C702   C     0.86991   0.72493   0.45130   0.00000  Uiso   1.00
C703   C     0.86374   0.78809   0.39025   0.00000  Uiso   1.00
C704   C     0.80897   0.68166   0.66428   0.00000  Uiso   1.00
C705   C     0.79531   0.63123   0.66036   0.00000  Uiso   1.00
C706   C     0.75651   0.61393   0.69806   0.00000  Uiso   1.00
C707   C     0.75013   0.56676   0.68707   0.00000  Uiso   1.00
C708   C     0.84286   0.67650   0.68315   0.00000  Uiso   1.00
C709   C     0.84404   0.69728   0.74001   0.00000  Uiso   1.00
C710   C     0.87769   0.68822   0.74821   0.00000  Uiso   1.00
C711   C     0.82826   0.70093   0.59003   0.00000  Uiso   1.00
C712   C     0.81718   0.74226   0.56860   0.00000  Uiso   1.00
C713   C     0.83855   0.75378   0.49840   0.00000  Uiso   1.00
H714   H     0.39100   0.10624   0.54113   0.00000  Uiso   1.00
H715   H     0.34453   0.03300   0.56592   0.00000  Uiso   1.00
H716   H     0.43205   0.11634   0.60786   0.00000  Uiso   1.00
H717   H     0.40519   0.16132   0.43647   0.00000  Uiso   1.00
H718   H     0.27921   0.96451   0.61415   0.00000  Uiso   1.00
H719   H     0.46375   0.14025   0.70258   0.00000  Uiso   1.00
H720   H     0.90712   0.73508   0.34117   0.00000  Uiso   1.00
H721   H     0.78459   0.70408   0.70088   0.00000  Uiso   1.00
H722   H     0.73228   0.63622   0.73443   0.00000  Uiso   1.00
H723   H     0.81980   0.71956   0.77638   0.00000  Uiso   1.00
H724   H     0.79295   0.76453   0.60499   0.00000  Uiso   1.00
H725   H     0.68811   0.54828   0.75093   0.00000  Uiso   1.00
H726   H     0.87265   0.72402   0.83935   0.00000  Uiso   1.00
H727   H     0.81601   0.81885   0.47795   0.00000  Uiso   1.00
O728   O     0.70117   0.45998   0.70175   0.00000  Uiso   1.00
O729   O     0.44329   0.19055   0.81775   0.00000  Uiso   1.00
O730   O     0.86898   0.81497   0.34359   0.00000  Uiso   1.00
N731   N     0.26495   0.99354   0.64173   0.00000  Uiso   1.00
N732   N     0.43748   0.15784   0.72441   0.00000  Uiso   1.00
N733   N     0.88454   0.74651   0.38652   0.00000  Uiso   1.00
N734   N     0.71592   0.53862   0.71533   0.00000  Uiso   1.00
N735   N     0.88846   0.70292   0.79800   0.00000  Uiso   1.00
N736   N     0.83552   0.79158   0.46012   0.00000  Uiso   1.00
C737   C     0.82865   0.12803   0.48538   0.00000  Uiso   1.00
C738   C     0.86036   0.10128   0.42259   0.00000  Uiso   1.00
C739   C     0.88614   0.12123   0.35855   0.00000  Uiso   1.00
C740   C     0.91301   0.09076   0.30780   0.00000  Uiso   1.00
C741   C     0.96211   0.05663   0.20835   0.00000  Uiso   1.00
C742   C     0.83794   0.11825   0.54522   0.00000  Uiso   1.00
C743   C     0.84486   0.15248   0.58430   0.00000  Uiso   1.00
C744   C     0.85286   0.13629   0.63678   0.00000  Uiso   1.00
C745   C     0.86712   0.12852   0.72776   0.00000  Uiso   1.00
C746   C     0.78893   0.10315   0.50461   0.00000  Uiso   1.00
C747   C     0.75464   0.12468   0.50955   0.00000  Uiso   1.00
C748   C     0.72137   0.09578   0.52786   0.00000  Uiso   1.00
C749   C     0.65954   0.06457   0.55577   0.00000  Uiso   1.00
C750   C     0.83053   0.03844   0.50913   0.00000  Uiso   1.00
C751   C     0.86138   0.05262   0.43549   0.00000  Uiso   1.00
C752   C     0.88822   0.02211   0.38482   0.00000  Uiso   1.00
C753   C     0.91403   0.04201   0.32072   0.00000  Uiso   1.00
C754   C     0.83896   0.06960   0.55812   0.00000  Uiso   1.00
C755   C     0.84694   0.05336   0.61057   0.00000  Uiso   1.00
C756   C     0.85388   0.08754   0.64971   0.00000  Uiso   1.00
C757   C     0.78995   0.05449   0.51750   0.00000  Uiso   1.00
C758   C     0.75673   0.02556   0.53582   0.00000  Uiso   1.00
C759   C     0.72239   0.04704   0.54078   0.00000  Uiso   1.00
H760   H     0.82785   0.16591   0.47534   0.00000  Uiso   1.00
H761   H     0.88534   0.15889   0.34859   0.00000  Uiso   1.00
H762   H     0.84407   0.19013   0.57431   0.00000  Uiso   1.00
H763   H     0.75386   0.16234   0.49957   0.00000  Uiso   1.00
H764   H     0.94954   0.12965   0.21376   0.00000  Uiso   1.00
H765   H     0.86250   0.19552   0.68971   0.00000  Uiso   1.00
H766   H     0.67228   0.13691   0.53211   0.00000  Uiso   1.00
H767   H     0.83133   0.00055   0.51917   0.00000  Uiso   1.00
H768   H     0.88901   0.98446   0.39482   0.00000  Uiso   1.00
H769   H     0.84773   0.01570   0.62053   0.00000  Uiso   1.00
H770   H     0.75753   0.98791   0.54579   0.00000  Uiso   1.00
H771   H     0.95252   0.98807   0.25128   0.00000  Uiso   1.00
H772   H     0.86547   0.05394   0.72723   0.00000  Uiso   1.00
H773   H     0.67526   0.99534   0.56963   0.00000  Uiso   1.00
O774   O     0.98892   0.05125   0.14993   0.00000  Uiso   1.00
O775   O     0.87471   0.13768   0.77437   0.00000  Uiso   1.00
O776   O     0.62515   0.06079   0.56760   0.00000  Uiso   1.00
N777   N     0.94232   0.09853   0.23965   0.00000  Uiso   1.00
N778   N     0.86094   0.16012   0.68463   0.00000  Uiso   1.00
N779   N     0.68310   0.10533   0.53730   0.00000  Uiso   1.00
N780   N     0.94392   0.02235   0.25984   0.00000  Uiso   1.00
N781   N     0.86254   0.08394   0.70481   0.00000  Uiso   1.00
N782   N     0.68471   0.02915   0.55749   0.00000  Uiso   1.00
C783   C     0.61966   0.98295   0.95454   0.00000  Uiso   1.00
C784   C     0.60006   0.03166   0.96346   0.00000  Uiso   1.00
C785   C     0.57739   0.05483   0.02636   0.00000  Uiso   1.00
C786   C     0.56206   0.09917   0.02349   0.00000  Uiso   1.00
C787   C     0.53056   0.17171   0.04701   0.00000  Uiso   1.00
C788   C     0.66418   0.99032   0.90511   0.00000  Uiso   1.00
C789   C     0.69542   0.97873   0.91893   0.00000  Uiso   1.00
C790   C     0.73406   0.98828   0.86693   0.00000  Uiso   1.00
C791   C     0.80211   0.99661   0.79984   0.00000  Uiso   1.00
C792   C     0.60370   0.95261   0.91490   0.00000  Uiso   1.00
C793   C     0.58410   0.90929   0.93695   0.00000  Uiso   1.00
C794   C     0.57183   0.88707   0.89320   0.00000  Uiso   1.00
C795   C     0.54598   0.83684   0.84131   0.00000  Uiso   1.00
C796   C     0.63272   0.02050   0.83761   0.00000  Uiso   1.00
C797   C     0.60715   0.05206   0.89995   0.00000  Uiso   1.00
C798   C     0.59184   0.09638   0.89699   0.00000  Uiso   1.00
C799   C     0.56916   0.11961   0.95987   0.00000  Uiso   1.00
C800   C     0.67127   0.01072   0.84160   0.00000  Uiso   1.00
C801   C     0.70988   0.02028   0.78957   0.00000  Uiso   1.00
C802   C     0.74117   0.00871   0.80331   0.00000  Uiso   1.00
C803   C     0.61079   0.97300   0.85139   0.00000  Uiso   1.00
C804   C     0.59856   0.95084   0.80759   0.00000  Uiso   1.00
C805   C     0.57894   0.90751   0.82957   0.00000  Uiso   1.00
H806   H     0.61414   0.96707   0.00398   0.00000  Uiso   1.00
H807   H     0.57191   0.03903   0.07549   0.00000  Uiso   1.00
H808   H     0.68992   0.96294   0.96808   0.00000  Uiso   1.00
H809   H     0.57862   0.89352   0.98610   0.00000  Uiso   1.00
H810   H     0.52824   0.12782   0.12677   0.00000  Uiso   1.00
H811   H     0.77707   0.96737   0.90028   0.00000  Uiso   1.00
H812   H     0.54237   0.82097   0.93828   0.00000  Uiso   1.00
H813   H     0.63825   0.03639   0.78816   0.00000  Uiso   1.00
H814   H     0.59734   0.11215   0.84783   0.00000  Uiso   1.00
H815   H     0.71535   0.03607   0.74042   0.00000  Uiso   1.00
H816   H     0.60405   0.96664   0.75845   0.00000  Uiso   1.00
H817   H     0.54888   0.18717   0.94200   0.00000  Uiso   1.00
H818   H     0.79771   0.02671   0.71550   0.00000  Uiso   1.00
H819   H     0.56301   0.88032   0.75351   0.00000  Uiso   1.00
O820   O     0.51123   0.20609   0.07753   0.00000  Uiso   1.00
O821   O     0.83769   0.99558   0.78038   0.00000  Uiso   1.00
O822   O     0.52976   0.80351   0.83024   0.00000  Uiso   1.00
N823   N     0.53870   0.13138   0.07510   0.00000  Uiso   1.00
N824   N     0.77135   0.98138   0.86334   0.00000  Uiso   1.00
N825   N     0.55193   0.84450   0.89887   0.00000  Uiso   1.00
N826   N     0.54981   0.16332   0.97567   0.00000  Uiso   1.00
N827   N     0.78245   0.01331   0.76392   0.00000  Uiso   1.00
N828   N     0.56304   0.87644   0.79944   0.00000  Uiso   1.00
C829   C     0.60815   0.39917   0.50958   0.00000  Uiso   1.00
C830   C     0.09033   0.85099   0.50709   0.00000  Uiso   1.00
C831   C     0.06573   0.82343   0.56438   0.00000  Uiso   1.00
C832   C     0.05253   0.78043   0.55116   0.00000  Uiso   1.00
C833   C     0.02320   0.70786   0.55765   0.00000  Uiso   1.00
C834   C     0.15342   0.89408   0.46499   0.00000  Uiso   1.00
C835   C     0.18188   0.90277   0.48687   0.00000  Uiso   1.00
C836   C     0.22180   0.89605   0.43820   0.00000  Uiso   1.00
C837   C     0.29043   0.89043   0.37932   0.00000  Uiso   1.00
C838   C     0.59461   0.43370   0.47075   0.00000  Uiso   1.00
C839   C     0.57362   0.47570   0.49746   0.00000  Uiso   1.00
C840   C     0.56403   0.50234   0.45363   0.00000  Uiso   1.00
C841   C     0.54133   0.55822   0.40369   0.00000  Uiso   1.00
C842   C     0.12844   0.87182   0.38423   0.00000  Uiso   1.00
C843   C     0.10135   0.83613   0.43901   0.00000  Uiso   1.00
C844   C     0.08818   0.79316   0.42569   0.00000  Uiso   1.00
C845   C     0.06357   0.76555   0.48295   0.00000  Uiso   1.00
C846   C     0.16445   0.87923   0.39691   0.00000  Uiso   1.00
C847   C     0.20433   0.87250   0.34819   0.00000  Uiso   1.00
C848   C     0.23284   0.88117   0.37000   0.00000  Uiso   1.00
C849   C     0.60563   0.41884   0.40266   0.00000  Uiso   1.00
C850   C     0.59607   0.44543   0.35878   0.00000  Uiso   1.00
C851   C     0.57507   0.48746   0.38543   0.00000  Uiso   1.00
H852   H     0.59957   0.41074   0.56258   0.00000  Uiso   1.00
H853   H     0.55721   0.33494   0.61706   0.00000  Uiso   1.00
H854   H     0.17335   0.91427   0.53956   0.00000  Uiso   1.00
H855   H     0.56510   0.48718   0.55015   0.00000  Uiso   1.00
H856   H     0.01512   0.74434   0.64743   0.00000  Uiso   1.00
H857   H     0.26000   0.91162   0.48402   0.00000  Uiso   1.00
H858   H     0.53174   0.56538   0.50635   0.00000  Uiso   1.00
H859   H     0.13702   0.86025   0.33122   0.00000  Uiso   1.00
H860   H     0.09671   0.78168   0.37300   0.00000  Uiso   1.00
H861   H     0.21285   0.86101   0.29551   0.00000  Uiso   1.00
H862   H     0.60460   0.43392   0.30610   0.00000  Uiso   1.00
H863   H     0.04719   0.70111   0.44934   0.00000  Uiso   1.00
H864   H     0.29206   0.86840   0.28594   0.00000  Uiso   1.00
H865   H     0.56380   0.52215   0.30827   0.00000  Uiso   1.00
O866   O     0.00398   0.67193   0.58004   0.00000  Uiso   1.00
O867   O     0.32524   0.89142   0.36566   0.00000  Uiso   1.00
O868   O     0.52576   0.59314   0.39496   0.00000  Uiso   1.00
N869   N     0.02819   0.74495   0.59508   0.00000  Uiso   1.00
N870   N     0.25714   0.90135   0.44230   0.00000  Uiso   1.00
N871   N     0.54374   0.54510   0.46317   0.00000  Uiso   1.00
N872   N     0.04545   0.72169   0.48849   0.00000  Uiso   1.00
N873   N     0.27439   0.87809   0.33571   0.00000  Uiso   1.00
N874   N     0.56099   0.52184   0.35659   0.00000  Uiso   1.00
C875   C     0.36518   0.24082   0.18921   0.00000  Uiso   1.00
C876   C     0.32991   0.26441   0.25068   0.00000  Uiso   1.00
C877   C     0.32400   0.31304   0.26185   0.00000  Uiso   1.00
C878   C     0.28986   0.32750   0.32120   0.00000  Uiso   1.00
C879   C     0.23925   0.36916   0.40960   0.00000  Uiso   1.00
C880   C     0.38433   0.20765   0.22059   0.00000  Uiso   1.00
C881   C     0.42417   0.20855   0.20646   0.00000  Uiso   1.00
C882   C     0.93584   0.67522   0.24048   0.00000  Uiso   1.00
C883   C     0.96972   0.62873   0.28214   0.00000  Uiso   1.00
C884   C     0.34696   0.20874   0.15497   0.00000  Uiso   1.00
C885   C     0.35539   0.21055   0.08566   0.00000  Uiso   1.00
C886   C     0.33561   0.17814   0.06443   0.00000  Uiso   1.00
C887   C     0.31147   0.13334   0.00420   0.00000  Uiso   1.00
C888   C     0.31508   0.18004   0.27475   0.00000  Uiso   1.00
C889   C     0.30270   0.23140   0.29714   0.00000  Uiso   1.00
C890   C     0.26856   0.24579   0.35649   0.00000  Uiso   1.00
C891   C     0.26260   0.29443   0.36775   0.00000  Uiso   1.00
C892   C     0.35712   0.17464   0.26706   0.00000  Uiso   1.00
C893   C     0.86873   0.64130   0.30110   0.00000  Uiso   1.00
C894   C     0.90858   0.64215   0.28703   0.00000  Uiso   1.00
C895   C     0.31975   0.17573   0.20144   0.00000  Uiso   1.00
C896   C     0.29995   0.14331   0.18031   0.00000  Uiso   1.00
C897   C     0.30834   0.14506   0.11098   0.00000  Uiso   1.00
H898   H     0.38637   0.26652   0.15303   0.00000  Uiso   1.00
H899   H     0.34507   0.33857   0.22588   0.00000  Uiso   1.00
H900   H     0.44522   0.23409   0.17050   0.00000  Uiso   1.00
H901   H     0.37645   0.23610   0.04972   0.00000  Uiso   1.00
H902   H     0.28728   0.40390   0.32715   0.00000  Uiso   1.00
H903   H     0.99847   0.68360   0.21035   0.00000  Uiso   1.00
H904   H     0.35345   0.18782   0.95567   0.00000  Uiso   1.00
H905   H     0.29389   0.15434   0.31092   0.00000  Uiso   1.00
H906   H     0.24751   0.22024   0.39244   0.00000  Uiso   1.00
H907   H     0.84767   0.61576   0.33705   0.00000  Uiso   1.00
H908   H     0.27889   0.11776   0.21628   0.00000  Uiso   1.00
H909   H     0.20810   0.30786   0.46234   0.00000  Uiso   1.00
H910   H     0.91929   0.58755   0.34553   0.00000  Uiso   1.00
H911   H     0.27427   0.09177   0.09086   0.00000  Uiso   1.00
O912   O     0.21886   0.40125   0.44553   0.00000  Uiso   1.00
O913   O     0.99593   0.61222   0.29228   0.00000  Uiso   1.00
O914   O     0.30566   0.11776   0.95815   0.00000  Uiso   1.00
N915   N     0.27501   0.37225   0.34777   0.00000  Uiso   1.00
N916   N     0.97246   0.66628   0.23858   0.00000  Uiso   1.00
N917   N     0.33688   0.17022   0.00047   0.00000  Uiso   1.00
N918   N     0.23240   0.32057   0.42051   0.00000  Uiso   1.00
N919   N     0.92985   0.61460   0.31132   0.00000  Uiso   1.00
N920   N     0.29427   0.11854   0.07321   0.00000  Uiso   1.00
C921   C     0.34078   0.68609   0.13119   0.00000  Uiso   1.00
C922   C     0.38162   0.69577   0.06876   0.00000  Uiso   1.00
C923   C     0.40950   0.66153   0.02903   0.00000  Uiso   1.00
C924   C     0.44509   0.67762   0.97409   0.00000  Uiso   1.00
C925   C     0.50738   0.68525   0.87940   0.00000  Uiso   1.00
C926   C     0.34009   0.71407   0.19179   0.00000  Uiso   1.00
C927   C     0.33305   0.69522   0.25551   0.00000  Uiso   1.00
C928   C     0.33367   0.72673   0.30414   0.00000  Uiso   1.00
C929   C     0.33145   0.76279   0.40047   0.00000  Uiso   1.00
C930   C     0.30998   0.70974   0.11458   0.00000  Uiso   1.00
C931   C     0.27762   0.68726   0.11338   0.00000  Uiso   1.00
C932   C     0.25288   0.71512   0.09701   0.00000  Uiso   1.00
C933   C     0.20392   0.74445   0.07345   0.00000  Uiso   1.00
C934   C     0.35439   0.77556   0.10427   0.00000  Uiso   1.00
C935   C     0.38901   0.74436   0.05414   0.00000  Uiso   1.00
C936   C     0.42456   0.76051   0.99924   0.00000  Uiso   1.00
C937   C     0.45250   0.72630   0.95944   0.00000  Uiso   1.00
C938   C     0.34748   0.76267   0.17717   0.00000  Uiso   1.00
C939   C     0.34811   0.79421   0.22572   0.00000  Uiso   1.00
C940   C     0.34108   0.77541   0.28949   0.00000  Uiso   1.00
C941   C     0.31737   0.75834   0.09995   0.00000  Uiso   1.00
C942   C     0.29268   0.78624   0.08359   0.00000  Uiso   1.00
C943   C     0.26029   0.76380   0.08236   0.00000  Uiso   1.00
H944   H     0.33503   0.64826   0.14258   0.00000  Uiso   1.00
H945   H     0.40377   0.62392   0.04037   0.00000  Uiso   1.00
H946   H     0.32732   0.65762   0.26681   0.00000  Uiso   1.00
H947   H     0.27191   0.64965   0.12470   0.00000  Uiso   1.00
H948   H     0.48325   0.61838   0.92062   0.00000  Uiso   1.00
H949   H     0.32205   0.68942   0.39809   0.00000  Uiso   1.00
H950   H     0.20518   0.67262   0.09843   0.00000  Uiso   1.00
H951   H     0.36015   0.81339   0.09288   0.00000  Uiso   1.00
H952   H     0.93027   0.29812   0.98794   0.00000  Uiso   1.00
H953   H     0.35383   0.83181   0.21438   0.00000  Uiso   1.00
H954   H     0.29841   0.82384   0.07227   0.00000  Uiso   1.00
H955   H     0.00477   0.25976   0.87806   0.00000  Uiso   1.00
H956   H     0.34356   0.83080   0.35554   0.00000  Uiso   1.00
H957   H     0.22669   0.81400   0.05587   0.00000  Uiso   1.00
O958   O     0.53969   0.67604   0.83122   0.00000  Uiso   1.00
O959   O     0.32819   0.76925   0.45765   0.00000  Uiso   1.00
O960   O     0.17487   0.74721   0.06449   0.00000  Uiso   1.00
N961   N     0.47869   0.65375   0.92500   0.00000  Uiso   1.00
N962   N     0.32798   0.72017   0.37140   0.00000  Uiso   1.00
N963   N     0.21871   0.70447   0.09126   0.00000  Uiso   1.00
N964   N     0.49026   0.72982   0.90210   0.00000  Uiso   1.00
N965   N     0.33955   0.79624   0.34850   0.00000  Uiso   1.00
N966   N     0.23029   0.78054   0.06836   0.00000  Uiso   1.00
C967   C     0.86662   0.62865   0.57773   0.00000  Uiso   1.00
C968   C     0.32662   0.10243   0.61334   0.00000  Uiso   1.00
C969   C     0.82029   0.55528   0.60230   0.00000  Uiso   1.00
C970   C     0.78150   0.53791   0.63998   0.00000  Uiso   1.00
C971   C     0.22415   0.99281   0.68816   0.00000  Uiso   1.00
C972   C     0.87417   0.64771   0.63614   0.00000  Uiso   1.00
C973   C     0.90782   0.63862   0.64425   0.00000  Uiso   1.00
C974   C     0.90906   0.65938   0.70112   0.00000  Uiso   1.00
C975   C     0.92554   0.68460   0.78465   0.00000  Uiso   1.00
C976   C     0.35957   0.17214   0.54302   0.00000  Uiso   1.00
C977   C     0.38096   0.18361   0.47284   0.00000  Uiso   1.00
C978   C     0.36991   0.22493   0.45130   0.00000  Uiso   1.00
C979   C     0.36374   0.28809   0.39025   0.00000  Uiso   1.00
C980   C     0.30897   0.18166   0.66428   0.00000  Uiso   1.00
C981   C     0.29531   0.13123   0.66036   0.00000  Uiso   1.00
C982   C     0.25651   0.11393   0.69806   0.00000  Uiso   1.00
C983   C     0.25013   0.06676   0.68707   0.00000  Uiso   1.00
C984   C     0.34286   0.17650   0.68315   0.00000  Uiso   1.00
C985   C     0.34404   0.19728   0.74001   0.00000  Uiso   1.00
C986   C     0.37769   0.18822   0.74821   0.00000  Uiso   1.00
C987   C     0.32826   0.20093   0.59003   0.00000  Uiso   1.00
C988   C     0.31718   0.24226   0.56860   0.00000  Uiso   1.00
C989   C     0.33855   0.25378   0.49840   0.00000  Uiso   1.00
H990   H     0.89100   0.60624   0.54113   0.00000  Uiso   1.00
H991   H     0.84453   0.53300   0.56592   0.00000  Uiso   1.00
H992   H     0.93205   0.61634   0.60786   0.00000  Uiso   1.00
H993   H     0.90519   0.66132   0.43647   0.00000  Uiso   1.00
H994   H     0.77921   0.46451   0.61415   0.00000  Uiso   1.00
H995   H     0.96375   0.64025   0.70258   0.00000  Uiso   1.00
H996   H     0.40712   0.23508   0.34117   0.00000  Uiso   1.00
H997   H     0.28459   0.20408   0.70088   0.00000  Uiso   1.00
H998   H     0.23228   0.13622   0.73443   0.00000  Uiso   1.00
H999   H     0.31980   0.21956   0.77638   0.00000  Uiso   1.00
H1000  H     0.29295   0.26453   0.60499   0.00000  Uiso   1.00
H1001  H     0.18811   0.04828   0.75093   0.00000  Uiso   1.00
H1002  H     0.37265   0.22402   0.83935   0.00000  Uiso   1.00
H1003  H     0.31601   0.31885   0.47795   0.00000  Uiso   1.00
O1004  O     0.20117   0.95998   0.70175   0.00000  Uiso   1.00
O1005  O     0.94329   0.69055   0.81775   0.00000  Uiso   1.00
O1006  O     0.36898   0.31497   0.34359   0.00000  Uiso   1.00
N1007  N     0.76495   0.49354   0.64173   0.00000  Uiso   1.00
N1008  N     0.93748   0.65784   0.72441   0.00000  Uiso   1.00
N1009  N     0.38454   0.24651   0.38652   0.00000  Uiso   1.00
N1010  N     0.21592   0.03862   0.71533   0.00000  Uiso   1.00
N1011  N     0.38846   0.20292   0.79800   0.00000  Uiso   1.00
N1012  N     0.33552   0.29158   0.46012   0.00000  Uiso   1.00
C1013  C     0.32865   0.62803   0.48538   0.00000  Uiso   1.00
C1014  C     0.36036   0.60128   0.42259   0.00000  Uiso   1.00
C1015  C     0.38614   0.62123   0.35855   0.00000  Uiso   1.00
C1016  C     0.41301   0.59076   0.30780   0.00000  Uiso   1.00
C1017  C     0.46211   0.55663   0.20835   0.00000  Uiso   1.00
C1018  C     0.33794   0.61825   0.54522   0.00000  Uiso   1.00
C1019  C     0.34486   0.65248   0.58430   0.00000  Uiso   1.00
C1020  C     0.35286   0.63629   0.63678   0.00000  Uiso   1.00
C1021  C     0.36712   0.62852   0.72776   0.00000  Uiso   1.00
C1022  C     0.28893   0.60315   0.50461   0.00000  Uiso   1.00
C1023  C     0.25464   0.62468   0.50955   0.00000  Uiso   1.00
C1024  C     0.22137   0.59578   0.52786   0.00000  Uiso   1.00
C1025  C     0.15954   0.56457   0.55577   0.00000  Uiso   1.00
C1026  C     0.33053   0.53844   0.50913   0.00000  Uiso   1.00
C1027  C     0.36138   0.55262   0.43549   0.00000  Uiso   1.00
C1028  C     0.38822   0.52211   0.38482   0.00000  Uiso   1.00
C1029  C     0.41403   0.54201   0.32072   0.00000  Uiso   1.00
C1030  C     0.33896   0.56960   0.55812   0.00000  Uiso   1.00
C1031  C     0.34694   0.55336   0.61057   0.00000  Uiso   1.00
C1032  C     0.35388   0.58754   0.64971   0.00000  Uiso   1.00
C1033  C     0.28995   0.55449   0.51750   0.00000  Uiso   1.00
C1034  C     0.25673   0.52556   0.53582   0.00000  Uiso   1.00
C1035  C     0.22239   0.54704   0.54078   0.00000  Uiso   1.00
H1036  H     0.32785   0.66591   0.47534   0.00000  Uiso   1.00
H1037  H     0.38534   0.65889   0.34859   0.00000  Uiso   1.00
H1038  H     0.34407   0.69013   0.57431   0.00000  Uiso   1.00
H1039  H     0.25386   0.66234   0.49957   0.00000  Uiso   1.00
H1040  H     0.44954   0.62965   0.21376   0.00000  Uiso   1.00
H1041  H     0.36250   0.69552   0.68971   0.00000  Uiso   1.00
H1042  H     0.17228   0.63691   0.53211   0.00000  Uiso   1.00
H1043  H     0.33133   0.50055   0.51917   0.00000  Uiso   1.00
H1044  H     0.38901   0.48446   0.39482   0.00000  Uiso   1.00
H1045  H     0.34773   0.51570   0.62053   0.00000  Uiso   1.00
H1046  H     0.25753   0.48791   0.54579   0.00000  Uiso   1.00
H1047  H     0.45252   0.48807   0.25128   0.00000  Uiso   1.00
H1048  H     0.36547   0.55394   0.72723   0.00000  Uiso   1.00
H1049  H     0.17526   0.49534   0.56963   0.00000  Uiso   1.00
O1050  O     0.48892   0.55125   0.14993   0.00000  Uiso   1.00
O1051  O     0.37471   0.63768   0.77437   0.00000  Uiso   1.00
O1052  O     0.12515   0.56079   0.56760   0.00000  Uiso   1.00
N1053  N     0.44232   0.59853   0.23965   0.00000  Uiso   1.00
N1054  N     0.36094   0.66012   0.68463   0.00000  Uiso   1.00
N1055  N     0.18310   0.60533   0.53730   0.00000  Uiso   1.00
N1056  N     0.44392   0.52235   0.25984   0.00000  Uiso   1.00
N1057  N     0.36254   0.58394   0.70481   0.00000  Uiso   1.00
N1058  N     0.18471   0.52915   0.55749   0.00000  Uiso   1.00
C1059  C     0.11966   0.48295   0.95454   0.00000  Uiso   1.00
C1060  C     0.10006   0.53166   0.96346   0.00000  Uiso   1.00
C1061  C     0.07739   0.55483   0.02636   0.00000  Uiso   1.00
C1062  C     0.06206   0.59917   0.02349   0.00000  Uiso   1.00
C1063  C     0.03056   0.67171   0.04701   0.00000  Uiso   1.00
C1064  C     0.16418   0.49032   0.90511   0.00000  Uiso   1.00
C1065  C     0.19542   0.47873   0.91893   0.00000  Uiso   1.00
C1066  C     0.23406   0.48828   0.86693   0.00000  Uiso   1.00
C1067  C     0.30211   0.49661   0.79984   0.00000  Uiso   1.00
C1068  C     0.10370   0.45261   0.91490   0.00000  Uiso   1.00
C1069  C     0.08410   0.40929   0.93695   0.00000  Uiso   1.00
C1070  C     0.07183   0.38707   0.89320   0.00000  Uiso   1.00
C1071  C     0.04598   0.33684   0.84131   0.00000  Uiso   1.00
C1072  C     0.13272   0.52050   0.83761   0.00000  Uiso   1.00
C1073  C     0.10715   0.55206   0.89995   0.00000  Uiso   1.00
C1074  C     0.09184   0.59638   0.89699   0.00000  Uiso   1.00
C1075  C     0.06916   0.61961   0.95987   0.00000  Uiso   1.00
C1076  C     0.17127   0.51072   0.84160   0.00000  Uiso   1.00
C1077  C     0.20988   0.52028   0.78957   0.00000  Uiso   1.00
C1078  C     0.24117   0.50871   0.80331   0.00000  Uiso   1.00
C1079  C     0.11079   0.47300   0.85139   0.00000  Uiso   1.00
C1080  C     0.09856   0.45084   0.80759   0.00000  Uiso   1.00
C1081  C     0.07894   0.40751   0.82957   0.00000  Uiso   1.00
H1082  H     0.11414   0.46707   0.00398   0.00000  Uiso   1.00
H1083  H     0.07191   0.53903   0.07549   0.00000  Uiso   1.00
H1084  H     0.18992   0.46294   0.96808   0.00000  Uiso   1.00
H1085  H     0.07862   0.39352   0.98610   0.00000  Uiso   1.00
H1086  H     0.02824   0.62782   0.12677   0.00000  Uiso   1.00
H1087  H     0.27707   0.46737   0.90028   0.00000  Uiso   1.00
H1088  H     0.04237   0.32097   0.93828   0.00000  Uiso   1.00
H1089  H     0.13825   0.53639   0.78816   0.00000  Uiso   1.00
H1090  H     0.09734   0.61215   0.84783   0.00000  Uiso   1.00
H1091  H     0.21535   0.53607   0.74042   0.00000  Uiso   1.00
H1092  H     0.10405   0.46664   0.75845   0.00000  Uiso   1.00
H1093  H     0.04888   0.68717   0.94200   0.00000  Uiso   1.00
H1094  H     0.29771   0.52671   0.71550   0.00000  Uiso   1.00
H1095  H     0.06301   0.38032   0.75351   0.00000  Uiso   1.00
O1096  O     0.01123   0.70609   0.07753   0.00000  Uiso   1.00
O1097  O     0.33769   0.49558   0.78038   0.00000  Uiso   1.00
O1098  O     0.02976   0.30351   0.83024   0.00000  Uiso   1.00
N1099  N     0.03870   0.63138   0.07510   0.00000  Uiso   1.00
N1100  N     0.27135   0.48138   0.86334   0.00000  Uiso   1.00
N1101  N     0.05193   0.34450   0.89887   0.00000  Uiso   1.00
N1102  N     0.04981   0.66332   0.97567   0.00000  Uiso   1.00
N1103  N     0.28245   0.51331   0.76392   0.00000  Uiso   1.00
N1104  N     0.06304   0.37644   0.79944   0.00000  Uiso   1.00
