data_job_02465
_audit_creation_date              2018-12-19
_audit_creation_method            'Materials Studio'
_symmetry_space_group_name_H-M    'P1'
_symmetry_Int_Tables_number       1
_symmetry_cell_setting            triclinic
loop_
_symmetry_equiv_pos_as_xyz
  x,y,z
_cell_length_a                    20.7324
_cell_length_b                    18.0384
_cell_length_c                    26.0260
_cell_angle_alpha                 90.0000
_cell_angle_beta                  90.0000
_cell_angle_gamma                 90.0000
loop_
_atom_site_label
_atom_site_type_symbol
_atom_site_fract_x
_atom_site_fract_y
_atom_site_fract_z
_atom_site_U_iso_or_equiv
_atom_site_adp_type
_atom_site_occupancy
C1     C     0.30574   0.02020   0.07745   0.00000  Uiso   1.00
C2     C     0.23574   0.04311   0.08592   0.00000  Uiso   1.00
C3     C     0.19299   0.06558   0.04796   0.00000  Uiso   1.00
C4     C     0.13105   0.08429   0.06353   0.00000  Uiso   1.00
C5     C     0.02518   0.12046   0.06882   0.00000  Uiso   1.00
C6     C     0.34611   0.07048   0.11187   0.00000  Uiso   1.00
C7     C     0.39616   0.11595   0.09572   0.00000  Uiso   1.00
C8     C     0.42712   0.15769   0.13315   0.00000  Uiso   1.00
C9     C     0.49263   0.23631   0.17873   0.00000  Uiso   1.00
C10    C     0.31207   0.94239   0.09980   0.00000  Uiso   1.00
C11    C     0.33353   0.88016   0.07351   0.00000  Uiso   1.00
C12    C     0.33585   0.81406   0.10078   0.00000  Uiso   1.00
C13    C     0.34851   0.69380   0.12761   0.00000  Uiso   1.00
C14    C     0.27174   0.01346   0.17263   0.00000  Uiso   1.00
C15    C     0.21728   0.03946   0.13762   0.00000  Uiso   1.00
C16    C     0.15538   0.05813   0.15326   0.00000  Uiso   1.00
C17    C     0.11255   0.08062   0.11532   0.00000  Uiso   1.00
C18    C     0.32764   0.06683   0.16357   0.00000  Uiso   1.00
C19    C     0.35854   0.10850   0.20103   0.00000  Uiso   1.00
C20    C     0.40863   0.15402   0.18494   0.00000  Uiso   1.00
C21    C     0.29360   0.93873   0.15150   0.00000  Uiso   1.00
C22    C     0.29590   0.87271   0.17881   0.00000  Uiso   1.00
C23    C     0.31735   0.81039   0.15257   0.00000  Uiso   1.00
H24    H     0.32012   0.02305   0.03721   0.00000  Uiso   1.00
H25    H     0.20731   0.06841   0.00795   0.00000  Uiso   1.00
H26    H     0.41044   0.11877   0.05572   0.00000  Uiso   1.00
H27    H     0.34781   0.88302   0.03350   0.00000  Uiso   1.00
H28    H     0.07410   0.11711   0.99832   0.00000  Uiso   1.00
H29    H     0.50243   0.22327   0.09903   0.00000  Uiso   1.00
H30    H     0.37037   0.72615   0.05219   0.00000  Uiso   1.00
H31    H     0.25736   0.01062   0.21288   0.00000  Uiso   1.00
H32    H     0.14110   0.05529   0.19327   0.00000  Uiso   1.00
H33    H     0.34424   0.10565   0.24103   0.00000  Uiso   1.00
H34    H     0.28161   0.86990   0.21882   0.00000  Uiso   1.00
H35    H     0.02036   0.10647   0.14873   0.00000  Uiso   1.00
H36    H     0.44871   0.21263   0.24944   0.00000  Uiso   1.00
H37    H     0.31664   0.71550   0.20260   0.00000  Uiso   1.00
O38    O     0.97189   0.14143   0.05745   0.00000  Uiso   1.00
O39    O     0.53386   0.28070   0.18958   0.00000  Uiso   1.00
O40    O     0.36059   0.62848   0.12813   0.00000  Uiso   1.00
N41    N     0.07740   0.10846   0.03641   0.00000  Uiso   1.00
N42    N     0.47786   0.20773   0.13057   0.00000  Uiso   1.00
N43    N     0.35441   0.74296   0.08678   0.00000  Uiso   1.00
N44    N     0.04849   0.10274   0.11734   0.00000  Uiso   1.00
N45    N     0.44895   0.20200   0.21150   0.00000  Uiso   1.00
N46    N     0.32550   0.73723   0.16772   0.00000  Uiso   1.00
C47    C     0.80574   0.52020   0.07745   0.00000  Uiso   1.00
C48    C     0.73574   0.54311   0.08592   0.00000  Uiso   1.00
C49    C     0.69299   0.56558   0.04796   0.00000  Uiso   1.00
C50    C     0.63105   0.58429   0.06353   0.00000  Uiso   1.00
C51    C     0.52518   0.62046   0.06882   0.00000  Uiso   1.00
C52    C     0.84611   0.57048   0.11187   0.00000  Uiso   1.00
C53    C     0.89616   0.61595   0.09572   0.00000  Uiso   1.00
C54    C     0.92712   0.65769   0.13315   0.00000  Uiso   1.00
C55    C     0.99263   0.73631   0.17873   0.00000  Uiso   1.00
C56    C     0.81207   0.44239   0.09980   0.00000  Uiso   1.00
C57    C     0.83353   0.38016   0.07351   0.00000  Uiso   1.00
C58    C     0.83585   0.31406   0.10078   0.00000  Uiso   1.00
C59    C     0.84851   0.19380   0.12761   0.00000  Uiso   1.00
C60    C     0.77174   0.51346   0.17263   0.00000  Uiso   1.00
C61    C     0.71728   0.53946   0.13762   0.00000  Uiso   1.00
C62    C     0.65538   0.55813   0.15326   0.00000  Uiso   1.00
C63    C     0.61255   0.58062   0.11532   0.00000  Uiso   1.00
C64    C     0.82764   0.56683   0.16357   0.00000  Uiso   1.00
C65    C     0.85854   0.60850   0.20103   0.00000  Uiso   1.00
C66    C     0.90863   0.65402   0.18494   0.00000  Uiso   1.00
C67    C     0.79360   0.43873   0.15150   0.00000  Uiso   1.00
C68    C     0.79590   0.37271   0.17881   0.00000  Uiso   1.00
C69    C     0.81735   0.31039   0.15257   0.00000  Uiso   1.00
H70    H     0.82012   0.52305   0.03721   0.00000  Uiso   1.00
H71    H     0.70731   0.56841   0.00795   0.00000  Uiso   1.00
H72    H     0.91044   0.61877   0.05572   0.00000  Uiso   1.00
H73    H     0.84781   0.38302   0.03350   0.00000  Uiso   1.00
H74    H     0.57410   0.61711   0.99832   0.00000  Uiso   1.00
H75    H     0.00243   0.72327   0.09903   0.00000  Uiso   1.00
H76    H     0.87037   0.22615   0.05219   0.00000  Uiso   1.00
H77    H     0.75736   0.51062   0.21288   0.00000  Uiso   1.00
H78    H     0.64110   0.55529   0.19327   0.00000  Uiso   1.00
H79    H     0.84424   0.60565   0.24103   0.00000  Uiso   1.00
H80    H     0.78161   0.36990   0.21882   0.00000  Uiso   1.00
H81    H     0.52036   0.60647   0.14873   0.00000  Uiso   1.00
H82    H     0.94871   0.71263   0.24944   0.00000  Uiso   1.00
H83    H     0.81664   0.21550   0.20260   0.00000  Uiso   1.00
O84    O     0.47189   0.64143   0.05745   0.00000  Uiso   1.00
O85    O     0.03386   0.78070   0.18958   0.00000  Uiso   1.00
O86    O     0.86059   0.12848   0.12813   0.00000  Uiso   1.00
N87    N     0.57740   0.60846   0.03641   0.00000  Uiso   1.00
N88    N     0.97786   0.70773   0.13057   0.00000  Uiso   1.00
N89    N     0.85441   0.24296   0.08678   0.00000  Uiso   1.00
N90    N     0.54849   0.60274   0.11734   0.00000  Uiso   1.00
N91    N     0.94895   0.70200   0.21150   0.00000  Uiso   1.00
N92    N     0.82550   0.23723   0.16772   0.00000  Uiso   1.00
C93    C     0.19426   0.47980   0.07745   0.00000  Uiso   1.00
C94    C     0.26426   0.45689   0.08592   0.00000  Uiso   1.00
C95    C     0.30701   0.43442   0.04796   0.00000  Uiso   1.00
C96    C     0.36895   0.41571   0.06353   0.00000  Uiso   1.00
C97    C     0.47482   0.37954   0.06882   0.00000  Uiso   1.00
C98    C     0.15389   0.42952   0.11187   0.00000  Uiso   1.00
C99    C     0.10384   0.38405   0.09572   0.00000  Uiso   1.00
C100   C     0.07288   0.34231   0.13315   0.00000  Uiso   1.00
C101   C     0.00737   0.26369   0.17873   0.00000  Uiso   1.00
C102   C     0.18793   0.55761   0.09980   0.00000  Uiso   1.00
C103   C     0.16647   0.61984   0.07351   0.00000  Uiso   1.00
C104   C     0.16415   0.68594   0.10078   0.00000  Uiso   1.00
C105   C     0.15149   0.80620   0.12761   0.00000  Uiso   1.00
C106   C     0.22826   0.48654   0.17263   0.00000  Uiso   1.00
C107   C     0.28272   0.46054   0.13762   0.00000  Uiso   1.00
C108   C     0.34462   0.44187   0.15326   0.00000  Uiso   1.00
C109   C     0.38745   0.41938   0.11532   0.00000  Uiso   1.00
C110   C     0.17236   0.43317   0.16357   0.00000  Uiso   1.00
C111   C     0.14146   0.39150   0.20103   0.00000  Uiso   1.00
C112   C     0.09137   0.34598   0.18494   0.00000  Uiso   1.00
C113   C     0.20640   0.56127   0.15150   0.00000  Uiso   1.00
C114   C     0.20410   0.62729   0.17881   0.00000  Uiso   1.00
C115   C     0.18265   0.68961   0.15257   0.00000  Uiso   1.00
H116   H     0.17988   0.47695   0.03721   0.00000  Uiso   1.00
H117   H     0.29269   0.43159   0.00795   0.00000  Uiso   1.00
H118   H     0.08956   0.38123   0.05572   0.00000  Uiso   1.00
H119   H     0.15219   0.61698   0.03350   0.00000  Uiso   1.00
H120   H     0.42590   0.38289   0.99832   0.00000  Uiso   1.00
H121   H     0.99757   0.27673   0.09903   0.00000  Uiso   1.00
H122   H     0.12963   0.77385   0.05219   0.00000  Uiso   1.00
H123   H     0.24264   0.48938   0.21288   0.00000  Uiso   1.00
H124   H     0.35890   0.44471   0.19327   0.00000  Uiso   1.00
H125   H     0.15576   0.39435   0.24103   0.00000  Uiso   1.00
H126   H     0.21839   0.63010   0.21882   0.00000  Uiso   1.00
H127   H     0.47964   0.39353   0.14873   0.00000  Uiso   1.00
H128   H     0.05129   0.28737   0.24944   0.00000  Uiso   1.00
H129   H     0.18336   0.78450   0.20260   0.00000  Uiso   1.00
O130   O     0.52811   0.35857   0.05745   0.00000  Uiso   1.00
O131   O     0.96614   0.21930   0.18958   0.00000  Uiso   1.00
O132   O     0.13941   0.87152   0.12813   0.00000  Uiso   1.00
N133   N     0.42260   0.39154   0.03641   0.00000  Uiso   1.00
N134   N     0.02214   0.29227   0.13057   0.00000  Uiso   1.00
N135   N     0.14559   0.75704   0.08678   0.00000  Uiso   1.00
N136   N     0.45151   0.39726   0.11734   0.00000  Uiso   1.00
N137   N     0.05105   0.29800   0.21150   0.00000  Uiso   1.00
N138   N     0.17450   0.76277   0.16772   0.00000  Uiso   1.00
C139   C     0.69426   0.97980   0.07745   0.00000  Uiso   1.00
C140   C     0.76426   0.95689   0.08592   0.00000  Uiso   1.00
C141   C     0.80701   0.93442   0.04796   0.00000  Uiso   1.00
C142   C     0.86895   0.91571   0.06353   0.00000  Uiso   1.00
C143   C     0.97482   0.87954   0.06882   0.00000  Uiso   1.00
C144   C     0.65389   0.92952   0.11187   0.00000  Uiso   1.00
C145   C     0.60384   0.88405   0.09572   0.00000  Uiso   1.00
C146   C     0.57288   0.84231   0.13315   0.00000  Uiso   1.00
C147   C     0.50737   0.76369   0.17873   0.00000  Uiso   1.00
C148   C     0.68793   0.05761   0.09980   0.00000  Uiso   1.00
C149   C     0.66647   0.11984   0.07351   0.00000  Uiso   1.00
C150   C     0.66415   0.18594   0.10078   0.00000  Uiso   1.00
C151   C     0.65149   0.30620   0.12761   0.00000  Uiso   1.00
C152   C     0.72826   0.98654   0.17263   0.00000  Uiso   1.00
C153   C     0.78272   0.96054   0.13762   0.00000  Uiso   1.00
C154   C     0.84462   0.94187   0.15326   0.00000  Uiso   1.00
C155   C     0.88745   0.91938   0.11532   0.00000  Uiso   1.00
C156   C     0.67236   0.93317   0.16357   0.00000  Uiso   1.00
C157   C     0.64146   0.89150   0.20103   0.00000  Uiso   1.00
C158   C     0.59137   0.84598   0.18494   0.00000  Uiso   1.00
C159   C     0.70640   0.06127   0.15150   0.00000  Uiso   1.00
C160   C     0.70410   0.12729   0.17881   0.00000  Uiso   1.00
C161   C     0.68265   0.18961   0.15257   0.00000  Uiso   1.00
H162   H     0.67988   0.97695   0.03721   0.00000  Uiso   1.00
H163   H     0.79269   0.93159   0.00795   0.00000  Uiso   1.00
H164   H     0.58956   0.88123   0.05572   0.00000  Uiso   1.00
H165   H     0.65219   0.11698   0.03350   0.00000  Uiso   1.00
H166   H     0.92590   0.88289   0.99832   0.00000  Uiso   1.00
H167   H     0.49757   0.77673   0.09903   0.00000  Uiso   1.00
H168   H     0.62963   0.27385   0.05219   0.00000  Uiso   1.00
H169   H     0.74264   0.98938   0.21288   0.00000  Uiso   1.00
H170   H     0.85890   0.94471   0.19327   0.00000  Uiso   1.00
H171   H     0.65576   0.89435   0.24103   0.00000  Uiso   1.00
H172   H     0.71839   0.13010   0.21882   0.00000  Uiso   1.00
H173   H     0.97964   0.89353   0.14873   0.00000  Uiso   1.00
H174   H     0.55129   0.78737   0.24944   0.00000  Uiso   1.00
H175   H     0.68336   0.28450   0.20260   0.00000  Uiso   1.00
O176   O     0.02811   0.85857   0.05745   0.00000  Uiso   1.00
O177   O     0.46614   0.71930   0.18958   0.00000  Uiso   1.00
O178   O     0.63941   0.37152   0.12813   0.00000  Uiso   1.00
N179   N     0.92260   0.89154   0.03641   0.00000  Uiso   1.00
N180   N     0.52214   0.79227   0.13057   0.00000  Uiso   1.00
N181   N     0.64559   0.25704   0.08678   0.00000  Uiso   1.00
N182   N     0.95151   0.89726   0.11734   0.00000  Uiso   1.00
N183   N     0.55105   0.79800   0.21150   0.00000  Uiso   1.00
N184   N     0.67450   0.26277   0.16772   0.00000  Uiso   1.00
C185   C     0.69426   0.02020   0.92255   0.00000  Uiso   1.00
C186   C     0.76426   0.04311   0.91408   0.00000  Uiso   1.00
C187   C     0.80701   0.06558   0.95204   0.00000  Uiso   1.00
C188   C     0.86895   0.08429   0.93647   0.00000  Uiso   1.00
C189   C     0.97482   0.12046   0.93118   0.00000  Uiso   1.00
C190   C     0.65389   0.07048   0.88813   0.00000  Uiso   1.00
C191   C     0.60384   0.11595   0.90428   0.00000  Uiso   1.00
C192   C     0.57288   0.15769   0.86685   0.00000  Uiso   1.00
C193   C     0.50737   0.23631   0.82127   0.00000  Uiso   1.00
C194   C     0.68793   0.94239   0.90020   0.00000  Uiso   1.00
C195   C     0.66647   0.88016   0.92649   0.00000  Uiso   1.00
C196   C     0.66415   0.81406   0.89922   0.00000  Uiso   1.00
C197   C     0.65149   0.69380   0.87239   0.00000  Uiso   1.00
C198   C     0.72826   0.01346   0.82737   0.00000  Uiso   1.00
C199   C     0.78272   0.03946   0.86238   0.00000  Uiso   1.00
C200   C     0.84462   0.05813   0.84674   0.00000  Uiso   1.00
C201   C     0.88745   0.08062   0.88468   0.00000  Uiso   1.00
C202   C     0.67236   0.06683   0.83643   0.00000  Uiso   1.00
C203   C     0.64146   0.10850   0.79897   0.00000  Uiso   1.00
C204   C     0.59137   0.15402   0.81506   0.00000  Uiso   1.00
C205   C     0.70640   0.93873   0.84850   0.00000  Uiso   1.00
C206   C     0.70410   0.87271   0.82119   0.00000  Uiso   1.00
C207   C     0.68265   0.81039   0.84743   0.00000  Uiso   1.00
H208   H     0.67988   0.02305   0.96279   0.00000  Uiso   1.00
H209   H     0.79269   0.06841   0.99205   0.00000  Uiso   1.00
H210   H     0.58956   0.11877   0.94428   0.00000  Uiso   1.00
H211   H     0.65219   0.88302   0.96650   0.00000  Uiso   1.00
H212   H     0.92590   0.11711   0.00168   0.00000  Uiso   1.00
H213   H     0.49757   0.22327   0.90097   0.00000  Uiso   1.00
H214   H     0.62963   0.72615   0.94781   0.00000  Uiso   1.00
H215   H     0.74264   0.01062   0.78712   0.00000  Uiso   1.00
H216   H     0.85890   0.05529   0.80673   0.00000  Uiso   1.00
H217   H     0.65576   0.10565   0.75897   0.00000  Uiso   1.00
H218   H     0.71839   0.86990   0.78118   0.00000  Uiso   1.00
H219   H     0.97964   0.10647   0.85127   0.00000  Uiso   1.00
H220   H     0.55129   0.21263   0.75056   0.00000  Uiso   1.00
H221   H     0.68336   0.71550   0.79740   0.00000  Uiso   1.00
O222   O     0.02811   0.14143   0.94255   0.00000  Uiso   1.00
O223   O     0.46614   0.28070   0.81042   0.00000  Uiso   1.00
O224   O     0.63941   0.62848   0.87187   0.00000  Uiso   1.00
N225   N     0.92260   0.10846   0.96359   0.00000  Uiso   1.00
N226   N     0.52214   0.20773   0.86943   0.00000  Uiso   1.00
N227   N     0.64559   0.74296   0.91322   0.00000  Uiso   1.00
N228   N     0.95151   0.10274   0.88266   0.00000  Uiso   1.00
N229   N     0.55105   0.20200   0.78850   0.00000  Uiso   1.00
N230   N     0.67450   0.73723   0.83228   0.00000  Uiso   1.00
C231   C     0.19426   0.52020   0.92255   0.00000  Uiso   1.00
C232   C     0.26426   0.54311   0.91408   0.00000  Uiso   1.00
C233   C     0.30701   0.56558   0.95204   0.00000  Uiso   1.00
C234   C     0.36895   0.58429   0.93647   0.00000  Uiso   1.00
C235   C     0.47482   0.62046   0.93118   0.00000  Uiso   1.00
C236   C     0.15389   0.57048   0.88813   0.00000  Uiso   1.00
C237   C     0.10384   0.61595   0.90428   0.00000  Uiso   1.00
C238   C     0.07288   0.65769   0.86685   0.00000  Uiso   1.00
C239   C     0.00737   0.73631   0.82127   0.00000  Uiso   1.00
C240   C     0.18793   0.44239   0.90020   0.00000  Uiso   1.00
C241   C     0.16647   0.38016   0.92649   0.00000  Uiso   1.00
C242   C     0.16415   0.31406   0.89922   0.00000  Uiso   1.00
C243   C     0.15149   0.19380   0.87239   0.00000  Uiso   1.00
C244   C     0.22826   0.51346   0.82737   0.00000  Uiso   1.00
C245   C     0.28272   0.53946   0.86238   0.00000  Uiso   1.00
C246   C     0.34462   0.55813   0.84674   0.00000  Uiso   1.00
C247   C     0.38745   0.58062   0.88468   0.00000  Uiso   1.00
C248   C     0.17236   0.56683   0.83643   0.00000  Uiso   1.00
C249   C     0.14146   0.60850   0.79897   0.00000  Uiso   1.00
C250   C     0.09137   0.65402   0.81506   0.00000  Uiso   1.00
C251   C     0.20640   0.43873   0.84850   0.00000  Uiso   1.00
C252   C     0.20410   0.37271   0.82119   0.00000  Uiso   1.00
C253   C     0.18265   0.31039   0.84743   0.00000  Uiso   1.00
H254   H     0.17988   0.52305   0.96279   0.00000  Uiso   1.00
H255   H     0.29269   0.56841   0.99205   0.00000  Uiso   1.00
H256   H     0.08956   0.61877   0.94428   0.00000  Uiso   1.00
H257   H     0.15219   0.38302   0.96650   0.00000  Uiso   1.00
H258   H     0.42590   0.61711   0.00168   0.00000  Uiso   1.00
H259   H     0.99757   0.72327   0.90097   0.00000  Uiso   1.00
H260   H     0.12963   0.22615   0.94781   0.00000  Uiso   1.00
H261   H     0.24264   0.51062   0.78712   0.00000  Uiso   1.00
H262   H     0.35890   0.55529   0.80673   0.00000  Uiso   1.00
H263   H     0.15576   0.60565   0.75897   0.00000  Uiso   1.00
H264   H     0.21839   0.36990   0.78118   0.00000  Uiso   1.00
H265   H     0.47964   0.60647   0.85127   0.00000  Uiso   1.00
H266   H     0.05129   0.71263   0.75056   0.00000  Uiso   1.00
H267   H     0.18336   0.21550   0.79740   0.00000  Uiso   1.00
O268   O     0.52811   0.64143   0.94255   0.00000  Uiso   1.00
O269   O     0.96614   0.78070   0.81042   0.00000  Uiso   1.00
O270   O     0.13941   0.12848   0.87187   0.00000  Uiso   1.00
N271   N     0.42260   0.60846   0.96359   0.00000  Uiso   1.00
N272   N     0.02214   0.70773   0.86943   0.00000  Uiso   1.00
N273   N     0.14559   0.24296   0.91322   0.00000  Uiso   1.00
N274   N     0.45151   0.60274   0.88266   0.00000  Uiso   1.00
N275   N     0.05105   0.70200   0.78850   0.00000  Uiso   1.00
N276   N     0.17450   0.23723   0.83228   0.00000  Uiso   1.00
C277   C     0.80574   0.47980   0.92255   0.00000  Uiso   1.00
C278   C     0.73574   0.45689   0.91408   0.00000  Uiso   1.00
C279   C     0.69299   0.43442   0.95204   0.00000  Uiso   1.00
C280   C     0.63105   0.41571   0.93647   0.00000  Uiso   1.00
C281   C     0.52518   0.37954   0.93118   0.00000  Uiso   1.00
C282   C     0.84611   0.42952   0.88813   0.00000  Uiso   1.00
C283   C     0.89616   0.38405   0.90428   0.00000  Uiso   1.00
C284   C     0.92712   0.34231   0.86685   0.00000  Uiso   1.00
C285   C     0.99263   0.26369   0.82127   0.00000  Uiso   1.00
C286   C     0.81207   0.55761   0.90020   0.00000  Uiso   1.00
C287   C     0.83353   0.61984   0.92649   0.00000  Uiso   1.00
C288   C     0.83585   0.68594   0.89922   0.00000  Uiso   1.00
C289   C     0.84851   0.80620   0.87239   0.00000  Uiso   1.00
C290   C     0.77174   0.48654   0.82737   0.00000  Uiso   1.00
C291   C     0.71728   0.46054   0.86238   0.00000  Uiso   1.00
C292   C     0.65538   0.44187   0.84674   0.00000  Uiso   1.00
C293   C     0.61255   0.41938   0.88468   0.00000  Uiso   1.00
C294   C     0.82764   0.43317   0.83643   0.00000  Uiso   1.00
C295   C     0.85854   0.39150   0.79897   0.00000  Uiso   1.00
C296   C     0.90863   0.34598   0.81506   0.00000  Uiso   1.00
C297   C     0.79360   0.56127   0.84850   0.00000  Uiso   1.00
C298   C     0.79590   0.62729   0.82119   0.00000  Uiso   1.00
C299   C     0.81735   0.68961   0.84743   0.00000  Uiso   1.00
H300   H     0.82012   0.47695   0.96279   0.00000  Uiso   1.00
H301   H     0.70731   0.43159   0.99205   0.00000  Uiso   1.00
H302   H     0.91044   0.38123   0.94428   0.00000  Uiso   1.00
H303   H     0.84781   0.61698   0.96650   0.00000  Uiso   1.00
H304   H     0.57410   0.38289   0.00168   0.00000  Uiso   1.00
H305   H     0.00243   0.27673   0.90097   0.00000  Uiso   1.00
H306   H     0.87037   0.77385   0.94781   0.00000  Uiso   1.00
H307   H     0.75736   0.48938   0.78712   0.00000  Uiso   1.00
H308   H     0.64110   0.44471   0.80673   0.00000  Uiso   1.00
H309   H     0.84424   0.39435   0.75897   0.00000  Uiso   1.00
H310   H     0.78161   0.63010   0.78118   0.00000  Uiso   1.00
H311   H     0.52036   0.39353   0.85127   0.00000  Uiso   1.00
H312   H     0.94871   0.28737   0.75056   0.00000  Uiso   1.00
H313   H     0.81664   0.78450   0.79740   0.00000  Uiso   1.00
O314   O     0.47189   0.35857   0.94255   0.00000  Uiso   1.00
O315   O     0.03386   0.21930   0.81042   0.00000  Uiso   1.00
O316   O     0.86059   0.87152   0.87187   0.00000  Uiso   1.00
N317   N     0.57740   0.39154   0.96359   0.00000  Uiso   1.00
N318   N     0.97786   0.29227   0.86943   0.00000  Uiso   1.00
N319   N     0.85441   0.75704   0.91322   0.00000  Uiso   1.00
N320   N     0.54849   0.39726   0.88266   0.00000  Uiso   1.00
N321   N     0.94895   0.29800   0.78850   0.00000  Uiso   1.00
N322   N     0.82550   0.76277   0.83228   0.00000  Uiso   1.00
C323   C     0.30574   0.97980   0.92255   0.00000  Uiso   1.00
C324   C     0.23574   0.95689   0.91408   0.00000  Uiso   1.00
C325   C     0.19299   0.93442   0.95204   0.00000  Uiso   1.00
C326   C     0.13105   0.91571   0.93647   0.00000  Uiso   1.00
C327   C     0.02518   0.87954   0.93118   0.00000  Uiso   1.00
C328   C     0.34611   0.92952   0.88813   0.00000  Uiso   1.00
C329   C     0.39616   0.88405   0.90428   0.00000  Uiso   1.00
C330   C     0.42712   0.84231   0.86685   0.00000  Uiso   1.00
C331   C     0.49263   0.76369   0.82127   0.00000  Uiso   1.00
C332   C     0.31207   0.05761   0.90020   0.00000  Uiso   1.00
C333   C     0.33353   0.11984   0.92649   0.00000  Uiso   1.00
C334   C     0.33585   0.18594   0.89922   0.00000  Uiso   1.00
C335   C     0.34851   0.30620   0.87239   0.00000  Uiso   1.00
C336   C     0.27174   0.98654   0.82737   0.00000  Uiso   1.00
C337   C     0.21728   0.96054   0.86238   0.00000  Uiso   1.00
C338   C     0.15538   0.94187   0.84674   0.00000  Uiso   1.00
C339   C     0.11255   0.91938   0.88468   0.00000  Uiso   1.00
C340   C     0.32764   0.93317   0.83643   0.00000  Uiso   1.00
C341   C     0.35854   0.89150   0.79897   0.00000  Uiso   1.00
C342   C     0.40863   0.84598   0.81506   0.00000  Uiso   1.00
C343   C     0.29360   0.06127   0.84850   0.00000  Uiso   1.00
C344   C     0.29590   0.12729   0.82119   0.00000  Uiso   1.00
C345   C     0.31735   0.18961   0.84743   0.00000  Uiso   1.00
H346   H     0.32012   0.97695   0.96279   0.00000  Uiso   1.00
H347   H     0.20731   0.93159   0.99205   0.00000  Uiso   1.00
H348   H     0.41044   0.88123   0.94428   0.00000  Uiso   1.00
H349   H     0.34781   0.11698   0.96650   0.00000  Uiso   1.00
H350   H     0.07410   0.88289   0.00168   0.00000  Uiso   1.00
H351   H     0.50243   0.77673   0.90097   0.00000  Uiso   1.00
H352   H     0.37037   0.27385   0.94781   0.00000  Uiso   1.00
H353   H     0.25736   0.98938   0.78712   0.00000  Uiso   1.00
H354   H     0.14110   0.94471   0.80673   0.00000  Uiso   1.00
H355   H     0.34424   0.89435   0.75897   0.00000  Uiso   1.00
H356   H     0.28161   0.13010   0.78118   0.00000  Uiso   1.00
H357   H     0.02036   0.89353   0.85127   0.00000  Uiso   1.00
H358   H     0.44871   0.78737   0.75056   0.00000  Uiso   1.00
H359   H     0.31664   0.28450   0.79740   0.00000  Uiso   1.00
O360   O     0.97189   0.85857   0.94255   0.00000  Uiso   1.00
O361   O     0.53386   0.71930   0.81042   0.00000  Uiso   1.00
O362   O     0.36059   0.37152   0.87187   0.00000  Uiso   1.00
N363   N     0.07740   0.89154   0.96359   0.00000  Uiso   1.00
N364   N     0.47786   0.79227   0.86943   0.00000  Uiso   1.00
N365   N     0.35441   0.25704   0.91322   0.00000  Uiso   1.00
N366   N     0.04849   0.89726   0.88266   0.00000  Uiso   1.00
N367   N     0.44895   0.79800   0.78850   0.00000  Uiso   1.00
N368   N     0.32550   0.26277   0.83228   0.00000  Uiso   1.00
C369   C     0.69426   0.47980   0.42255   0.00000  Uiso   1.00
C370   C     0.76426   0.45689   0.41408   0.00000  Uiso   1.00
C371   C     0.80701   0.43442   0.45204   0.00000  Uiso   1.00
C372   C     0.86895   0.41571   0.43647   0.00000  Uiso   1.00
C373   C     0.97482   0.37954   0.43118   0.00000  Uiso   1.00
C374   C     0.65389   0.42952   0.38813   0.00000  Uiso   1.00
C375   C     0.60384   0.38405   0.40428   0.00000  Uiso   1.00
C376   C     0.57288   0.34231   0.36685   0.00000  Uiso   1.00
C377   C     0.50737   0.26369   0.32127   0.00000  Uiso   1.00
C378   C     0.68793   0.55761   0.40020   0.00000  Uiso   1.00
C379   C     0.66647   0.61984   0.42649   0.00000  Uiso   1.00
C380   C     0.66415   0.68594   0.39922   0.00000  Uiso   1.00
C381   C     0.65149   0.80620   0.37239   0.00000  Uiso   1.00
C382   C     0.72826   0.48654   0.32737   0.00000  Uiso   1.00
C383   C     0.78272   0.46054   0.36238   0.00000  Uiso   1.00
C384   C     0.84462   0.44187   0.34674   0.00000  Uiso   1.00
C385   C     0.88745   0.41938   0.38468   0.00000  Uiso   1.00
C386   C     0.67236   0.43317   0.33643   0.00000  Uiso   1.00
C387   C     0.64146   0.39150   0.29897   0.00000  Uiso   1.00
C388   C     0.59137   0.34598   0.31506   0.00000  Uiso   1.00
C389   C     0.70640   0.56127   0.34850   0.00000  Uiso   1.00
C390   C     0.70410   0.62729   0.32119   0.00000  Uiso   1.00
C391   C     0.68265   0.68961   0.34743   0.00000  Uiso   1.00
H392   H     0.67988   0.47695   0.46279   0.00000  Uiso   1.00
H393   H     0.79269   0.43159   0.49205   0.00000  Uiso   1.00
H394   H     0.58956   0.38123   0.44428   0.00000  Uiso   1.00
H395   H     0.65219   0.61698   0.46650   0.00000  Uiso   1.00
H396   H     0.92590   0.38289   0.50168   0.00000  Uiso   1.00
H397   H     0.49757   0.27673   0.40097   0.00000  Uiso   1.00
H398   H     0.62963   0.77385   0.44781   0.00000  Uiso   1.00
H399   H     0.74264   0.48938   0.28712   0.00000  Uiso   1.00
H400   H     0.85890   0.44471   0.30673   0.00000  Uiso   1.00
H401   H     0.65576   0.39435   0.25897   0.00000  Uiso   1.00
H402   H     0.71839   0.63010   0.28118   0.00000  Uiso   1.00
H403   H     0.97964   0.39353   0.35127   0.00000  Uiso   1.00
H404   H     0.55129   0.28737   0.25056   0.00000  Uiso   1.00
H405   H     0.68336   0.78450   0.29740   0.00000  Uiso   1.00
O406   O     0.02811   0.35857   0.44255   0.00000  Uiso   1.00
O407   O     0.46614   0.21930   0.31042   0.00000  Uiso   1.00
O408   O     0.63941   0.87152   0.37187   0.00000  Uiso   1.00
N409   N     0.92260   0.39154   0.46359   0.00000  Uiso   1.00
N410   N     0.52214   0.29227   0.36943   0.00000  Uiso   1.00
N411   N     0.64559   0.75704   0.41322   0.00000  Uiso   1.00
N412   N     0.95151   0.39726   0.38266   0.00000  Uiso   1.00
N413   N     0.55105   0.29800   0.28850   0.00000  Uiso   1.00
N414   N     0.67450   0.76277   0.33228   0.00000  Uiso   1.00
C415   C     0.19426   0.97980   0.42255   0.00000  Uiso   1.00
C416   C     0.26426   0.95689   0.41408   0.00000  Uiso   1.00
C417   C     0.30701   0.93442   0.45204   0.00000  Uiso   1.00
C418   C     0.36895   0.91571   0.43647   0.00000  Uiso   1.00
C419   C     0.47482   0.87954   0.43118   0.00000  Uiso   1.00
C420   C     0.15389   0.92952   0.38813   0.00000  Uiso   1.00
C421   C     0.10384   0.88405   0.40428   0.00000  Uiso   1.00
C422   C     0.07288   0.84231   0.36685   0.00000  Uiso   1.00
C423   C     0.00737   0.76369   0.32127   0.00000  Uiso   1.00
C424   C     0.18793   0.05761   0.40020   0.00000  Uiso   1.00
C425   C     0.16647   0.11984   0.42649   0.00000  Uiso   1.00
C426   C     0.16415   0.18594   0.39922   0.00000  Uiso   1.00
C427   C     0.15149   0.30620   0.37239   0.00000  Uiso   1.00
C428   C     0.22826   0.98654   0.32737   0.00000  Uiso   1.00
C429   C     0.28272   0.96054   0.36238   0.00000  Uiso   1.00
C430   C     0.34462   0.94187   0.34674   0.00000  Uiso   1.00
C431   C     0.38745   0.91938   0.38468   0.00000  Uiso   1.00
C432   C     0.17236   0.93317   0.33643   0.00000  Uiso   1.00
C433   C     0.14146   0.89150   0.29897   0.00000  Uiso   1.00
C434   C     0.09137   0.84598   0.31506   0.00000  Uiso   1.00
C435   C     0.20640   0.06127   0.34850   0.00000  Uiso   1.00
C436   C     0.20410   0.12729   0.32119   0.00000  Uiso   1.00
C437   C     0.18265   0.18961   0.34743   0.00000  Uiso   1.00
H438   H     0.17988   0.97695   0.46279   0.00000  Uiso   1.00
H439   H     0.29269   0.93159   0.49205   0.00000  Uiso   1.00
H440   H     0.08956   0.88123   0.44428   0.00000  Uiso   1.00
H441   H     0.15219   0.11698   0.46650   0.00000  Uiso   1.00
H442   H     0.42590   0.88289   0.50168   0.00000  Uiso   1.00
H443   H     0.99757   0.77673   0.40097   0.00000  Uiso   1.00
H444   H     0.12963   0.27385   0.44781   0.00000  Uiso   1.00
H445   H     0.24264   0.98938   0.28712   0.00000  Uiso   1.00
H446   H     0.35890   0.94471   0.30673   0.00000  Uiso   1.00
H447   H     0.15576   0.89435   0.25897   0.00000  Uiso   1.00
H448   H     0.21839   0.13010   0.28118   0.00000  Uiso   1.00
H449   H     0.47964   0.89353   0.35127   0.00000  Uiso   1.00
H450   H     0.05129   0.78737   0.25056   0.00000  Uiso   1.00
H451   H     0.18336   0.28450   0.29740   0.00000  Uiso   1.00
O452   O     0.52811   0.85857   0.44255   0.00000  Uiso   1.00
O453   O     0.96614   0.71930   0.31042   0.00000  Uiso   1.00
O454   O     0.13941   0.37152   0.37187   0.00000  Uiso   1.00
N455   N     0.42260   0.89154   0.46359   0.00000  Uiso   1.00
N456   N     0.02214   0.79227   0.36943   0.00000  Uiso   1.00
N457   N     0.14559   0.25704   0.41322   0.00000  Uiso   1.00
N458   N     0.45151   0.89726   0.38266   0.00000  Uiso   1.00
N459   N     0.05105   0.79800   0.28850   0.00000  Uiso   1.00
N460   N     0.17450   0.26277   0.33228   0.00000  Uiso   1.00
C461   C     0.80574   0.02020   0.42255   0.00000  Uiso   1.00
C462   C     0.73574   0.04311   0.41408   0.00000  Uiso   1.00
C463   C     0.69299   0.06558   0.45204   0.00000  Uiso   1.00
C464   C     0.63105   0.08429   0.43647   0.00000  Uiso   1.00
C465   C     0.52518   0.12046   0.43118   0.00000  Uiso   1.00
C466   C     0.84611   0.07048   0.38813   0.00000  Uiso   1.00
C467   C     0.89616   0.11595   0.40428   0.00000  Uiso   1.00
C468   C     0.92712   0.15769   0.36685   0.00000  Uiso   1.00
C469   C     0.99263   0.23631   0.32127   0.00000  Uiso   1.00
C470   C     0.81207   0.94239   0.40020   0.00000  Uiso   1.00
C471   C     0.83353   0.88016   0.42649   0.00000  Uiso   1.00
C472   C     0.83585   0.81406   0.39922   0.00000  Uiso   1.00
C473   C     0.84851   0.69380   0.37239   0.00000  Uiso   1.00
C474   C     0.77174   0.01346   0.32737   0.00000  Uiso   1.00
C475   C     0.71728   0.03946   0.36238   0.00000  Uiso   1.00
C476   C     0.65538   0.05813   0.34674   0.00000  Uiso   1.00
C477   C     0.61255   0.08062   0.38468   0.00000  Uiso   1.00
C478   C     0.82764   0.06683   0.33643   0.00000  Uiso   1.00
C479   C     0.85854   0.10850   0.29897   0.00000  Uiso   1.00
C480   C     0.90863   0.15402   0.31506   0.00000  Uiso   1.00
C481   C     0.79360   0.93873   0.34850   0.00000  Uiso   1.00
C482   C     0.79590   0.87271   0.32119   0.00000  Uiso   1.00
C483   C     0.81735   0.81039   0.34743   0.00000  Uiso   1.00
H484   H     0.82012   0.02305   0.46279   0.00000  Uiso   1.00
H485   H     0.70731   0.06841   0.49205   0.00000  Uiso   1.00
H486   H     0.91044   0.11877   0.44428   0.00000  Uiso   1.00
H487   H     0.84781   0.88302   0.46650   0.00000  Uiso   1.00
H488   H     0.57410   0.11711   0.50168   0.00000  Uiso   1.00
H489   H     0.00243   0.22327   0.40097   0.00000  Uiso   1.00
H490   H     0.87037   0.72615   0.44781   0.00000  Uiso   1.00
H491   H     0.75736   0.01062   0.28712   0.00000  Uiso   1.00
H492   H     0.64110   0.05529   0.30673   0.00000  Uiso   1.00
H493   H     0.84424   0.10565   0.25897   0.00000  Uiso   1.00
H494   H     0.78161   0.86990   0.28118   0.00000  Uiso   1.00
H495   H     0.52036   0.10647   0.35127   0.00000  Uiso   1.00
H496   H     0.94871   0.21263   0.25056   0.00000  Uiso   1.00
H497   H     0.81664   0.71550   0.29740   0.00000  Uiso   1.00
O498   O     0.47189   0.14143   0.44255   0.00000  Uiso   1.00
O499   O     0.03386   0.28070   0.31042   0.00000  Uiso   1.00
O500   O     0.86059   0.62848   0.37187   0.00000  Uiso   1.00
N501   N     0.57740   0.10846   0.46359   0.00000  Uiso   1.00
N502   N     0.97786   0.20773   0.36943   0.00000  Uiso   1.00
N503   N     0.85441   0.74296   0.41322   0.00000  Uiso   1.00
N504   N     0.54849   0.10274   0.38266   0.00000  Uiso   1.00
N505   N     0.94895   0.20200   0.28850   0.00000  Uiso   1.00
N506   N     0.82550   0.73723   0.33228   0.00000  Uiso   1.00
C507   C     0.30574   0.52020   0.42255   0.00000  Uiso   1.00
C508   C     0.23574   0.54311   0.41408   0.00000  Uiso   1.00
C509   C     0.19299   0.56558   0.45204   0.00000  Uiso   1.00
C510   C     0.13105   0.58429   0.43647   0.00000  Uiso   1.00
C511   C     0.02518   0.62046   0.43118   0.00000  Uiso   1.00
C512   C     0.34611   0.57048   0.38813   0.00000  Uiso   1.00
C513   C     0.39616   0.61595   0.40428   0.00000  Uiso   1.00
C514   C     0.42712   0.65769   0.36685   0.00000  Uiso   1.00
C515   C     0.49263   0.73631   0.32127   0.00000  Uiso   1.00
C516   C     0.31207   0.44239   0.40020   0.00000  Uiso   1.00
C517   C     0.33353   0.38016   0.42649   0.00000  Uiso   1.00
C518   C     0.33585   0.31406   0.39922   0.00000  Uiso   1.00
C519   C     0.34851   0.19380   0.37239   0.00000  Uiso   1.00
C520   C     0.27174   0.51346   0.32737   0.00000  Uiso   1.00
C521   C     0.21728   0.53946   0.36238   0.00000  Uiso   1.00
C522   C     0.15538   0.55813   0.34674   0.00000  Uiso   1.00
C523   C     0.11255   0.58062   0.38468   0.00000  Uiso   1.00
C524   C     0.32764   0.56683   0.33643   0.00000  Uiso   1.00
C525   C     0.35854   0.60850   0.29897   0.00000  Uiso   1.00
C526   C     0.40863   0.65402   0.31506   0.00000  Uiso   1.00
C527   C     0.29360   0.43873   0.34850   0.00000  Uiso   1.00
C528   C     0.29590   0.37271   0.32119   0.00000  Uiso   1.00
C529   C     0.31735   0.31039   0.34743   0.00000  Uiso   1.00
H530   H     0.32012   0.52305   0.46279   0.00000  Uiso   1.00
H531   H     0.20731   0.56841   0.49205   0.00000  Uiso   1.00
H532   H     0.41044   0.61877   0.44428   0.00000  Uiso   1.00
H533   H     0.34781   0.38302   0.46650   0.00000  Uiso   1.00
H534   H     0.07410   0.61711   0.50168   0.00000  Uiso   1.00
H535   H     0.50243   0.72327   0.40097   0.00000  Uiso   1.00
H536   H     0.37037   0.22615   0.44781   0.00000  Uiso   1.00
H537   H     0.25736   0.51062   0.28712   0.00000  Uiso   1.00
H538   H     0.14110   0.55529   0.30673   0.00000  Uiso   1.00
H539   H     0.34424   0.60565   0.25897   0.00000  Uiso   1.00
H540   H     0.28161   0.36990   0.28118   0.00000  Uiso   1.00
H541   H     0.02036   0.60647   0.35127   0.00000  Uiso   1.00
H542   H     0.44871   0.71263   0.25056   0.00000  Uiso   1.00
H543   H     0.31664   0.21550   0.29740   0.00000  Uiso   1.00
O544   O     0.97189   0.64143   0.44255   0.00000  Uiso   1.00
O545   O     0.53386   0.78070   0.31042   0.00000  Uiso   1.00
O546   O     0.36059   0.12848   0.37187   0.00000  Uiso   1.00
N547   N     0.07740   0.60846   0.46359   0.00000  Uiso   1.00
N548   N     0.47786   0.70773   0.36943   0.00000  Uiso   1.00
N549   N     0.35441   0.24296   0.41322   0.00000  Uiso   1.00
N550   N     0.04849   0.60274   0.38266   0.00000  Uiso   1.00
N551   N     0.44895   0.70200   0.28850   0.00000  Uiso   1.00
N552   N     0.32550   0.23723   0.33228   0.00000  Uiso   1.00
C553   C     0.30574   0.47980   0.57745   0.00000  Uiso   1.00
C554   C     0.23574   0.45689   0.58592   0.00000  Uiso   1.00
C555   C     0.19299   0.43442   0.54796   0.00000  Uiso   1.00
C556   C     0.13105   0.41571   0.56353   0.00000  Uiso   1.00
C557   C     0.02518   0.37954   0.56882   0.00000  Uiso   1.00
C558   C     0.34611   0.42952   0.61187   0.00000  Uiso   1.00
C559   C     0.39616   0.38405   0.59572   0.00000  Uiso   1.00
C560   C     0.42712   0.34231   0.63315   0.00000  Uiso   1.00
C561   C     0.49263   0.26369   0.67873   0.00000  Uiso   1.00
C562   C     0.31207   0.55761   0.59980   0.00000  Uiso   1.00
C563   C     0.33353   0.61984   0.57351   0.00000  Uiso   1.00
C564   C     0.33585   0.68594   0.60078   0.00000  Uiso   1.00
C565   C     0.34851   0.80620   0.62761   0.00000  Uiso   1.00
C566   C     0.27174   0.48654   0.67263   0.00000  Uiso   1.00
C567   C     0.21728   0.46054   0.63762   0.00000  Uiso   1.00
C568   C     0.15538   0.44187   0.65326   0.00000  Uiso   1.00
C569   C     0.11255   0.41938   0.61532   0.00000  Uiso   1.00
C570   C     0.32764   0.43317   0.66357   0.00000  Uiso   1.00
C571   C     0.35854   0.39150   0.70103   0.00000  Uiso   1.00
C572   C     0.40863   0.34598   0.68494   0.00000  Uiso   1.00
C573   C     0.29360   0.56127   0.65150   0.00000  Uiso   1.00
C574   C     0.29590   0.62729   0.67881   0.00000  Uiso   1.00
C575   C     0.31735   0.68961   0.65257   0.00000  Uiso   1.00
H576   H     0.32012   0.47695   0.53721   0.00000  Uiso   1.00
H577   H     0.20731   0.43159   0.50795   0.00000  Uiso   1.00
H578   H     0.41044   0.38123   0.55572   0.00000  Uiso   1.00
H579   H     0.34781   0.61698   0.53350   0.00000  Uiso   1.00
H580   H     0.07410   0.38289   0.49832   0.00000  Uiso   1.00
H581   H     0.50243   0.27673   0.59903   0.00000  Uiso   1.00
H582   H     0.37037   0.77385   0.55219   0.00000  Uiso   1.00
H583   H     0.25736   0.48938   0.71288   0.00000  Uiso   1.00
H584   H     0.14110   0.44471   0.69327   0.00000  Uiso   1.00
H585   H     0.34424   0.39435   0.74103   0.00000  Uiso   1.00
H586   H     0.28161   0.63010   0.71882   0.00000  Uiso   1.00
H587   H     0.02036   0.39353   0.64873   0.00000  Uiso   1.00
H588   H     0.44871   0.28737   0.74944   0.00000  Uiso   1.00
H589   H     0.31664   0.78450   0.70260   0.00000  Uiso   1.00
O590   O     0.97189   0.35857   0.55745   0.00000  Uiso   1.00
O591   O     0.53386   0.21930   0.68958   0.00000  Uiso   1.00
O592   O     0.36059   0.87152   0.62813   0.00000  Uiso   1.00
N593   N     0.07740   0.39154   0.53641   0.00000  Uiso   1.00
N594   N     0.47786   0.29227   0.63057   0.00000  Uiso   1.00
N595   N     0.35441   0.75704   0.58678   0.00000  Uiso   1.00
N596   N     0.04849   0.39726   0.61734   0.00000  Uiso   1.00
N597   N     0.44895   0.29800   0.71150   0.00000  Uiso   1.00
N598   N     0.32550   0.76277   0.66772   0.00000  Uiso   1.00
C599   C     0.80574   0.97980   0.57745   0.00000  Uiso   1.00
C600   C     0.73574   0.95689   0.58592   0.00000  Uiso   1.00
C601   C     0.69299   0.93442   0.54796   0.00000  Uiso   1.00
C602   C     0.63105   0.91571   0.56353   0.00000  Uiso   1.00
C603   C     0.52518   0.87954   0.56882   0.00000  Uiso   1.00
C604   C     0.84611   0.92952   0.61187   0.00000  Uiso   1.00
C605   C     0.89616   0.88405   0.59572   0.00000  Uiso   1.00
C606   C     0.92712   0.84231   0.63315   0.00000  Uiso   1.00
C607   C     0.99263   0.76369   0.67873   0.00000  Uiso   1.00
C608   C     0.81207   0.05761   0.59980   0.00000  Uiso   1.00
C609   C     0.83353   0.11984   0.57351   0.00000  Uiso   1.00
C610   C     0.83585   0.18594   0.60078   0.00000  Uiso   1.00
C611   C     0.84851   0.30620   0.62761   0.00000  Uiso   1.00
C612   C     0.77174   0.98654   0.67263   0.00000  Uiso   1.00
C613   C     0.71728   0.96054   0.63762   0.00000  Uiso   1.00
C614   C     0.65538   0.94187   0.65326   0.00000  Uiso   1.00
C615   C     0.61255   0.91938   0.61532   0.00000  Uiso   1.00
C616   C     0.82764   0.93317   0.66357   0.00000  Uiso   1.00
C617   C     0.85854   0.89150   0.70103   0.00000  Uiso   1.00
C618   C     0.90863   0.84598   0.68494   0.00000  Uiso   1.00
C619   C     0.79360   0.06127   0.65150   0.00000  Uiso   1.00
C620   C     0.79590   0.12729   0.67881   0.00000  Uiso   1.00
C621   C     0.81735   0.18961   0.65257   0.00000  Uiso   1.00
H622   H     0.82012   0.97695   0.53721   0.00000  Uiso   1.00
H623   H     0.70731   0.93159   0.50795   0.00000  Uiso   1.00
H624   H     0.91044   0.88123   0.55572   0.00000  Uiso   1.00
H625   H     0.84781   0.11698   0.53350   0.00000  Uiso   1.00
H626   H     0.57410   0.88289   0.49832   0.00000  Uiso   1.00
H627   H     0.00243   0.77673   0.59903   0.00000  Uiso   1.00
H628   H     0.87037   0.27385   0.55219   0.00000  Uiso   1.00
H629   H     0.75736   0.98938   0.71288   0.00000  Uiso   1.00
H630   H     0.64110   0.94471   0.69327   0.00000  Uiso   1.00
H631   H     0.84424   0.89435   0.74103   0.00000  Uiso   1.00
H632   H     0.78161   0.13010   0.71882   0.00000  Uiso   1.00
H633   H     0.52036   0.89353   0.64873   0.00000  Uiso   1.00
H634   H     0.94871   0.78737   0.74944   0.00000  Uiso   1.00
H635   H     0.81664   0.28450   0.70260   0.00000  Uiso   1.00
O636   O     0.47189   0.85857   0.55745   0.00000  Uiso   1.00
O637   O     0.03386   0.71930   0.68958   0.00000  Uiso   1.00
O638   O     0.86059   0.37152   0.62813   0.00000  Uiso   1.00
N639   N     0.57740   0.89154   0.53641   0.00000  Uiso   1.00
N640   N     0.97786   0.79227   0.63057   0.00000  Uiso   1.00
N641   N     0.85441   0.25704   0.58678   0.00000  Uiso   1.00
N642   N     0.54849   0.89726   0.61734   0.00000  Uiso   1.00
N643   N     0.94895   0.79800   0.71150   0.00000  Uiso   1.00
N644   N     0.82550   0.26277   0.66772   0.00000  Uiso   1.00
C645   C     0.19426   0.02020   0.57745   0.00000  Uiso   1.00
C646   C     0.26426   0.04311   0.58592   0.00000  Uiso   1.00
C647   C     0.30701   0.06558   0.54796   0.00000  Uiso   1.00
C648   C     0.36895   0.08429   0.56353   0.00000  Uiso   1.00
C649   C     0.47482   0.12046   0.56882   0.00000  Uiso   1.00
C650   C     0.15389   0.07048   0.61187   0.00000  Uiso   1.00
C651   C     0.10384   0.11595   0.59572   0.00000  Uiso   1.00
C652   C     0.07288   0.15769   0.63315   0.00000  Uiso   1.00
C653   C     0.00737   0.23631   0.67873   0.00000  Uiso   1.00
C654   C     0.18793   0.94239   0.59980   0.00000  Uiso   1.00
C655   C     0.16647   0.88016   0.57351   0.00000  Uiso   1.00
C656   C     0.16415   0.81406   0.60078   0.00000  Uiso   1.00
C657   C     0.15149   0.69380   0.62761   0.00000  Uiso   1.00
C658   C     0.22826   0.01346   0.67263   0.00000  Uiso   1.00
C659   C     0.28272   0.03946   0.63762   0.00000  Uiso   1.00
C660   C     0.34462   0.05813   0.65326   0.00000  Uiso   1.00
C661   C     0.38745   0.08062   0.61532   0.00000  Uiso   1.00
C662   C     0.17236   0.06683   0.66357   0.00000  Uiso   1.00
C663   C     0.14146   0.10850   0.70103   0.00000  Uiso   1.00
C664   C     0.09137   0.15402   0.68494   0.00000  Uiso   1.00
C665   C     0.20640   0.93873   0.65150   0.00000  Uiso   1.00
C666   C     0.20410   0.87271   0.67881   0.00000  Uiso   1.00
C667   C     0.18265   0.81039   0.65257   0.00000  Uiso   1.00
H668   H     0.17988   0.02305   0.53721   0.00000  Uiso   1.00
H669   H     0.29269   0.06841   0.50795   0.00000  Uiso   1.00
H670   H     0.08956   0.11877   0.55572   0.00000  Uiso   1.00
H671   H     0.15219   0.88302   0.53350   0.00000  Uiso   1.00
H672   H     0.42590   0.11711   0.49832   0.00000  Uiso   1.00
H673   H     0.99757   0.22327   0.59903   0.00000  Uiso   1.00
H674   H     0.12963   0.72615   0.55219   0.00000  Uiso   1.00
H675   H     0.24264   0.01062   0.71288   0.00000  Uiso   1.00
H676   H     0.35890   0.05529   0.69327   0.00000  Uiso   1.00
H677   H     0.15576   0.10565   0.74103   0.00000  Uiso   1.00
H678   H     0.21839   0.86990   0.71882   0.00000  Uiso   1.00
H679   H     0.47964   0.10647   0.64873   0.00000  Uiso   1.00
H680   H     0.05129   0.21263   0.74944   0.00000  Uiso   1.00
H681   H     0.18336   0.71550   0.70260   0.00000  Uiso   1.00
O682   O     0.52811   0.14143   0.55745   0.00000  Uiso   1.00
O683   O     0.96614   0.28070   0.68958   0.00000  Uiso   1.00
O684   O     0.13941   0.62848   0.62813   0.00000  Uiso   1.00
N685   N     0.42260   0.10846   0.53641   0.00000  Uiso   1.00
N686   N     0.02214   0.20773   0.63057   0.00000  Uiso   1.00
N687   N     0.14559   0.74296   0.58678   0.00000  Uiso   1.00
N688   N     0.45151   0.10274   0.61734   0.00000  Uiso   1.00
N689   N     0.05105   0.20200   0.71150   0.00000  Uiso   1.00
N690   N     0.17450   0.73723   0.66772   0.00000  Uiso   1.00
C691   C     0.69426   0.52020   0.57745   0.00000  Uiso   1.00
C692   C     0.76426   0.54311   0.58592   0.00000  Uiso   1.00
C693   C     0.80701   0.56558   0.54796   0.00000  Uiso   1.00
C694   C     0.86895   0.58429   0.56353   0.00000  Uiso   1.00
C695   C     0.97482   0.62046   0.56882   0.00000  Uiso   1.00
C696   C     0.65389   0.57048   0.61187   0.00000  Uiso   1.00
C697   C     0.60384   0.61595   0.59572   0.00000  Uiso   1.00
C698   C     0.57288   0.65769   0.63315   0.00000  Uiso   1.00
C699   C     0.50737   0.73631   0.67873   0.00000  Uiso   1.00
C700   C     0.68793   0.44239   0.59980   0.00000  Uiso   1.00
C701   C     0.66647   0.38016   0.57351   0.00000  Uiso   1.00
C702   C     0.66415   0.31406   0.60078   0.00000  Uiso   1.00
C703   C     0.65149   0.19380   0.62761   0.00000  Uiso   1.00
C704   C     0.72826   0.51346   0.67263   0.00000  Uiso   1.00
C705   C     0.78272   0.53946   0.63762   0.00000  Uiso   1.00
C706   C     0.84462   0.55813   0.65326   0.00000  Uiso   1.00
C707   C     0.88745   0.58062   0.61532   0.00000  Uiso   1.00
C708   C     0.67236   0.56683   0.66357   0.00000  Uiso   1.00
C709   C     0.64146   0.60850   0.70103   0.00000  Uiso   1.00
C710   C     0.59137   0.65402   0.68494   0.00000  Uiso   1.00
C711   C     0.70640   0.43873   0.65150   0.00000  Uiso   1.00
C712   C     0.70410   0.37271   0.67881   0.00000  Uiso   1.00
C713   C     0.68265   0.31039   0.65257   0.00000  Uiso   1.00
H714   H     0.67988   0.52305   0.53721   0.00000  Uiso   1.00
H715   H     0.79269   0.56841   0.50795   0.00000  Uiso   1.00
H716   H     0.58956   0.61877   0.55572   0.00000  Uiso   1.00
H717   H     0.65219   0.38302   0.53350   0.00000  Uiso   1.00
H718   H     0.92590   0.61711   0.49832   0.00000  Uiso   1.00
H719   H     0.49757   0.72327   0.59903   0.00000  Uiso   1.00
H720   H     0.62963   0.22615   0.55219   0.00000  Uiso   1.00
H721   H     0.74264   0.51062   0.71288   0.00000  Uiso   1.00
H722   H     0.85890   0.55529   0.69327   0.00000  Uiso   1.00
H723   H     0.65576   0.60565   0.74103   0.00000  Uiso   1.00
H724   H     0.71839   0.36990   0.71882   0.00000  Uiso   1.00
H725   H     0.97964   0.60647   0.64873   0.00000  Uiso   1.00
H726   H     0.55129   0.71263   0.74944   0.00000  Uiso   1.00
H727   H     0.68336   0.21550   0.70260   0.00000  Uiso   1.00
O728   O     0.02811   0.64143   0.55745   0.00000  Uiso   1.00
O729   O     0.46614   0.78070   0.68958   0.00000  Uiso   1.00
O730   O     0.63941   0.12848   0.62813   0.00000  Uiso   1.00
N731   N     0.92260   0.60846   0.53641   0.00000  Uiso   1.00
N732   N     0.52214   0.70773   0.63057   0.00000  Uiso   1.00
N733   N     0.64559   0.24296   0.58678   0.00000  Uiso   1.00
N734   N     0.95151   0.60274   0.61734   0.00000  Uiso   1.00
N735   N     0.55105   0.70200   0.71150   0.00000  Uiso   1.00
N736   N     0.67450   0.23723   0.66772   0.00000  Uiso   1.00
