data_job_01035
_audit_creation_date              2018-12-19
_audit_creation_method            'Materials Studio'
_symmetry_space_group_name_H-M    'P1'
_symmetry_Int_Tables_number       1
_symmetry_cell_setting            triclinic
loop_
_symmetry_equiv_pos_as_xyz
  x,y,z
_cell_length_a                    57.9500
_cell_length_b                    12.4944
_cell_length_c                    14.8601
_cell_angle_alpha                 90.0000
_cell_angle_beta                  90.0000
_cell_angle_gamma                 90.0000
loop_
_atom_site_label
_atom_site_type_symbol
_atom_site_fract_x
_atom_site_fract_y
_atom_site_fract_z
_atom_site_U_iso_or_equiv
_atom_site_adp_type
_atom_site_occupancy
C1     C     0.66863   0.35645   0.55048   0.00000  Uiso   1.00
C2     C     0.69409   0.37255   0.57254   0.00000  Uiso   1.00
C3     C     0.70415   0.35920   0.65654   0.00000  Uiso   1.00
C4     C     0.72772   0.37782   0.66285   0.00000  Uiso   1.00
C5     C     0.76527   0.39818   0.70853   0.00000  Uiso   1.00
C6     C     0.66036   0.46156   0.50947   0.00000  Uiso   1.00
C7     C     0.64206   0.52303   0.54043   0.00000  Uiso   1.00
C8     C     0.63723   0.61656   0.49363   0.00000  Uiso   1.00
C9     C     0.62242   0.77506   0.44134   0.00000  Uiso   1.00
C10    C     0.66785   0.27418   0.47475   0.00000  Uiso   1.00
C11    C     0.65583   0.17812   0.47650   0.00000  Uiso   1.00
C12    C     0.65730   0.11390   0.40046   0.00000  Uiso   1.00
C13    C     0.65410   0.98148   0.29427   0.00000  Uiso   1.00
C14    C     0.69259   0.41326   0.41230   0.00000  Uiso   1.00
C15    C     0.70710   0.40341   0.49749   0.00000  Uiso   1.00
C16    C     0.73066   0.42205   0.50366   0.00000  Uiso   1.00
C17    C     0.74075   0.40872   0.58766   0.00000  Uiso   1.00
C18    C     0.67338   0.49241   0.43442   0.00000  Uiso   1.00
C19    C     0.66857   0.58587   0.38755   0.00000  Uiso   1.00
C20    C     0.65027   0.64747   0.41844   0.00000  Uiso   1.00
C21    C     0.68086   0.30503   0.39969   0.00000  Uiso   1.00
C22    C     0.68234   0.24096   0.32363   0.00000  Uiso   1.00
C23    C     0.67034   0.14481   0.32527   0.00000  Uiso   1.00
H24    H     0.65850   0.33244   0.60891   0.00000  Uiso   1.00
H25    H     0.69407   0.33533   0.71461   0.00000  Uiso   1.00
H26    H     0.63200   0.49913   0.59851   0.00000  Uiso   1.00
H27    H     0.64576   0.15427   0.53459   0.00000  Uiso   1.00
H28    H     0.73926   0.35219   0.79871   0.00000  Uiso   1.00
H29    H     0.60836   0.69754   0.55388   0.00000  Uiso   1.00
H30    H     0.63739   0.97033   0.41910   0.00000  Uiso   1.00
H31    H     0.70272   0.43728   0.35387   0.00000  Uiso   1.00
H32    H     0.74073   0.44592   0.44557   0.00000  Uiso   1.00
H33    H     0.67865   0.60972   0.32947   0.00000  Uiso   1.00
H34    H     0.69241   0.26486   0.26556   0.00000  Uiso   1.00
H35    H     0.77712   0.44195   0.58035   0.00000  Uiso   1.00
H36    H     0.64622   0.78730   0.33552   0.00000  Uiso   1.00
H37    H     0.67525   0.06010   0.20074   0.00000  Uiso   1.00
O38    O     0.78239   0.40090   0.75446   0.00000  Uiso   1.00
O39    O     0.61065   0.85397   0.43325   0.00000  Uiso   1.00
O40    O     0.64874   0.89990   0.25643   0.00000  Uiso   1.00
N41    N     0.74296   0.37211   0.73473   0.00000  Uiso   1.00
N42    N     0.62057   0.69500   0.50583   0.00000  Uiso   1.00
N43    N     0.64771   0.01514   0.37982   0.00000  Uiso   1.00
N44    N     0.76333   0.42041   0.61723   0.00000  Uiso   1.00
N45    N     0.64094   0.74330   0.38834   0.00000  Uiso   1.00
N46    N     0.66808   0.06344   0.26233   0.00000  Uiso   1.00
C47    C     0.66863   0.85645   0.05048   0.00000  Uiso   1.00
C48    C     0.69409   0.87255   0.07254   0.00000  Uiso   1.00
C49    C     0.70415   0.85920   0.15654   0.00000  Uiso   1.00
C50    C     0.72772   0.87782   0.16285   0.00000  Uiso   1.00
C51    C     0.76527   0.89818   0.20853   0.00000  Uiso   1.00
C52    C     0.66036   0.96156   0.00947   0.00000  Uiso   1.00
C53    C     0.64206   0.02303   0.04043   0.00000  Uiso   1.00
C54    C     0.63723   0.11656   0.99363   0.00000  Uiso   1.00
C55    C     0.62242   0.27506   0.94134   0.00000  Uiso   1.00
C56    C     0.66785   0.77418   0.97475   0.00000  Uiso   1.00
C57    C     0.65583   0.67812   0.97650   0.00000  Uiso   1.00
C58    C     0.65730   0.61390   0.90046   0.00000  Uiso   1.00
C59    C     0.65410   0.48148   0.79427   0.00000  Uiso   1.00
C60    C     0.69259   0.91326   0.91230   0.00000  Uiso   1.00
C61    C     0.70710   0.90341   0.99749   0.00000  Uiso   1.00
C62    C     0.73066   0.92205   0.00366   0.00000  Uiso   1.00
C63    C     0.74075   0.90872   0.08766   0.00000  Uiso   1.00
C64    C     0.67338   0.99241   0.93442   0.00000  Uiso   1.00
C65    C     0.66857   0.08587   0.88755   0.00000  Uiso   1.00
C66    C     0.65027   0.14747   0.91844   0.00000  Uiso   1.00
C67    C     0.68086   0.80503   0.89969   0.00000  Uiso   1.00
C68    C     0.68234   0.74096   0.82363   0.00000  Uiso   1.00
C69    C     0.67034   0.64481   0.82527   0.00000  Uiso   1.00
H70    H     0.65850   0.83244   0.10891   0.00000  Uiso   1.00
H71    H     0.69407   0.83533   0.21461   0.00000  Uiso   1.00
H72    H     0.63200   0.99913   0.09851   0.00000  Uiso   1.00
H73    H     0.64576   0.65427   0.03459   0.00000  Uiso   1.00
H74    H     0.73926   0.85219   0.29871   0.00000  Uiso   1.00
H75    H     0.60836   0.19754   0.05388   0.00000  Uiso   1.00
H76    H     0.63739   0.47033   0.91910   0.00000  Uiso   1.00
H77    H     0.70272   0.93728   0.85387   0.00000  Uiso   1.00
H78    H     0.74073   0.94592   0.94557   0.00000  Uiso   1.00
H79    H     0.67865   0.10972   0.82947   0.00000  Uiso   1.00
H80    H     0.69241   0.76486   0.76556   0.00000  Uiso   1.00
H81    H     0.77712   0.94195   0.08035   0.00000  Uiso   1.00
H82    H     0.64622   0.28730   0.83552   0.00000  Uiso   1.00
H83    H     0.67525   0.56010   0.70074   0.00000  Uiso   1.00
O84    O     0.78239   0.90090   0.25446   0.00000  Uiso   1.00
O85    O     0.61065   0.35397   0.93325   0.00000  Uiso   1.00
O86    O     0.64874   0.39990   0.75643   0.00000  Uiso   1.00
N87    N     0.74296   0.87211   0.23473   0.00000  Uiso   1.00
N88    N     0.62057   0.19500   0.00583   0.00000  Uiso   1.00
N89    N     0.64771   0.51514   0.87982   0.00000  Uiso   1.00
N90    N     0.76333   0.92041   0.11723   0.00000  Uiso   1.00
N91    N     0.64094   0.24330   0.88834   0.00000  Uiso   1.00
N92    N     0.66808   0.56344   0.76233   0.00000  Uiso   1.00
C93    C     0.16863   0.35645   0.05048   0.00000  Uiso   1.00
C94    C     0.19409   0.37255   0.07254   0.00000  Uiso   1.00
C95    C     0.20415   0.35920   0.15654   0.00000  Uiso   1.00
C96    C     0.22772   0.37782   0.16285   0.00000  Uiso   1.00
C97    C     0.26527   0.39818   0.20853   0.00000  Uiso   1.00
C98    C     0.16036   0.46156   0.00947   0.00000  Uiso   1.00
C99    C     0.14206   0.52303   0.04043   0.00000  Uiso   1.00
C100   C     0.13723   0.61656   0.99363   0.00000  Uiso   1.00
C101   C     0.12242   0.77506   0.94134   0.00000  Uiso   1.00
C102   C     0.16785   0.27418   0.97475   0.00000  Uiso   1.00
C103   C     0.15583   0.17812   0.97650   0.00000  Uiso   1.00
C104   C     0.15730   0.11390   0.90046   0.00000  Uiso   1.00
C105   C     0.15410   0.98148   0.79427   0.00000  Uiso   1.00
C106   C     0.19259   0.41326   0.91230   0.00000  Uiso   1.00
C107   C     0.20710   0.40341   0.99749   0.00000  Uiso   1.00
C108   C     0.23066   0.42205   0.00366   0.00000  Uiso   1.00
C109   C     0.24075   0.40872   0.08766   0.00000  Uiso   1.00
C110   C     0.17338   0.49241   0.93442   0.00000  Uiso   1.00
C111   C     0.16857   0.58587   0.88755   0.00000  Uiso   1.00
C112   C     0.15027   0.64747   0.91844   0.00000  Uiso   1.00
C113   C     0.18086   0.30503   0.89969   0.00000  Uiso   1.00
C114   C     0.18234   0.24096   0.82363   0.00000  Uiso   1.00
C115   C     0.17034   0.14481   0.82527   0.00000  Uiso   1.00
H116   H     0.15850   0.33244   0.10891   0.00000  Uiso   1.00
H117   H     0.19407   0.33533   0.21461   0.00000  Uiso   1.00
H118   H     0.13200   0.49913   0.09851   0.00000  Uiso   1.00
H119   H     0.14576   0.15427   0.03459   0.00000  Uiso   1.00
H120   H     0.23926   0.35219   0.29871   0.00000  Uiso   1.00
H121   H     0.10836   0.69754   0.05388   0.00000  Uiso   1.00
H122   H     0.13739   0.97033   0.91910   0.00000  Uiso   1.00
H123   H     0.20272   0.43728   0.85387   0.00000  Uiso   1.00
H124   H     0.24073   0.44592   0.94557   0.00000  Uiso   1.00
H125   H     0.17865   0.60972   0.82947   0.00000  Uiso   1.00
H126   H     0.19241   0.26486   0.76556   0.00000  Uiso   1.00
H127   H     0.27712   0.44195   0.08035   0.00000  Uiso   1.00
H128   H     0.14622   0.78730   0.83552   0.00000  Uiso   1.00
H129   H     0.17525   0.06010   0.70074   0.00000  Uiso   1.00
O130   O     0.28239   0.40090   0.25446   0.00000  Uiso   1.00
O131   O     0.11065   0.85397   0.93325   0.00000  Uiso   1.00
O132   O     0.14874   0.89990   0.75643   0.00000  Uiso   1.00
N133   N     0.24296   0.37211   0.23473   0.00000  Uiso   1.00
N134   N     0.12057   0.69500   0.00583   0.00000  Uiso   1.00
N135   N     0.14771   0.01514   0.87982   0.00000  Uiso   1.00
N136   N     0.26333   0.42041   0.11723   0.00000  Uiso   1.00
N137   N     0.14094   0.74330   0.88834   0.00000  Uiso   1.00
N138   N     0.16808   0.06344   0.76233   0.00000  Uiso   1.00
C139   C     0.16863   0.85645   0.55048   0.00000  Uiso   1.00
C140   C     0.19409   0.87255   0.57254   0.00000  Uiso   1.00
C141   C     0.20415   0.85920   0.65654   0.00000  Uiso   1.00
C142   C     0.22772   0.87782   0.66285   0.00000  Uiso   1.00
C143   C     0.26527   0.89818   0.70853   0.00000  Uiso   1.00
C144   C     0.16036   0.96156   0.50947   0.00000  Uiso   1.00
C145   C     0.14206   0.02303   0.54043   0.00000  Uiso   1.00
C146   C     0.13723   0.11656   0.49363   0.00000  Uiso   1.00
C147   C     0.12242   0.27506   0.44134   0.00000  Uiso   1.00
C148   C     0.16785   0.77418   0.47475   0.00000  Uiso   1.00
C149   C     0.15583   0.67812   0.47650   0.00000  Uiso   1.00
C150   C     0.15730   0.61390   0.40046   0.00000  Uiso   1.00
C151   C     0.15410   0.48148   0.29427   0.00000  Uiso   1.00
C152   C     0.19259   0.91326   0.41230   0.00000  Uiso   1.00
C153   C     0.20710   0.90341   0.49749   0.00000  Uiso   1.00
C154   C     0.23066   0.92205   0.50366   0.00000  Uiso   1.00
C155   C     0.24075   0.90872   0.58766   0.00000  Uiso   1.00
C156   C     0.17338   0.99241   0.43442   0.00000  Uiso   1.00
C157   C     0.16857   0.08587   0.38755   0.00000  Uiso   1.00
C158   C     0.15027   0.14747   0.41844   0.00000  Uiso   1.00
C159   C     0.18086   0.80503   0.39969   0.00000  Uiso   1.00
C160   C     0.18234   0.74096   0.32363   0.00000  Uiso   1.00
C161   C     0.17034   0.64481   0.32527   0.00000  Uiso   1.00
H162   H     0.15850   0.83244   0.60891   0.00000  Uiso   1.00
H163   H     0.19407   0.83533   0.71461   0.00000  Uiso   1.00
H164   H     0.13200   0.99913   0.59851   0.00000  Uiso   1.00
H165   H     0.14576   0.65427   0.53459   0.00000  Uiso   1.00
H166   H     0.23926   0.85219   0.79871   0.00000  Uiso   1.00
H167   H     0.10836   0.19754   0.55388   0.00000  Uiso   1.00
H168   H     0.13739   0.47033   0.41910   0.00000  Uiso   1.00
H169   H     0.20272   0.93728   0.35387   0.00000  Uiso   1.00
H170   H     0.24073   0.94592   0.44557   0.00000  Uiso   1.00
H171   H     0.17865   0.10972   0.32947   0.00000  Uiso   1.00
H172   H     0.19241   0.76486   0.26556   0.00000  Uiso   1.00
H173   H     0.27712   0.94195   0.58035   0.00000  Uiso   1.00
H174   H     0.14622   0.28730   0.33552   0.00000  Uiso   1.00
H175   H     0.17525   0.56010   0.20074   0.00000  Uiso   1.00
O176   O     0.28239   0.90090   0.75446   0.00000  Uiso   1.00
O177   O     0.11065   0.35397   0.43325   0.00000  Uiso   1.00
O178   O     0.14874   0.39990   0.25643   0.00000  Uiso   1.00
N179   N     0.24296   0.87211   0.73473   0.00000  Uiso   1.00
N180   N     0.12057   0.19500   0.50583   0.00000  Uiso   1.00
N181   N     0.14771   0.51514   0.37982   0.00000  Uiso   1.00
N182   N     0.26333   0.92041   0.61723   0.00000  Uiso   1.00
N183   N     0.14094   0.24330   0.38834   0.00000  Uiso   1.00
N184   N     0.16808   0.56344   0.26233   0.00000  Uiso   1.00
C185   C     0.33137   0.64355   0.55048   0.00000  Uiso   1.00
C186   C     0.30591   0.62745   0.57254   0.00000  Uiso   1.00
C187   C     0.29585   0.64080   0.65654   0.00000  Uiso   1.00
C188   C     0.27228   0.62218   0.66285   0.00000  Uiso   1.00
C189   C     0.23473   0.60182   0.70853   0.00000  Uiso   1.00
C190   C     0.33964   0.53844   0.50947   0.00000  Uiso   1.00
C191   C     0.35794   0.47697   0.54043   0.00000  Uiso   1.00
C192   C     0.36277   0.38344   0.49363   0.00000  Uiso   1.00
C193   C     0.37758   0.22494   0.44134   0.00000  Uiso   1.00
C194   C     0.33215   0.72582   0.47475   0.00000  Uiso   1.00
C195   C     0.34417   0.82188   0.47650   0.00000  Uiso   1.00
C196   C     0.34270   0.88610   0.40046   0.00000  Uiso   1.00
C197   C     0.34590   0.01852   0.29427   0.00000  Uiso   1.00
C198   C     0.30741   0.58674   0.41230   0.00000  Uiso   1.00
C199   C     0.29290   0.59659   0.49749   0.00000  Uiso   1.00
C200   C     0.26934   0.57795   0.50366   0.00000  Uiso   1.00
C201   C     0.25925   0.59128   0.58766   0.00000  Uiso   1.00
C202   C     0.32662   0.50759   0.43442   0.00000  Uiso   1.00
C203   C     0.33143   0.41413   0.38755   0.00000  Uiso   1.00
C204   C     0.34973   0.35253   0.41844   0.00000  Uiso   1.00
C205   C     0.31914   0.69497   0.39969   0.00000  Uiso   1.00
C206   C     0.31766   0.75904   0.32363   0.00000  Uiso   1.00
C207   C     0.32966   0.85519   0.32527   0.00000  Uiso   1.00
H208   H     0.34150   0.66756   0.60891   0.00000  Uiso   1.00
H209   H     0.30593   0.66467   0.71461   0.00000  Uiso   1.00
H210   H     0.36800   0.50087   0.59851   0.00000  Uiso   1.00
H211   H     0.35424   0.84573   0.53459   0.00000  Uiso   1.00
H212   H     0.26074   0.64781   0.79871   0.00000  Uiso   1.00
H213   H     0.39164   0.30246   0.55388   0.00000  Uiso   1.00
H214   H     0.36261   0.02967   0.41910   0.00000  Uiso   1.00
H215   H     0.29728   0.56272   0.35387   0.00000  Uiso   1.00
H216   H     0.25927   0.55408   0.44557   0.00000  Uiso   1.00
H217   H     0.32135   0.39028   0.32947   0.00000  Uiso   1.00
H218   H     0.30759   0.73514   0.26556   0.00000  Uiso   1.00
H219   H     0.22288   0.55805   0.58035   0.00000  Uiso   1.00
H220   H     0.35378   0.21270   0.33552   0.00000  Uiso   1.00
H221   H     0.32475   0.93990   0.20074   0.00000  Uiso   1.00
O222   O     0.21761   0.59910   0.75446   0.00000  Uiso   1.00
O223   O     0.38935   0.14603   0.43325   0.00000  Uiso   1.00
O224   O     0.35126   0.10010   0.25643   0.00000  Uiso   1.00
N225   N     0.25704   0.62789   0.73473   0.00000  Uiso   1.00
N226   N     0.37943   0.30500   0.50583   0.00000  Uiso   1.00
N227   N     0.35229   0.98486   0.37982   0.00000  Uiso   1.00
N228   N     0.23667   0.57959   0.61723   0.00000  Uiso   1.00
N229   N     0.35906   0.25670   0.38834   0.00000  Uiso   1.00
N230   N     0.33192   0.93656   0.26233   0.00000  Uiso   1.00
C231   C     0.33137   0.14355   0.05048   0.00000  Uiso   1.00
C232   C     0.30591   0.12745   0.07254   0.00000  Uiso   1.00
C233   C     0.29585   0.14080   0.15654   0.00000  Uiso   1.00
C234   C     0.27228   0.12218   0.16285   0.00000  Uiso   1.00
C235   C     0.23473   0.10182   0.20853   0.00000  Uiso   1.00
C236   C     0.33964   0.03844   0.00947   0.00000  Uiso   1.00
C237   C     0.35794   0.97697   0.04043   0.00000  Uiso   1.00
C238   C     0.36277   0.88344   0.99363   0.00000  Uiso   1.00
C239   C     0.37758   0.72494   0.94134   0.00000  Uiso   1.00
C240   C     0.33215   0.22582   0.97475   0.00000  Uiso   1.00
C241   C     0.34417   0.32188   0.97650   0.00000  Uiso   1.00
C242   C     0.34270   0.38610   0.90046   0.00000  Uiso   1.00
C243   C     0.34590   0.51852   0.79427   0.00000  Uiso   1.00
C244   C     0.30741   0.08674   0.91230   0.00000  Uiso   1.00
C245   C     0.29290   0.09659   0.99749   0.00000  Uiso   1.00
C246   C     0.26934   0.07795   0.00366   0.00000  Uiso   1.00
C247   C     0.25925   0.09128   0.08766   0.00000  Uiso   1.00
C248   C     0.32662   0.00759   0.93442   0.00000  Uiso   1.00
C249   C     0.33143   0.91413   0.88755   0.00000  Uiso   1.00
C250   C     0.34973   0.85253   0.91844   0.00000  Uiso   1.00
C251   C     0.31914   0.19497   0.89969   0.00000  Uiso   1.00
C252   C     0.31766   0.25904   0.82363   0.00000  Uiso   1.00
C253   C     0.32966   0.35519   0.82527   0.00000  Uiso   1.00
H254   H     0.34150   0.16756   0.10891   0.00000  Uiso   1.00
H255   H     0.30593   0.16467   0.21461   0.00000  Uiso   1.00
H256   H     0.36800   0.00087   0.09851   0.00000  Uiso   1.00
H257   H     0.35424   0.34573   0.03459   0.00000  Uiso   1.00
H258   H     0.26074   0.14781   0.29871   0.00000  Uiso   1.00
H259   H     0.39164   0.80246   0.05388   0.00000  Uiso   1.00
H260   H     0.36261   0.52967   0.91910   0.00000  Uiso   1.00
H261   H     0.29728   0.06272   0.85387   0.00000  Uiso   1.00
H262   H     0.25927   0.05408   0.94557   0.00000  Uiso   1.00
H263   H     0.32135   0.89028   0.82947   0.00000  Uiso   1.00
H264   H     0.30759   0.23514   0.76556   0.00000  Uiso   1.00
H265   H     0.22288   0.05805   0.08035   0.00000  Uiso   1.00
H266   H     0.35378   0.71270   0.83552   0.00000  Uiso   1.00
H267   H     0.32475   0.43990   0.70074   0.00000  Uiso   1.00
O268   O     0.21761   0.09910   0.25446   0.00000  Uiso   1.00
O269   O     0.38935   0.64603   0.93325   0.00000  Uiso   1.00
O270   O     0.35126   0.60010   0.75643   0.00000  Uiso   1.00
N271   N     0.25704   0.12789   0.23473   0.00000  Uiso   1.00
N272   N     0.37943   0.80500   0.00583   0.00000  Uiso   1.00
N273   N     0.35229   0.48486   0.87982   0.00000  Uiso   1.00
N274   N     0.23667   0.07959   0.11723   0.00000  Uiso   1.00
N275   N     0.35906   0.75670   0.88834   0.00000  Uiso   1.00
N276   N     0.33192   0.43656   0.76233   0.00000  Uiso   1.00
C277   C     0.83137   0.64355   0.05048   0.00000  Uiso   1.00
C278   C     0.80591   0.62745   0.07254   0.00000  Uiso   1.00
C279   C     0.79585   0.64080   0.15654   0.00000  Uiso   1.00
C280   C     0.77228   0.62218   0.16285   0.00000  Uiso   1.00
C281   C     0.73473   0.60182   0.20853   0.00000  Uiso   1.00
C282   C     0.83964   0.53844   0.00947   0.00000  Uiso   1.00
C283   C     0.85794   0.47697   0.04043   0.00000  Uiso   1.00
C284   C     0.86277   0.38344   0.99363   0.00000  Uiso   1.00
C285   C     0.87758   0.22494   0.94134   0.00000  Uiso   1.00
C286   C     0.83215   0.72582   0.97475   0.00000  Uiso   1.00
C287   C     0.84417   0.82188   0.97650   0.00000  Uiso   1.00
C288   C     0.84270   0.88610   0.90046   0.00000  Uiso   1.00
C289   C     0.84590   0.01852   0.79427   0.00000  Uiso   1.00
C290   C     0.80741   0.58674   0.91230   0.00000  Uiso   1.00
C291   C     0.79290   0.59659   0.99749   0.00000  Uiso   1.00
C292   C     0.76934   0.57795   0.00366   0.00000  Uiso   1.00
C293   C     0.75925   0.59128   0.08766   0.00000  Uiso   1.00
C294   C     0.82662   0.50759   0.93442   0.00000  Uiso   1.00
C295   C     0.83143   0.41413   0.88755   0.00000  Uiso   1.00
C296   C     0.84973   0.35253   0.91844   0.00000  Uiso   1.00
C297   C     0.81914   0.69497   0.89969   0.00000  Uiso   1.00
C298   C     0.81766   0.75904   0.82363   0.00000  Uiso   1.00
C299   C     0.82966   0.85519   0.82527   0.00000  Uiso   1.00
H300   H     0.84150   0.66756   0.10891   0.00000  Uiso   1.00
H301   H     0.80593   0.66467   0.21461   0.00000  Uiso   1.00
H302   H     0.86800   0.50087   0.09851   0.00000  Uiso   1.00
H303   H     0.85424   0.84573   0.03459   0.00000  Uiso   1.00
H304   H     0.76074   0.64781   0.29871   0.00000  Uiso   1.00
H305   H     0.89164   0.30246   0.05388   0.00000  Uiso   1.00
H306   H     0.86261   0.02967   0.91910   0.00000  Uiso   1.00
H307   H     0.79728   0.56272   0.85387   0.00000  Uiso   1.00
H308   H     0.75927   0.55408   0.94557   0.00000  Uiso   1.00
H309   H     0.82135   0.39028   0.82947   0.00000  Uiso   1.00
H310   H     0.80759   0.73514   0.76556   0.00000  Uiso   1.00
H311   H     0.72288   0.55805   0.08035   0.00000  Uiso   1.00
H312   H     0.85378   0.21270   0.83552   0.00000  Uiso   1.00
H313   H     0.82475   0.93990   0.70074   0.00000  Uiso   1.00
O314   O     0.71761   0.59910   0.25446   0.00000  Uiso   1.00
O315   O     0.88935   0.14603   0.93325   0.00000  Uiso   1.00
O316   O     0.85126   0.10010   0.75643   0.00000  Uiso   1.00
N317   N     0.75704   0.62789   0.23473   0.00000  Uiso   1.00
N318   N     0.87943   0.30500   0.00583   0.00000  Uiso   1.00
N319   N     0.85229   0.98486   0.87982   0.00000  Uiso   1.00
N320   N     0.73667   0.57959   0.11723   0.00000  Uiso   1.00
N321   N     0.85906   0.25670   0.88834   0.00000  Uiso   1.00
N322   N     0.83192   0.93656   0.76233   0.00000  Uiso   1.00
C323   C     0.83137   0.14355   0.55048   0.00000  Uiso   1.00
C324   C     0.80591   0.12745   0.57254   0.00000  Uiso   1.00
C325   C     0.79585   0.14080   0.65654   0.00000  Uiso   1.00
C326   C     0.77228   0.12218   0.66285   0.00000  Uiso   1.00
C327   C     0.73473   0.10182   0.70853   0.00000  Uiso   1.00
C328   C     0.83964   0.03844   0.50947   0.00000  Uiso   1.00
C329   C     0.85794   0.97697   0.54043   0.00000  Uiso   1.00
C330   C     0.86277   0.88344   0.49363   0.00000  Uiso   1.00
C331   C     0.87758   0.72494   0.44134   0.00000  Uiso   1.00
C332   C     0.83215   0.22582   0.47475   0.00000  Uiso   1.00
C333   C     0.84417   0.32188   0.47650   0.00000  Uiso   1.00
C334   C     0.84270   0.38610   0.40046   0.00000  Uiso   1.00
C335   C     0.84590   0.51852   0.29427   0.00000  Uiso   1.00
C336   C     0.80741   0.08674   0.41230   0.00000  Uiso   1.00
C337   C     0.79290   0.09659   0.49749   0.00000  Uiso   1.00
C338   C     0.76934   0.07795   0.50366   0.00000  Uiso   1.00
C339   C     0.75925   0.09128   0.58766   0.00000  Uiso   1.00
C340   C     0.82662   0.00759   0.43442   0.00000  Uiso   1.00
C341   C     0.83143   0.91413   0.38755   0.00000  Uiso   1.00
C342   C     0.84973   0.85253   0.41844   0.00000  Uiso   1.00
C343   C     0.81914   0.19497   0.39969   0.00000  Uiso   1.00
C344   C     0.81766   0.25904   0.32363   0.00000  Uiso   1.00
C345   C     0.82966   0.35519   0.32527   0.00000  Uiso   1.00
H346   H     0.84150   0.16756   0.60891   0.00000  Uiso   1.00
H347   H     0.80593   0.16467   0.71461   0.00000  Uiso   1.00
H348   H     0.86800   0.00087   0.59851   0.00000  Uiso   1.00
H349   H     0.85424   0.34573   0.53459   0.00000  Uiso   1.00
H350   H     0.76074   0.14781   0.79871   0.00000  Uiso   1.00
H351   H     0.89164   0.80246   0.55388   0.00000  Uiso   1.00
H352   H     0.86261   0.52967   0.41910   0.00000  Uiso   1.00
H353   H     0.79728   0.06272   0.35387   0.00000  Uiso   1.00
H354   H     0.75927   0.05408   0.44557   0.00000  Uiso   1.00
H355   H     0.82135   0.89028   0.32947   0.00000  Uiso   1.00
H356   H     0.80759   0.23514   0.26556   0.00000  Uiso   1.00
H357   H     0.72288   0.05805   0.58035   0.00000  Uiso   1.00
H358   H     0.85378   0.71270   0.33552   0.00000  Uiso   1.00
H359   H     0.82475   0.43990   0.20074   0.00000  Uiso   1.00
O360   O     0.71761   0.09910   0.75446   0.00000  Uiso   1.00
O361   O     0.88935   0.64603   0.43325   0.00000  Uiso   1.00
O362   O     0.85126   0.60010   0.25643   0.00000  Uiso   1.00
N363   N     0.75704   0.12789   0.73473   0.00000  Uiso   1.00
N364   N     0.87943   0.80500   0.50583   0.00000  Uiso   1.00
N365   N     0.85229   0.48486   0.37982   0.00000  Uiso   1.00
N366   N     0.73667   0.07959   0.61723   0.00000  Uiso   1.00
N367   N     0.85906   0.75670   0.38834   0.00000  Uiso   1.00
N368   N     0.83192   0.43656   0.26233   0.00000  Uiso   1.00
C369   C     0.91863   0.89355   0.80048   0.00000  Uiso   1.00
C370   C     0.94409   0.87745   0.82254   0.00000  Uiso   1.00
C371   C     0.95415   0.89080   0.90654   0.00000  Uiso   1.00
C372   C     0.97772   0.87218   0.91285   0.00000  Uiso   1.00
C373   C     0.01527   0.85182   0.95853   0.00000  Uiso   1.00
C374   C     0.91036   0.78844   0.75947   0.00000  Uiso   1.00
C375   C     0.89206   0.72697   0.79043   0.00000  Uiso   1.00
C376   C     0.88723   0.63344   0.74363   0.00000  Uiso   1.00
C377   C     0.87242   0.47494   0.69134   0.00000  Uiso   1.00
C378   C     0.91785   0.97582   0.72475   0.00000  Uiso   1.00
C379   C     0.90583   0.07188   0.72650   0.00000  Uiso   1.00
C380   C     0.90730   0.13610   0.65046   0.00000  Uiso   1.00
C381   C     0.90410   0.26852   0.54427   0.00000  Uiso   1.00
C382   C     0.94259   0.83674   0.66230   0.00000  Uiso   1.00
C383   C     0.95710   0.84659   0.74749   0.00000  Uiso   1.00
C384   C     0.98066   0.82795   0.75366   0.00000  Uiso   1.00
C385   C     0.99075   0.84128   0.83766   0.00000  Uiso   1.00
C386   C     0.92338   0.75759   0.68442   0.00000  Uiso   1.00
C387   C     0.91857   0.66413   0.63755   0.00000  Uiso   1.00
C388   C     0.90027   0.60253   0.66844   0.00000  Uiso   1.00
C389   C     0.93086   0.94497   0.64969   0.00000  Uiso   1.00
C390   C     0.93234   0.00904   0.57363   0.00000  Uiso   1.00
C391   C     0.92034   0.10519   0.57527   0.00000  Uiso   1.00
H392   H     0.90850   0.91756   0.85891   0.00000  Uiso   1.00
H393   H     0.94407   0.91467   0.96461   0.00000  Uiso   1.00
H394   H     0.88200   0.75087   0.84851   0.00000  Uiso   1.00
H395   H     0.89576   0.09573   0.78459   0.00000  Uiso   1.00
H396   H     0.98926   0.89781   0.04871   0.00000  Uiso   1.00
H397   H     0.85836   0.55246   0.80388   0.00000  Uiso   1.00
H398   H     0.88739   0.27967   0.66910   0.00000  Uiso   1.00
H399   H     0.95272   0.81272   0.60387   0.00000  Uiso   1.00
H400   H     0.99073   0.80408   0.69557   0.00000  Uiso   1.00
H401   H     0.92865   0.64028   0.57947   0.00000  Uiso   1.00
H402   H     0.94241   0.98514   0.51556   0.00000  Uiso   1.00
H403   H     0.02712   0.80805   0.83035   0.00000  Uiso   1.00
H404   H     0.89622   0.46270   0.58552   0.00000  Uiso   1.00
H405   H     0.92525   0.18990   0.45074   0.00000  Uiso   1.00
O406   O     0.03239   0.84910   0.00446   0.00000  Uiso   1.00
O407   O     0.86065   0.39603   0.68325   0.00000  Uiso   1.00
O408   O     0.89874   0.35010   0.50643   0.00000  Uiso   1.00
N409   N     0.99296   0.87789   0.98473   0.00000  Uiso   1.00
N410   N     0.87057   0.55500   0.75583   0.00000  Uiso   1.00
N411   N     0.89771   0.23486   0.62982   0.00000  Uiso   1.00
N412   N     0.01333   0.82959   0.86723   0.00000  Uiso   1.00
N413   N     0.89094   0.50670   0.63834   0.00000  Uiso   1.00
N414   N     0.91808   0.18656   0.51233   0.00000  Uiso   1.00
C415   C     0.91863   0.39355   0.30048   0.00000  Uiso   1.00
C416   C     0.94409   0.37745   0.32254   0.00000  Uiso   1.00
C417   C     0.95415   0.39080   0.40654   0.00000  Uiso   1.00
C418   C     0.97772   0.37218   0.41285   0.00000  Uiso   1.00
C419   C     0.01527   0.35182   0.45853   0.00000  Uiso   1.00
C420   C     0.91036   0.28844   0.25947   0.00000  Uiso   1.00
C421   C     0.89206   0.22697   0.29043   0.00000  Uiso   1.00
C422   C     0.88723   0.13344   0.24363   0.00000  Uiso   1.00
C423   C     0.87242   0.97494   0.19134   0.00000  Uiso   1.00
C424   C     0.91785   0.47582   0.22475   0.00000  Uiso   1.00
C425   C     0.90583   0.57188   0.22650   0.00000  Uiso   1.00
C426   C     0.90730   0.63610   0.15046   0.00000  Uiso   1.00
C427   C     0.90410   0.76852   0.04427   0.00000  Uiso   1.00
C428   C     0.94259   0.33674   0.16230   0.00000  Uiso   1.00
C429   C     0.95710   0.34659   0.24749   0.00000  Uiso   1.00
C430   C     0.98066   0.32795   0.25366   0.00000  Uiso   1.00
C431   C     0.99075   0.34128   0.33766   0.00000  Uiso   1.00
C432   C     0.92338   0.25759   0.18442   0.00000  Uiso   1.00
C433   C     0.91857   0.16413   0.13755   0.00000  Uiso   1.00
C434   C     0.90027   0.10253   0.16844   0.00000  Uiso   1.00
C435   C     0.93086   0.44497   0.14969   0.00000  Uiso   1.00
C436   C     0.93234   0.50904   0.07363   0.00000  Uiso   1.00
C437   C     0.92034   0.60519   0.07527   0.00000  Uiso   1.00
H438   H     0.90850   0.41756   0.35891   0.00000  Uiso   1.00
H439   H     0.94407   0.41467   0.46461   0.00000  Uiso   1.00
H440   H     0.88200   0.25087   0.34851   0.00000  Uiso   1.00
H441   H     0.89576   0.59573   0.28459   0.00000  Uiso   1.00
H442   H     0.98926   0.39781   0.54871   0.00000  Uiso   1.00
H443   H     0.85836   0.05246   0.30388   0.00000  Uiso   1.00
H444   H     0.88739   0.77967   0.16910   0.00000  Uiso   1.00
H445   H     0.95272   0.31272   0.10387   0.00000  Uiso   1.00
H446   H     0.99073   0.30408   0.19557   0.00000  Uiso   1.00
H447   H     0.92865   0.14028   0.07947   0.00000  Uiso   1.00
H448   H     0.94241   0.48514   0.01556   0.00000  Uiso   1.00
H449   H     0.02712   0.30805   0.33035   0.00000  Uiso   1.00
H450   H     0.89622   0.96270   0.08552   0.00000  Uiso   1.00
H451   H     0.92525   0.68990   0.95074   0.00000  Uiso   1.00
O452   O     0.03239   0.34910   0.50446   0.00000  Uiso   1.00
O453   O     0.86065   0.89603   0.18325   0.00000  Uiso   1.00
O454   O     0.89874   0.85010   0.00643   0.00000  Uiso   1.00
N455   N     0.99296   0.37789   0.48473   0.00000  Uiso   1.00
N456   N     0.87057   0.05500   0.25583   0.00000  Uiso   1.00
N457   N     0.89771   0.73486   0.12982   0.00000  Uiso   1.00
N458   N     0.01333   0.32959   0.36723   0.00000  Uiso   1.00
N459   N     0.89094   0.00670   0.13834   0.00000  Uiso   1.00
N460   N     0.91808   0.68656   0.01233   0.00000  Uiso   1.00
C461   C     0.41863   0.89355   0.30048   0.00000  Uiso   1.00
C462   C     0.44409   0.87745   0.32254   0.00000  Uiso   1.00
C463   C     0.45415   0.89080   0.40654   0.00000  Uiso   1.00
C464   C     0.47772   0.87218   0.41285   0.00000  Uiso   1.00
C465   C     0.51527   0.85182   0.45853   0.00000  Uiso   1.00
C466   C     0.41036   0.78844   0.25947   0.00000  Uiso   1.00
C467   C     0.39206   0.72697   0.29043   0.00000  Uiso   1.00
C468   C     0.38723   0.63344   0.24363   0.00000  Uiso   1.00
C469   C     0.37242   0.47494   0.19134   0.00000  Uiso   1.00
C470   C     0.41785   0.97582   0.22475   0.00000  Uiso   1.00
C471   C     0.40583   0.07188   0.22650   0.00000  Uiso   1.00
C472   C     0.40730   0.13610   0.15046   0.00000  Uiso   1.00
C473   C     0.40410   0.26852   0.04427   0.00000  Uiso   1.00
C474   C     0.44259   0.83674   0.16230   0.00000  Uiso   1.00
C475   C     0.45710   0.84659   0.24749   0.00000  Uiso   1.00
C476   C     0.48066   0.82795   0.25366   0.00000  Uiso   1.00
C477   C     0.49075   0.84128   0.33766   0.00000  Uiso   1.00
C478   C     0.42338   0.75759   0.18442   0.00000  Uiso   1.00
C479   C     0.41857   0.66413   0.13755   0.00000  Uiso   1.00
C480   C     0.40027   0.60253   0.16844   0.00000  Uiso   1.00
C481   C     0.43086   0.94497   0.14969   0.00000  Uiso   1.00
C482   C     0.43234   0.00904   0.07363   0.00000  Uiso   1.00
C483   C     0.42034   0.10519   0.07527   0.00000  Uiso   1.00
H484   H     0.40850   0.91756   0.35891   0.00000  Uiso   1.00
H485   H     0.44407   0.91467   0.46461   0.00000  Uiso   1.00
H486   H     0.38200   0.75087   0.34851   0.00000  Uiso   1.00
H487   H     0.39576   0.09573   0.28459   0.00000  Uiso   1.00
H488   H     0.48926   0.89781   0.54871   0.00000  Uiso   1.00
H489   H     0.35836   0.55246   0.30388   0.00000  Uiso   1.00
H490   H     0.38739   0.27967   0.16910   0.00000  Uiso   1.00
H491   H     0.45272   0.81272   0.10387   0.00000  Uiso   1.00
H492   H     0.49073   0.80408   0.19557   0.00000  Uiso   1.00
H493   H     0.42865   0.64028   0.07947   0.00000  Uiso   1.00
H494   H     0.44241   0.98514   0.01556   0.00000  Uiso   1.00
H495   H     0.52712   0.80805   0.33035   0.00000  Uiso   1.00
H496   H     0.39622   0.46270   0.08552   0.00000  Uiso   1.00
H497   H     0.42525   0.18990   0.95074   0.00000  Uiso   1.00
O498   O     0.53239   0.84910   0.50446   0.00000  Uiso   1.00
O499   O     0.36065   0.39603   0.18325   0.00000  Uiso   1.00
O500   O     0.39874   0.35010   0.00643   0.00000  Uiso   1.00
N501   N     0.49296   0.87789   0.48473   0.00000  Uiso   1.00
N502   N     0.37057   0.55500   0.25583   0.00000  Uiso   1.00
N503   N     0.39771   0.23486   0.12982   0.00000  Uiso   1.00
N504   N     0.51333   0.82959   0.36723   0.00000  Uiso   1.00
N505   N     0.39094   0.50670   0.13834   0.00000  Uiso   1.00
N506   N     0.41808   0.18656   0.01233   0.00000  Uiso   1.00
C507   C     0.41863   0.39355   0.80048   0.00000  Uiso   1.00
C508   C     0.44409   0.37745   0.82254   0.00000  Uiso   1.00
C509   C     0.45415   0.39080   0.90654   0.00000  Uiso   1.00
C510   C     0.47772   0.37218   0.91285   0.00000  Uiso   1.00
C511   C     0.51527   0.35182   0.95853   0.00000  Uiso   1.00
C512   C     0.41036   0.28844   0.75947   0.00000  Uiso   1.00
C513   C     0.39206   0.22697   0.79043   0.00000  Uiso   1.00
C514   C     0.38723   0.13344   0.74363   0.00000  Uiso   1.00
C515   C     0.37242   0.97494   0.69134   0.00000  Uiso   1.00
C516   C     0.41785   0.47582   0.72475   0.00000  Uiso   1.00
C517   C     0.40583   0.57188   0.72650   0.00000  Uiso   1.00
C518   C     0.40730   0.63610   0.65046   0.00000  Uiso   1.00
C519   C     0.40410   0.76852   0.54427   0.00000  Uiso   1.00
C520   C     0.44259   0.33674   0.66230   0.00000  Uiso   1.00
C521   C     0.45710   0.34659   0.74749   0.00000  Uiso   1.00
C522   C     0.48066   0.32795   0.75366   0.00000  Uiso   1.00
C523   C     0.49075   0.34128   0.83766   0.00000  Uiso   1.00
C524   C     0.42338   0.25759   0.68442   0.00000  Uiso   1.00
C525   C     0.41857   0.16413   0.63755   0.00000  Uiso   1.00
C526   C     0.40027   0.10253   0.66844   0.00000  Uiso   1.00
C527   C     0.43086   0.44497   0.64969   0.00000  Uiso   1.00
C528   C     0.43234   0.50904   0.57363   0.00000  Uiso   1.00
C529   C     0.42034   0.60519   0.57527   0.00000  Uiso   1.00
H530   H     0.40850   0.41756   0.85891   0.00000  Uiso   1.00
H531   H     0.44407   0.41467   0.96461   0.00000  Uiso   1.00
H532   H     0.38200   0.25087   0.84851   0.00000  Uiso   1.00
H533   H     0.39576   0.59573   0.78459   0.00000  Uiso   1.00
H534   H     0.48926   0.39781   0.04871   0.00000  Uiso   1.00
H535   H     0.35836   0.05246   0.80388   0.00000  Uiso   1.00
H536   H     0.38739   0.77967   0.66910   0.00000  Uiso   1.00
H537   H     0.45272   0.31272   0.60387   0.00000  Uiso   1.00
H538   H     0.49073   0.30408   0.69557   0.00000  Uiso   1.00
H539   H     0.42865   0.14028   0.57947   0.00000  Uiso   1.00
H540   H     0.44241   0.48514   0.51556   0.00000  Uiso   1.00
H541   H     0.52712   0.30805   0.83035   0.00000  Uiso   1.00
H542   H     0.39622   0.96270   0.58552   0.00000  Uiso   1.00
H543   H     0.42525   0.68990   0.45074   0.00000  Uiso   1.00
O544   O     0.53239   0.34910   0.00446   0.00000  Uiso   1.00
O545   O     0.36065   0.89603   0.68325   0.00000  Uiso   1.00
O546   O     0.39874   0.85010   0.50643   0.00000  Uiso   1.00
N547   N     0.49296   0.37789   0.98473   0.00000  Uiso   1.00
N548   N     0.37057   0.05500   0.75583   0.00000  Uiso   1.00
N549   N     0.39771   0.73486   0.62982   0.00000  Uiso   1.00
N550   N     0.51333   0.32959   0.86723   0.00000  Uiso   1.00
N551   N     0.39094   0.00670   0.63834   0.00000  Uiso   1.00
N552   N     0.41808   0.68656   0.51233   0.00000  Uiso   1.00
C553   C     0.58137   0.60645   0.80048   0.00000  Uiso   1.00
C554   C     0.55591   0.62255   0.82254   0.00000  Uiso   1.00
C555   C     0.54585   0.60920   0.90654   0.00000  Uiso   1.00
C556   C     0.52228   0.62782   0.91285   0.00000  Uiso   1.00
C557   C     0.48473   0.64818   0.95853   0.00000  Uiso   1.00
C558   C     0.58964   0.71156   0.75947   0.00000  Uiso   1.00
C559   C     0.60794   0.77303   0.79043   0.00000  Uiso   1.00
C560   C     0.61277   0.86656   0.74363   0.00000  Uiso   1.00
C561   C     0.62758   0.02506   0.69134   0.00000  Uiso   1.00
C562   C     0.58215   0.52418   0.72475   0.00000  Uiso   1.00
C563   C     0.59417   0.42812   0.72650   0.00000  Uiso   1.00
C564   C     0.59270   0.36390   0.65046   0.00000  Uiso   1.00
C565   C     0.59590   0.23148   0.54427   0.00000  Uiso   1.00
C566   C     0.55741   0.66326   0.66230   0.00000  Uiso   1.00
C567   C     0.54290   0.65341   0.74749   0.00000  Uiso   1.00
C568   C     0.51934   0.67205   0.75366   0.00000  Uiso   1.00
C569   C     0.50925   0.65872   0.83766   0.00000  Uiso   1.00
C570   C     0.57662   0.74241   0.68442   0.00000  Uiso   1.00
C571   C     0.58143   0.83587   0.63755   0.00000  Uiso   1.00
C572   C     0.59973   0.89747   0.66844   0.00000  Uiso   1.00
C573   C     0.56914   0.55503   0.64969   0.00000  Uiso   1.00
C574   C     0.56766   0.49096   0.57363   0.00000  Uiso   1.00
C575   C     0.57966   0.39481   0.57527   0.00000  Uiso   1.00
H576   H     0.59150   0.58244   0.85891   0.00000  Uiso   1.00
H577   H     0.55593   0.58533   0.96461   0.00000  Uiso   1.00
H578   H     0.61800   0.74913   0.84851   0.00000  Uiso   1.00
H579   H     0.60424   0.40427   0.78459   0.00000  Uiso   1.00
H580   H     0.51074   0.60219   0.04871   0.00000  Uiso   1.00
H581   H     0.64164   0.94754   0.80388   0.00000  Uiso   1.00
H582   H     0.61261   0.22033   0.66910   0.00000  Uiso   1.00
H583   H     0.54728   0.68728   0.60387   0.00000  Uiso   1.00
H584   H     0.50927   0.69592   0.69557   0.00000  Uiso   1.00
H585   H     0.57135   0.85972   0.57947   0.00000  Uiso   1.00
H586   H     0.55759   0.51486   0.51556   0.00000  Uiso   1.00
H587   H     0.47288   0.69195   0.83035   0.00000  Uiso   1.00
H588   H     0.60378   0.03730   0.58552   0.00000  Uiso   1.00
H589   H     0.57475   0.31010   0.45074   0.00000  Uiso   1.00
O590   O     0.46761   0.65090   0.00446   0.00000  Uiso   1.00
O591   O     0.63935   0.10397   0.68325   0.00000  Uiso   1.00
O592   O     0.60126   0.14990   0.50643   0.00000  Uiso   1.00
N593   N     0.50704   0.62211   0.98473   0.00000  Uiso   1.00
N594   N     0.62943   0.94500   0.75583   0.00000  Uiso   1.00
N595   N     0.60229   0.26514   0.62982   0.00000  Uiso   1.00
N596   N     0.48667   0.67041   0.86723   0.00000  Uiso   1.00
N597   N     0.60906   0.99330   0.63834   0.00000  Uiso   1.00
N598   N     0.58192   0.31344   0.51233   0.00000  Uiso   1.00
C599   C     0.58137   0.10645   0.30048   0.00000  Uiso   1.00
C600   C     0.55591   0.12255   0.32254   0.00000  Uiso   1.00
C601   C     0.54585   0.10920   0.40654   0.00000  Uiso   1.00
C602   C     0.52228   0.12782   0.41285   0.00000  Uiso   1.00
C603   C     0.48473   0.14818   0.45853   0.00000  Uiso   1.00
C604   C     0.58964   0.21156   0.25947   0.00000  Uiso   1.00
C605   C     0.60794   0.27303   0.29043   0.00000  Uiso   1.00
C606   C     0.61277   0.36656   0.24363   0.00000  Uiso   1.00
C607   C     0.62758   0.52506   0.19134   0.00000  Uiso   1.00
C608   C     0.58215   0.02418   0.22475   0.00000  Uiso   1.00
C609   C     0.59417   0.92812   0.22650   0.00000  Uiso   1.00
C610   C     0.59270   0.86390   0.15046   0.00000  Uiso   1.00
C611   C     0.59590   0.73148   0.04427   0.00000  Uiso   1.00
C612   C     0.55741   0.16326   0.16230   0.00000  Uiso   1.00
C613   C     0.54290   0.15341   0.24749   0.00000  Uiso   1.00
C614   C     0.51934   0.17205   0.25366   0.00000  Uiso   1.00
C615   C     0.50925   0.15872   0.33766   0.00000  Uiso   1.00
C616   C     0.57662   0.24241   0.18442   0.00000  Uiso   1.00
C617   C     0.58143   0.33587   0.13755   0.00000  Uiso   1.00
C618   C     0.59973   0.39747   0.16844   0.00000  Uiso   1.00
C619   C     0.56914   0.05503   0.14969   0.00000  Uiso   1.00
C620   C     0.56766   0.99096   0.07363   0.00000  Uiso   1.00
C621   C     0.57966   0.89481   0.07527   0.00000  Uiso   1.00
H622   H     0.59150   0.08244   0.35891   0.00000  Uiso   1.00
H623   H     0.55593   0.08533   0.46461   0.00000  Uiso   1.00
H624   H     0.61800   0.24913   0.34851   0.00000  Uiso   1.00
H625   H     0.60424   0.90427   0.28459   0.00000  Uiso   1.00
H626   H     0.51074   0.10219   0.54871   0.00000  Uiso   1.00
H627   H     0.64164   0.44754   0.30388   0.00000  Uiso   1.00
H628   H     0.61261   0.72033   0.16910   0.00000  Uiso   1.00
H629   H     0.54728   0.18728   0.10387   0.00000  Uiso   1.00
H630   H     0.50927   0.19592   0.19557   0.00000  Uiso   1.00
H631   H     0.57135   0.35972   0.07947   0.00000  Uiso   1.00
H632   H     0.55759   0.01486   0.01556   0.00000  Uiso   1.00
H633   H     0.47288   0.19195   0.33035   0.00000  Uiso   1.00
H634   H     0.60378   0.53730   0.08552   0.00000  Uiso   1.00
H635   H     0.57475   0.81010   0.95074   0.00000  Uiso   1.00
O636   O     0.46761   0.15090   0.50446   0.00000  Uiso   1.00
O637   O     0.63935   0.60397   0.18325   0.00000  Uiso   1.00
O638   O     0.60126   0.64990   0.00643   0.00000  Uiso   1.00
N639   N     0.50704   0.12211   0.48473   0.00000  Uiso   1.00
N640   N     0.62943   0.44500   0.25583   0.00000  Uiso   1.00
N641   N     0.60229   0.76514   0.12982   0.00000  Uiso   1.00
N642   N     0.48667   0.17041   0.36723   0.00000  Uiso   1.00
N643   N     0.60906   0.49330   0.13834   0.00000  Uiso   1.00
N644   N     0.58192   0.81344   0.01233   0.00000  Uiso   1.00
C645   C     0.08137   0.60645   0.30048   0.00000  Uiso   1.00
C646   C     0.05591   0.62255   0.32254   0.00000  Uiso   1.00
C647   C     0.04585   0.60920   0.40654   0.00000  Uiso   1.00
C648   C     0.02228   0.62782   0.41285   0.00000  Uiso   1.00
C649   C     0.98473   0.64818   0.45853   0.00000  Uiso   1.00
C650   C     0.08964   0.71156   0.25947   0.00000  Uiso   1.00
C651   C     0.10794   0.77303   0.29043   0.00000  Uiso   1.00
C652   C     0.11277   0.86656   0.24363   0.00000  Uiso   1.00
C653   C     0.12758   0.02506   0.19134   0.00000  Uiso   1.00
C654   C     0.08215   0.52418   0.22475   0.00000  Uiso   1.00
C655   C     0.09417   0.42812   0.22650   0.00000  Uiso   1.00
C656   C     0.09270   0.36390   0.15046   0.00000  Uiso   1.00
C657   C     0.09590   0.23148   0.04427   0.00000  Uiso   1.00
C658   C     0.05741   0.66326   0.16230   0.00000  Uiso   1.00
C659   C     0.04290   0.65341   0.24749   0.00000  Uiso   1.00
C660   C     0.01934   0.67205   0.25366   0.00000  Uiso   1.00
C661   C     0.00925   0.65872   0.33766   0.00000  Uiso   1.00
C662   C     0.07662   0.74241   0.18442   0.00000  Uiso   1.00
C663   C     0.08143   0.83587   0.13755   0.00000  Uiso   1.00
C664   C     0.09973   0.89747   0.16844   0.00000  Uiso   1.00
C665   C     0.06914   0.55503   0.14969   0.00000  Uiso   1.00
C666   C     0.06766   0.49096   0.07363   0.00000  Uiso   1.00
C667   C     0.07966   0.39481   0.07527   0.00000  Uiso   1.00
H668   H     0.09150   0.58244   0.35891   0.00000  Uiso   1.00
H669   H     0.05593   0.58533   0.46461   0.00000  Uiso   1.00
H670   H     0.11800   0.74913   0.34851   0.00000  Uiso   1.00
H671   H     0.10424   0.40427   0.28459   0.00000  Uiso   1.00
H672   H     0.01074   0.60219   0.54871   0.00000  Uiso   1.00
H673   H     0.14164   0.94754   0.30388   0.00000  Uiso   1.00
H674   H     0.11261   0.22033   0.16910   0.00000  Uiso   1.00
H675   H     0.04728   0.68728   0.10387   0.00000  Uiso   1.00
H676   H     0.00927   0.69592   0.19557   0.00000  Uiso   1.00
H677   H     0.07135   0.85972   0.07947   0.00000  Uiso   1.00
H678   H     0.05759   0.51486   0.01556   0.00000  Uiso   1.00
H679   H     0.97288   0.69195   0.33035   0.00000  Uiso   1.00
H680   H     0.10378   0.03730   0.08552   0.00000  Uiso   1.00
H681   H     0.07475   0.31010   0.95074   0.00000  Uiso   1.00
O682   O     0.96761   0.65090   0.50446   0.00000  Uiso   1.00
O683   O     0.13935   0.10397   0.18325   0.00000  Uiso   1.00
O684   O     0.10126   0.14990   0.00643   0.00000  Uiso   1.00
N685   N     0.00704   0.62211   0.48473   0.00000  Uiso   1.00
N686   N     0.12943   0.94500   0.25583   0.00000  Uiso   1.00
N687   N     0.10229   0.26514   0.12982   0.00000  Uiso   1.00
N688   N     0.98667   0.67041   0.36723   0.00000  Uiso   1.00
N689   N     0.10906   0.99330   0.13834   0.00000  Uiso   1.00
N690   N     0.08192   0.31344   0.01233   0.00000  Uiso   1.00
C691   C     0.08137   0.10645   0.80048   0.00000  Uiso   1.00
C692   C     0.05591   0.12255   0.82254   0.00000  Uiso   1.00
C693   C     0.04585   0.10920   0.90654   0.00000  Uiso   1.00
C694   C     0.02228   0.12782   0.91285   0.00000  Uiso   1.00
C695   C     0.98473   0.14818   0.95853   0.00000  Uiso   1.00
C696   C     0.08964   0.21156   0.75947   0.00000  Uiso   1.00
C697   C     0.10794   0.27303   0.79043   0.00000  Uiso   1.00
C698   C     0.11277   0.36656   0.74363   0.00000  Uiso   1.00
C699   C     0.12758   0.52506   0.69134   0.00000  Uiso   1.00
C700   C     0.08215   0.02418   0.72475   0.00000  Uiso   1.00
C701   C     0.09417   0.92812   0.72650   0.00000  Uiso   1.00
C702   C     0.09270   0.86390   0.65046   0.00000  Uiso   1.00
C703   C     0.09590   0.73148   0.54427   0.00000  Uiso   1.00
C704   C     0.05741   0.16326   0.66230   0.00000  Uiso   1.00
C705   C     0.04290   0.15341   0.74749   0.00000  Uiso   1.00
C706   C     0.01934   0.17205   0.75366   0.00000  Uiso   1.00
C707   C     0.00925   0.15872   0.83766   0.00000  Uiso   1.00
C708   C     0.07662   0.24241   0.68442   0.00000  Uiso   1.00
C709   C     0.08143   0.33587   0.63755   0.00000  Uiso   1.00
C710   C     0.09973   0.39747   0.66844   0.00000  Uiso   1.00
C711   C     0.06914   0.05503   0.64969   0.00000  Uiso   1.00
C712   C     0.06766   0.99096   0.57363   0.00000  Uiso   1.00
C713   C     0.07966   0.89481   0.57527   0.00000  Uiso   1.00
H714   H     0.09150   0.08244   0.85891   0.00000  Uiso   1.00
H715   H     0.05593   0.08533   0.96461   0.00000  Uiso   1.00
H716   H     0.11800   0.24913   0.84851   0.00000  Uiso   1.00
H717   H     0.10424   0.90427   0.78459   0.00000  Uiso   1.00
H718   H     0.01074   0.10219   0.04871   0.00000  Uiso   1.00
H719   H     0.14164   0.44754   0.80388   0.00000  Uiso   1.00
H720   H     0.11261   0.72033   0.66910   0.00000  Uiso   1.00
H721   H     0.04728   0.18728   0.60387   0.00000  Uiso   1.00
H722   H     0.00927   0.19592   0.69557   0.00000  Uiso   1.00
H723   H     0.07135   0.35972   0.57947   0.00000  Uiso   1.00
H724   H     0.05759   0.01486   0.51556   0.00000  Uiso   1.00
H725   H     0.97288   0.19195   0.83035   0.00000  Uiso   1.00
H726   H     0.10378   0.53730   0.58552   0.00000  Uiso   1.00
H727   H     0.07475   0.81010   0.45074   0.00000  Uiso   1.00
O728   O     0.96761   0.15090   0.00446   0.00000  Uiso   1.00
O729   O     0.13935   0.60397   0.68325   0.00000  Uiso   1.00
O730   O     0.10126   0.64990   0.50643   0.00000  Uiso   1.00
N731   N     0.00704   0.12211   0.98473   0.00000  Uiso   1.00
N732   N     0.12943   0.44500   0.75583   0.00000  Uiso   1.00
N733   N     0.10229   0.76514   0.62982   0.00000  Uiso   1.00
N734   N     0.98667   0.17041   0.86723   0.00000  Uiso   1.00
N735   N     0.10906   0.49330   0.63834   0.00000  Uiso   1.00
N736   N     0.08192   0.81344   0.51233   0.00000  Uiso   1.00
