data_job_05129
_audit_creation_date              2018-12-19
_audit_creation_method            'Materials Studio'
_symmetry_space_group_name_H-M    'P1'
_symmetry_Int_Tables_number       1
_symmetry_cell_setting            triclinic
loop_
_symmetry_equiv_pos_as_xyz
  x,y,z
_cell_length_a                    36.1886
_cell_length_b                    12.8593
_cell_length_c                    20.6723
_cell_angle_alpha                 90.0000
_cell_angle_beta                  90.0000
_cell_angle_gamma                 90.0000
loop_
_atom_site_label
_atom_site_type_symbol
_atom_site_fract_x
_atom_site_fract_y
_atom_site_fract_z
_atom_site_U_iso_or_equiv
_atom_site_adp_type
_atom_site_occupancy
C1     C     0.56042   0.74128   0.70785   0.00000  Uiso   1.00
C2     C     0.53366   0.75311   0.76436   0.00000  Uiso   1.00
C3     C     0.50410   0.68791   0.77793   0.00000  Uiso   1.00
C4     C     0.48289   0.71197   0.83186   0.00000  Uiso   1.00
C5     C     0.44011   0.71725   0.91367   0.00000  Uiso   1.00
C6     C     0.55887   0.84366   0.67071   0.00000  Uiso   1.00
C7     C     0.55051   0.85458   0.60554   0.00000  Uiso   1.00
C8     C     0.55052   0.95485   0.58064   0.00000  Uiso   1.00
C9     C     0.54690   0.10070   0.51705   0.00000  Uiso   1.00
C10    C     0.59893   0.73582   0.73757   0.00000  Uiso   1.00
C11    C     0.62426   0.65609   0.72860   0.00000  Uiso   1.00
C12    C     0.65802   0.66559   0.75997   0.00000  Uiso   1.00
C13    C     0.71660   0.64402   0.80019   0.00000  Uiso   1.00
C14    C     0.57532   0.89995   0.77950   0.00000  Uiso   1.00
C15    C     0.54175   0.83930   0.80327   0.00000  Uiso   1.00
C16    C     0.52059   0.86345   0.85720   0.00000  Uiso   1.00
C17    C     0.49100   0.79830   0.87085   0.00000  Uiso   1.00
C18    C     0.56696   0.92983   0.70963   0.00000  Uiso   1.00
C19    C     0.56699   0.03012   0.68482   0.00000  Uiso   1.00
C20    C     0.55863   0.04119   0.61963   0.00000  Uiso   1.00
C21    C     0.60703   0.82200   0.77649   0.00000  Uiso   1.00
C22    C     0.64075   0.83163   0.80787   0.00000  Uiso   1.00
C23    C     0.66613   0.75193   0.79896   0.00000  Uiso   1.00
H24    H     0.55411   0.67419   0.67754   0.00000  Uiso   1.00
H25    H     0.49784   0.62123   0.74779   0.00000  Uiso   1.00
H26    H     0.54425   0.78787   0.57544   0.00000  Uiso   1.00
H27    H     0.61799   0.58941   0.69848   0.00000  Uiso   1.00
H28    H     0.43902   0.60054   0.84283   0.00000  Uiso   1.00
H29    H     0.53687   0.95190   0.47940   0.00000  Uiso   1.00
H30    H     0.69238   0.53342   0.73885   0.00000  Uiso   1.00
H31    H     0.58162   0.96705   0.80980   0.00000  Uiso   1.00
H32    H     0.52686   0.93015   0.88731   0.00000  Uiso   1.00
H33    H     0.57326   0.09679   0.71495   0.00000  Uiso   1.00
H34    H     0.64701   0.89834   0.83799   0.00000  Uiso   1.00
H35    H     0.46257   0.85127   0.95606   0.00000  Uiso   1.00
H36    H     0.56043   0.20264   0.59263   0.00000  Uiso   1.00
H37    H     0.71593   0.78415   0.85208   0.00000  Uiso   1.00
O38    O     0.41427   0.69637   0.94804   0.00000  Uiso   1.00
O39    O     0.54266   0.15734   0.47123   0.00000  Uiso   1.00
O40    O     0.74667   0.60830   0.81162   0.00000  Uiso   1.00
N41    N     0.45208   0.66460   0.85885   0.00000  Uiso   1.00
N42    N     0.54356   0.99311   0.51907   0.00000  Uiso   1.00
N43    N     0.68895   0.60187   0.76162   0.00000  Uiso   1.00
N44    N     0.46475   0.79952   0.91978   0.00000  Uiso   1.00
N45    N     0.55624   0.12802   0.57999   0.00000  Uiso   1.00
N46    N     0.70163   0.73679   0.82255   0.00000  Uiso   1.00
C47    C     0.56042   0.24128   0.20785   0.00000  Uiso   1.00
C48    C     0.53366   0.25311   0.26436   0.00000  Uiso   1.00
C49    C     0.50410   0.18791   0.27793   0.00000  Uiso   1.00
C50    C     0.48289   0.21197   0.33186   0.00000  Uiso   1.00
C51    C     0.44011   0.21725   0.41367   0.00000  Uiso   1.00
C52    C     0.55887   0.34366   0.17071   0.00000  Uiso   1.00
C53    C     0.55051   0.35458   0.10554   0.00000  Uiso   1.00
C54    C     0.55052   0.45485   0.08064   0.00000  Uiso   1.00
C55    C     0.54690   0.60070   0.01705   0.00000  Uiso   1.00
C56    C     0.59893   0.23582   0.23757   0.00000  Uiso   1.00
C57    C     0.62426   0.15609   0.22860   0.00000  Uiso   1.00
C58    C     0.65802   0.16559   0.25997   0.00000  Uiso   1.00
C59    C     0.71660   0.14402   0.30019   0.00000  Uiso   1.00
C60    C     0.57532   0.39995   0.27950   0.00000  Uiso   1.00
C61    C     0.54175   0.33930   0.30327   0.00000  Uiso   1.00
C62    C     0.52059   0.36345   0.35720   0.00000  Uiso   1.00
C63    C     0.49100   0.29830   0.37085   0.00000  Uiso   1.00
C64    C     0.56696   0.42983   0.20963   0.00000  Uiso   1.00
C65    C     0.56699   0.53012   0.18482   0.00000  Uiso   1.00
C66    C     0.55863   0.54119   0.11963   0.00000  Uiso   1.00
C67    C     0.60703   0.32200   0.27649   0.00000  Uiso   1.00
C68    C     0.64075   0.33163   0.30787   0.00000  Uiso   1.00
C69    C     0.66613   0.25193   0.29896   0.00000  Uiso   1.00
H70    H     0.55411   0.17419   0.17754   0.00000  Uiso   1.00
H71    H     0.49784   0.12123   0.24779   0.00000  Uiso   1.00
H72    H     0.54425   0.28787   0.07544   0.00000  Uiso   1.00
H73    H     0.61799   0.08941   0.19848   0.00000  Uiso   1.00
H74    H     0.43902   0.10054   0.34283   0.00000  Uiso   1.00
H75    H     0.53687   0.45190   0.97940   0.00000  Uiso   1.00
H76    H     0.69238   0.03342   0.23885   0.00000  Uiso   1.00
H77    H     0.58162   0.46705   0.30980   0.00000  Uiso   1.00
H78    H     0.52686   0.43015   0.38731   0.00000  Uiso   1.00
H79    H     0.57326   0.59679   0.21495   0.00000  Uiso   1.00
H80    H     0.64701   0.39834   0.33799   0.00000  Uiso   1.00
H81    H     0.46257   0.35127   0.45606   0.00000  Uiso   1.00
H82    H     0.56043   0.70264   0.09263   0.00000  Uiso   1.00
H83    H     0.71593   0.28415   0.35208   0.00000  Uiso   1.00
O84    O     0.41427   0.19637   0.44804   0.00000  Uiso   1.00
O85    O     0.54266   0.65734   0.97123   0.00000  Uiso   1.00
O86    O     0.74667   0.10830   0.31162   0.00000  Uiso   1.00
N87    N     0.45208   0.16460   0.35885   0.00000  Uiso   1.00
N88    N     0.54356   0.49311   0.01907   0.00000  Uiso   1.00
N89    N     0.68895   0.10187   0.26162   0.00000  Uiso   1.00
N90    N     0.46475   0.29952   0.41978   0.00000  Uiso   1.00
N91    N     0.55624   0.62802   0.07999   0.00000  Uiso   1.00
N92    N     0.70163   0.23679   0.32255   0.00000  Uiso   1.00
C93    C     0.06042   0.74128   0.20785   0.00000  Uiso   1.00
C94    C     0.03366   0.75311   0.26436   0.00000  Uiso   1.00
C95    C     0.00410   0.68791   0.27793   0.00000  Uiso   1.00
C96    C     0.98289   0.71197   0.33186   0.00000  Uiso   1.00
C97    C     0.94011   0.71725   0.41367   0.00000  Uiso   1.00
C98    C     0.05887   0.84366   0.17071   0.00000  Uiso   1.00
C99    C     0.05051   0.85458   0.10554   0.00000  Uiso   1.00
C100   C     0.05052   0.95485   0.08064   0.00000  Uiso   1.00
C101   C     0.04690   0.10070   0.01705   0.00000  Uiso   1.00
C102   C     0.09893   0.73582   0.23757   0.00000  Uiso   1.00
C103   C     0.12426   0.65609   0.22860   0.00000  Uiso   1.00
C104   C     0.15802   0.66559   0.25997   0.00000  Uiso   1.00
C105   C     0.21660   0.64402   0.30019   0.00000  Uiso   1.00
C106   C     0.07532   0.89995   0.27950   0.00000  Uiso   1.00
C107   C     0.04175   0.83930   0.30327   0.00000  Uiso   1.00
C108   C     0.02059   0.86345   0.35720   0.00000  Uiso   1.00
C109   C     0.99100   0.79830   0.37085   0.00000  Uiso   1.00
C110   C     0.06696   0.92983   0.20963   0.00000  Uiso   1.00
C111   C     0.06699   0.03012   0.18482   0.00000  Uiso   1.00
C112   C     0.05863   0.04119   0.11963   0.00000  Uiso   1.00
C113   C     0.10703   0.82200   0.27649   0.00000  Uiso   1.00
C114   C     0.14075   0.83163   0.30787   0.00000  Uiso   1.00
C115   C     0.16613   0.75193   0.29896   0.00000  Uiso   1.00
H116   H     0.05411   0.67419   0.17754   0.00000  Uiso   1.00
H117   H     0.99784   0.62123   0.24779   0.00000  Uiso   1.00
H118   H     0.04425   0.78787   0.07544   0.00000  Uiso   1.00
H119   H     0.11799   0.58941   0.19848   0.00000  Uiso   1.00
H120   H     0.93902   0.60054   0.34283   0.00000  Uiso   1.00
H121   H     0.03687   0.95190   0.97940   0.00000  Uiso   1.00
H122   H     0.19238   0.53342   0.23885   0.00000  Uiso   1.00
H123   H     0.08162   0.96705   0.30980   0.00000  Uiso   1.00
H124   H     0.02686   0.93015   0.38731   0.00000  Uiso   1.00
H125   H     0.07326   0.09679   0.21495   0.00000  Uiso   1.00
H126   H     0.14701   0.89834   0.33799   0.00000  Uiso   1.00
H127   H     0.96257   0.85127   0.45606   0.00000  Uiso   1.00
H128   H     0.06043   0.20264   0.09263   0.00000  Uiso   1.00
H129   H     0.21593   0.78415   0.35208   0.00000  Uiso   1.00
O130   O     0.91427   0.69637   0.44804   0.00000  Uiso   1.00
O131   O     0.04266   0.15734   0.97123   0.00000  Uiso   1.00
O132   O     0.24667   0.60830   0.31162   0.00000  Uiso   1.00
N133   N     0.95208   0.66460   0.35885   0.00000  Uiso   1.00
N134   N     0.04356   0.99311   0.01907   0.00000  Uiso   1.00
N135   N     0.18895   0.60187   0.26162   0.00000  Uiso   1.00
N136   N     0.96475   0.79952   0.41978   0.00000  Uiso   1.00
N137   N     0.05624   0.12802   0.07999   0.00000  Uiso   1.00
N138   N     0.20163   0.73679   0.32255   0.00000  Uiso   1.00
C139   C     0.06042   0.24128   0.70785   0.00000  Uiso   1.00
C140   C     0.03366   0.25311   0.76436   0.00000  Uiso   1.00
C141   C     0.00410   0.18791   0.77793   0.00000  Uiso   1.00
C142   C     0.98289   0.21197   0.83186   0.00000  Uiso   1.00
C143   C     0.94011   0.21725   0.91367   0.00000  Uiso   1.00
C144   C     0.05887   0.34366   0.67071   0.00000  Uiso   1.00
C145   C     0.05051   0.35458   0.60554   0.00000  Uiso   1.00
C146   C     0.05052   0.45485   0.58064   0.00000  Uiso   1.00
C147   C     0.04690   0.60070   0.51705   0.00000  Uiso   1.00
C148   C     0.09893   0.23582   0.73757   0.00000  Uiso   1.00
C149   C     0.12426   0.15609   0.72860   0.00000  Uiso   1.00
C150   C     0.15802   0.16559   0.75997   0.00000  Uiso   1.00
C151   C     0.21660   0.14402   0.80019   0.00000  Uiso   1.00
C152   C     0.07532   0.39995   0.77950   0.00000  Uiso   1.00
C153   C     0.04175   0.33930   0.80327   0.00000  Uiso   1.00
C154   C     0.02059   0.36345   0.85720   0.00000  Uiso   1.00
C155   C     0.99100   0.29830   0.87085   0.00000  Uiso   1.00
C156   C     0.06696   0.42983   0.70963   0.00000  Uiso   1.00
C157   C     0.06699   0.53012   0.68482   0.00000  Uiso   1.00
C158   C     0.05863   0.54119   0.61963   0.00000  Uiso   1.00
C159   C     0.10703   0.32200   0.77649   0.00000  Uiso   1.00
C160   C     0.14075   0.33163   0.80787   0.00000  Uiso   1.00
C161   C     0.16613   0.25193   0.79896   0.00000  Uiso   1.00
H162   H     0.05411   0.17419   0.67754   0.00000  Uiso   1.00
H163   H     0.99784   0.12123   0.74779   0.00000  Uiso   1.00
H164   H     0.04425   0.28787   0.57544   0.00000  Uiso   1.00
H165   H     0.11799   0.08941   0.69848   0.00000  Uiso   1.00
H166   H     0.93902   0.10054   0.84283   0.00000  Uiso   1.00
H167   H     0.03687   0.45190   0.47940   0.00000  Uiso   1.00
H168   H     0.19238   0.03342   0.73885   0.00000  Uiso   1.00
H169   H     0.08162   0.46705   0.80980   0.00000  Uiso   1.00
H170   H     0.02686   0.43015   0.88731   0.00000  Uiso   1.00
H171   H     0.07326   0.59679   0.71495   0.00000  Uiso   1.00
H172   H     0.14701   0.39834   0.83799   0.00000  Uiso   1.00
H173   H     0.96257   0.35127   0.95606   0.00000  Uiso   1.00
H174   H     0.06043   0.70264   0.59263   0.00000  Uiso   1.00
H175   H     0.21593   0.28415   0.85208   0.00000  Uiso   1.00
O176   O     0.91427   0.19637   0.94804   0.00000  Uiso   1.00
O177   O     0.04266   0.65734   0.47123   0.00000  Uiso   1.00
O178   O     0.24667   0.10830   0.81162   0.00000  Uiso   1.00
N179   N     0.95208   0.16460   0.85885   0.00000  Uiso   1.00
N180   N     0.04356   0.49311   0.51907   0.00000  Uiso   1.00
N181   N     0.18895   0.10187   0.76162   0.00000  Uiso   1.00
N182   N     0.96475   0.29952   0.91978   0.00000  Uiso   1.00
N183   N     0.05624   0.62802   0.57999   0.00000  Uiso   1.00
N184   N     0.20163   0.23679   0.82255   0.00000  Uiso   1.00
C185   C     0.43958   0.25872   0.70785   0.00000  Uiso   1.00
C186   C     0.46634   0.24689   0.76436   0.00000  Uiso   1.00
C187   C     0.49590   0.31209   0.77793   0.00000  Uiso   1.00
C188   C     0.51711   0.28803   0.83186   0.00000  Uiso   1.00
C189   C     0.55989   0.28275   0.91367   0.00000  Uiso   1.00
C190   C     0.44113   0.15634   0.67071   0.00000  Uiso   1.00
C191   C     0.44949   0.14542   0.60554   0.00000  Uiso   1.00
C192   C     0.44948   0.04515   0.58064   0.00000  Uiso   1.00
C193   C     0.45310   0.89930   0.51705   0.00000  Uiso   1.00
C194   C     0.40107   0.26418   0.73757   0.00000  Uiso   1.00
C195   C     0.37574   0.34391   0.72860   0.00000  Uiso   1.00
C196   C     0.34198   0.33441   0.75997   0.00000  Uiso   1.00
C197   C     0.28340   0.35598   0.80019   0.00000  Uiso   1.00
C198   C     0.42468   0.10005   0.77950   0.00000  Uiso   1.00
C199   C     0.45825   0.16070   0.80327   0.00000  Uiso   1.00
C200   C     0.47941   0.13655   0.85720   0.00000  Uiso   1.00
C201   C     0.50900   0.20170   0.87085   0.00000  Uiso   1.00
C202   C     0.43304   0.07017   0.70963   0.00000  Uiso   1.00
C203   C     0.43301   0.96988   0.68482   0.00000  Uiso   1.00
C204   C     0.44137   0.95881   0.61963   0.00000  Uiso   1.00
C205   C     0.39297   0.17800   0.77649   0.00000  Uiso   1.00
C206   C     0.35925   0.16837   0.80787   0.00000  Uiso   1.00
C207   C     0.33387   0.24807   0.79896   0.00000  Uiso   1.00
H208   H     0.44589   0.32581   0.67754   0.00000  Uiso   1.00
H209   H     0.50216   0.37877   0.74779   0.00000  Uiso   1.00
H210   H     0.45575   0.21213   0.57544   0.00000  Uiso   1.00
H211   H     0.38201   0.41059   0.69848   0.00000  Uiso   1.00
H212   H     0.56098   0.39946   0.84283   0.00000  Uiso   1.00
H213   H     0.46313   0.04810   0.47940   0.00000  Uiso   1.00
H214   H     0.30762   0.46658   0.73885   0.00000  Uiso   1.00
H215   H     0.41838   0.03295   0.80980   0.00000  Uiso   1.00
H216   H     0.47314   0.06985   0.88731   0.00000  Uiso   1.00
H217   H     0.42674   0.90321   0.71495   0.00000  Uiso   1.00
H218   H     0.35299   0.10166   0.83799   0.00000  Uiso   1.00
H219   H     0.53743   0.14873   0.95606   0.00000  Uiso   1.00
H220   H     0.43957   0.79736   0.59263   0.00000  Uiso   1.00
H221   H     0.28407   0.21585   0.85208   0.00000  Uiso   1.00
O222   O     0.58573   0.30363   0.94804   0.00000  Uiso   1.00
O223   O     0.45734   0.84266   0.47123   0.00000  Uiso   1.00
O224   O     0.25333   0.39170   0.81162   0.00000  Uiso   1.00
N225   N     0.54792   0.33540   0.85885   0.00000  Uiso   1.00
N226   N     0.45644   0.00689   0.51907   0.00000  Uiso   1.00
N227   N     0.31105   0.39813   0.76162   0.00000  Uiso   1.00
N228   N     0.53525   0.20048   0.91978   0.00000  Uiso   1.00
N229   N     0.44376   0.87198   0.57999   0.00000  Uiso   1.00
N230   N     0.29837   0.26321   0.82255   0.00000  Uiso   1.00
C231   C     0.43958   0.75872   0.20785   0.00000  Uiso   1.00
C232   C     0.46634   0.74689   0.26436   0.00000  Uiso   1.00
C233   C     0.49590   0.81209   0.27793   0.00000  Uiso   1.00
C234   C     0.51711   0.78803   0.33186   0.00000  Uiso   1.00
C235   C     0.55989   0.78275   0.41367   0.00000  Uiso   1.00
C236   C     0.44113   0.65634   0.17071   0.00000  Uiso   1.00
C237   C     0.44949   0.64542   0.10554   0.00000  Uiso   1.00
C238   C     0.44948   0.54515   0.08064   0.00000  Uiso   1.00
C239   C     0.45310   0.39930   0.01705   0.00000  Uiso   1.00
C240   C     0.40107   0.76418   0.23757   0.00000  Uiso   1.00
C241   C     0.37574   0.84391   0.22860   0.00000  Uiso   1.00
C242   C     0.34198   0.83441   0.25997   0.00000  Uiso   1.00
C243   C     0.28340   0.85598   0.30019   0.00000  Uiso   1.00
C244   C     0.42468   0.60005   0.27950   0.00000  Uiso   1.00
C245   C     0.45825   0.66070   0.30327   0.00000  Uiso   1.00
C246   C     0.47941   0.63655   0.35720   0.00000  Uiso   1.00
C247   C     0.50900   0.70170   0.37085   0.00000  Uiso   1.00
C248   C     0.43304   0.57017   0.20963   0.00000  Uiso   1.00
C249   C     0.43301   0.46988   0.18482   0.00000  Uiso   1.00
C250   C     0.44137   0.45881   0.11963   0.00000  Uiso   1.00
C251   C     0.39297   0.67800   0.27649   0.00000  Uiso   1.00
C252   C     0.35925   0.66837   0.30787   0.00000  Uiso   1.00
C253   C     0.33387   0.74807   0.29896   0.00000  Uiso   1.00
H254   H     0.44589   0.82581   0.17754   0.00000  Uiso   1.00
H255   H     0.50216   0.87877   0.24779   0.00000  Uiso   1.00
H256   H     0.45575   0.71213   0.07544   0.00000  Uiso   1.00
H257   H     0.38201   0.91059   0.19848   0.00000  Uiso   1.00
H258   H     0.56098   0.89946   0.34283   0.00000  Uiso   1.00
H259   H     0.46313   0.54810   0.97940   0.00000  Uiso   1.00
H260   H     0.30762   0.96658   0.23885   0.00000  Uiso   1.00
H261   H     0.41838   0.53295   0.30980   0.00000  Uiso   1.00
H262   H     0.47314   0.56985   0.38731   0.00000  Uiso   1.00
H263   H     0.42674   0.40321   0.21495   0.00000  Uiso   1.00
H264   H     0.35299   0.60166   0.33799   0.00000  Uiso   1.00
H265   H     0.53743   0.64873   0.45606   0.00000  Uiso   1.00
H266   H     0.43957   0.29736   0.09263   0.00000  Uiso   1.00
H267   H     0.28407   0.71585   0.35208   0.00000  Uiso   1.00
O268   O     0.58573   0.80363   0.44804   0.00000  Uiso   1.00
O269   O     0.45734   0.34266   0.97123   0.00000  Uiso   1.00
O270   O     0.25333   0.89170   0.31162   0.00000  Uiso   1.00
N271   N     0.54792   0.83540   0.35885   0.00000  Uiso   1.00
N272   N     0.45644   0.50689   0.01907   0.00000  Uiso   1.00
N273   N     0.31105   0.89813   0.26162   0.00000  Uiso   1.00
N274   N     0.53525   0.70048   0.41978   0.00000  Uiso   1.00
N275   N     0.44376   0.37198   0.07999   0.00000  Uiso   1.00
N276   N     0.29837   0.76321   0.32255   0.00000  Uiso   1.00
C277   C     0.93958   0.25872   0.20785   0.00000  Uiso   1.00
C278   C     0.96634   0.24689   0.26436   0.00000  Uiso   1.00
C279   C     0.99590   0.31209   0.27793   0.00000  Uiso   1.00
C280   C     0.01711   0.28803   0.33186   0.00000  Uiso   1.00
C281   C     0.05989   0.28275   0.41367   0.00000  Uiso   1.00
C282   C     0.94113   0.15634   0.17071   0.00000  Uiso   1.00
C283   C     0.94949   0.14542   0.10554   0.00000  Uiso   1.00
C284   C     0.94948   0.04515   0.08064   0.00000  Uiso   1.00
C285   C     0.95310   0.89930   0.01705   0.00000  Uiso   1.00
C286   C     0.90107   0.26418   0.23757   0.00000  Uiso   1.00
C287   C     0.87574   0.34391   0.22860   0.00000  Uiso   1.00
C288   C     0.84198   0.33441   0.25997   0.00000  Uiso   1.00
C289   C     0.78340   0.35598   0.30019   0.00000  Uiso   1.00
C290   C     0.92468   0.10005   0.27950   0.00000  Uiso   1.00
C291   C     0.95825   0.16070   0.30327   0.00000  Uiso   1.00
C292   C     0.97941   0.13655   0.35720   0.00000  Uiso   1.00
C293   C     0.00900   0.20170   0.37085   0.00000  Uiso   1.00
C294   C     0.93304   0.07017   0.20963   0.00000  Uiso   1.00
C295   C     0.93301   0.96988   0.18482   0.00000  Uiso   1.00
C296   C     0.94137   0.95881   0.11963   0.00000  Uiso   1.00
C297   C     0.89297   0.17800   0.27649   0.00000  Uiso   1.00
C298   C     0.85925   0.16837   0.30787   0.00000  Uiso   1.00
C299   C     0.83387   0.24807   0.29896   0.00000  Uiso   1.00
H300   H     0.94589   0.32581   0.17754   0.00000  Uiso   1.00
H301   H     0.00216   0.37877   0.24779   0.00000  Uiso   1.00
H302   H     0.95575   0.21213   0.07544   0.00000  Uiso   1.00
H303   H     0.88201   0.41059   0.19848   0.00000  Uiso   1.00
H304   H     0.06098   0.39946   0.34283   0.00000  Uiso   1.00
H305   H     0.96313   0.04810   0.97940   0.00000  Uiso   1.00
H306   H     0.80762   0.46658   0.23885   0.00000  Uiso   1.00
H307   H     0.91838   0.03295   0.30980   0.00000  Uiso   1.00
H308   H     0.97314   0.06985   0.38731   0.00000  Uiso   1.00
H309   H     0.92674   0.90321   0.21495   0.00000  Uiso   1.00
H310   H     0.85299   0.10166   0.33799   0.00000  Uiso   1.00
H311   H     0.03743   0.14873   0.45606   0.00000  Uiso   1.00
H312   H     0.93957   0.79736   0.09263   0.00000  Uiso   1.00
H313   H     0.78407   0.21585   0.35208   0.00000  Uiso   1.00
O314   O     0.08573   0.30363   0.44804   0.00000  Uiso   1.00
O315   O     0.95734   0.84266   0.97123   0.00000  Uiso   1.00
O316   O     0.75333   0.39170   0.31162   0.00000  Uiso   1.00
N317   N     0.04792   0.33540   0.35885   0.00000  Uiso   1.00
N318   N     0.95644   0.00689   0.01907   0.00000  Uiso   1.00
N319   N     0.81105   0.39813   0.26162   0.00000  Uiso   1.00
N320   N     0.03525   0.20048   0.41978   0.00000  Uiso   1.00
N321   N     0.94376   0.87198   0.07999   0.00000  Uiso   1.00
N322   N     0.79837   0.26321   0.32255   0.00000  Uiso   1.00
C323   C     0.93958   0.75872   0.70785   0.00000  Uiso   1.00
C324   C     0.96634   0.74689   0.76436   0.00000  Uiso   1.00
C325   C     0.99590   0.81209   0.77793   0.00000  Uiso   1.00
C326   C     0.01711   0.78803   0.83186   0.00000  Uiso   1.00
C327   C     0.05989   0.78275   0.91367   0.00000  Uiso   1.00
C328   C     0.94113   0.65634   0.67071   0.00000  Uiso   1.00
C329   C     0.94949   0.64542   0.60554   0.00000  Uiso   1.00
C330   C     0.94948   0.54515   0.58064   0.00000  Uiso   1.00
C331   C     0.95310   0.39930   0.51705   0.00000  Uiso   1.00
C332   C     0.90107   0.76418   0.73757   0.00000  Uiso   1.00
C333   C     0.87574   0.84391   0.72860   0.00000  Uiso   1.00
C334   C     0.84198   0.83441   0.75997   0.00000  Uiso   1.00
C335   C     0.78340   0.85598   0.80019   0.00000  Uiso   1.00
C336   C     0.92468   0.60005   0.77950   0.00000  Uiso   1.00
C337   C     0.95825   0.66070   0.80327   0.00000  Uiso   1.00
C338   C     0.97941   0.63655   0.85720   0.00000  Uiso   1.00
C339   C     0.00900   0.70170   0.87085   0.00000  Uiso   1.00
C340   C     0.93304   0.57017   0.70963   0.00000  Uiso   1.00
C341   C     0.93301   0.46988   0.68482   0.00000  Uiso   1.00
C342   C     0.94137   0.45881   0.61963   0.00000  Uiso   1.00
C343   C     0.89297   0.67800   0.77649   0.00000  Uiso   1.00
C344   C     0.85925   0.66837   0.80787   0.00000  Uiso   1.00
C345   C     0.83387   0.74807   0.79896   0.00000  Uiso   1.00
H346   H     0.94589   0.82581   0.67754   0.00000  Uiso   1.00
H347   H     0.00216   0.87877   0.74779   0.00000  Uiso   1.00
H348   H     0.95575   0.71213   0.57544   0.00000  Uiso   1.00
H349   H     0.88201   0.91059   0.69848   0.00000  Uiso   1.00
H350   H     0.06098   0.89946   0.84283   0.00000  Uiso   1.00
H351   H     0.96313   0.54810   0.47940   0.00000  Uiso   1.00
H352   H     0.80762   0.96658   0.73885   0.00000  Uiso   1.00
H353   H     0.91838   0.53295   0.80980   0.00000  Uiso   1.00
H354   H     0.97314   0.56985   0.88731   0.00000  Uiso   1.00
H355   H     0.92674   0.40321   0.71495   0.00000  Uiso   1.00
H356   H     0.85299   0.60166   0.83799   0.00000  Uiso   1.00
H357   H     0.03743   0.64873   0.95606   0.00000  Uiso   1.00
H358   H     0.93957   0.29736   0.59263   0.00000  Uiso   1.00
H359   H     0.78407   0.71585   0.85208   0.00000  Uiso   1.00
O360   O     0.08573   0.80363   0.94804   0.00000  Uiso   1.00
O361   O     0.95734   0.34266   0.47123   0.00000  Uiso   1.00
O362   O     0.75333   0.89170   0.81162   0.00000  Uiso   1.00
N363   N     0.04792   0.83540   0.85885   0.00000  Uiso   1.00
N364   N     0.95644   0.50689   0.51907   0.00000  Uiso   1.00
N365   N     0.81105   0.89813   0.76162   0.00000  Uiso   1.00
N366   N     0.03525   0.70048   0.91978   0.00000  Uiso   1.00
N367   N     0.94376   0.37198   0.57999   0.00000  Uiso   1.00
N368   N     0.79837   0.76321   0.82255   0.00000  Uiso   1.00
C369   C     0.81042   0.50872   0.95785   0.00000  Uiso   1.00
C370   C     0.78366   0.49689   0.01436   0.00000  Uiso   1.00
C371   C     0.75410   0.56209   0.02793   0.00000  Uiso   1.00
C372   C     0.73289   0.53803   0.08186   0.00000  Uiso   1.00
C373   C     0.69011   0.53275   0.16367   0.00000  Uiso   1.00
C374   C     0.80887   0.40634   0.92071   0.00000  Uiso   1.00
C375   C     0.80051   0.39542   0.85554   0.00000  Uiso   1.00
C376   C     0.80052   0.29515   0.83064   0.00000  Uiso   1.00
C377   C     0.79690   0.14930   0.76705   0.00000  Uiso   1.00
C378   C     0.84893   0.51418   0.98757   0.00000  Uiso   1.00
C379   C     0.87426   0.59391   0.97860   0.00000  Uiso   1.00
C380   C     0.90802   0.58441   0.00997   0.00000  Uiso   1.00
C381   C     0.96660   0.60598   0.05019   0.00000  Uiso   1.00
C382   C     0.82532   0.35005   0.02950   0.00000  Uiso   1.00
C383   C     0.79175   0.41070   0.05327   0.00000  Uiso   1.00
C384   C     0.77059   0.38655   0.10720   0.00000  Uiso   1.00
C385   C     0.74100   0.45170   0.12085   0.00000  Uiso   1.00
C386   C     0.81696   0.32017   0.95963   0.00000  Uiso   1.00
C387   C     0.81699   0.21988   0.93482   0.00000  Uiso   1.00
C388   C     0.80863   0.20881   0.86963   0.00000  Uiso   1.00
C389   C     0.85703   0.42800   0.02649   0.00000  Uiso   1.00
C390   C     0.89075   0.41837   0.05787   0.00000  Uiso   1.00
C391   C     0.91613   0.49807   0.04896   0.00000  Uiso   1.00
H392   H     0.80411   0.57581   0.92754   0.00000  Uiso   1.00
H393   H     0.74784   0.62877   0.99779   0.00000  Uiso   1.00
H394   H     0.79425   0.46213   0.82544   0.00000  Uiso   1.00
H395   H     0.86799   0.66059   0.94848   0.00000  Uiso   1.00
H396   H     0.68902   0.64946   0.09283   0.00000  Uiso   1.00
H397   H     0.78687   0.29810   0.72940   0.00000  Uiso   1.00
H398   H     0.94238   0.71658   0.98885   0.00000  Uiso   1.00
H399   H     0.83162   0.28295   0.05980   0.00000  Uiso   1.00
H400   H     0.77686   0.31985   0.13731   0.00000  Uiso   1.00
H401   H     0.82326   0.15321   0.96495   0.00000  Uiso   1.00
H402   H     0.89701   0.35166   0.08799   0.00000  Uiso   1.00
H403   H     0.71257   0.39873   0.20606   0.00000  Uiso   1.00
H404   H     0.81043   0.04736   0.84263   0.00000  Uiso   1.00
H405   H     0.96593   0.46585   0.10208   0.00000  Uiso   1.00
O406   O     0.66427   0.55363   0.19804   0.00000  Uiso   1.00
O407   O     0.79266   0.09266   0.72123   0.00000  Uiso   1.00
O408   O     0.99667   0.64170   0.06162   0.00000  Uiso   1.00
N409   N     0.70208   0.58540   0.10885   0.00000  Uiso   1.00
N410   N     0.79356   0.25689   0.76907   0.00000  Uiso   1.00
N411   N     0.93895   0.64813   0.01162   0.00000  Uiso   1.00
N412   N     0.71475   0.45048   0.16978   0.00000  Uiso   1.00
N413   N     0.80624   0.12198   0.82999   0.00000  Uiso   1.00
N414   N     0.95163   0.51321   0.07255   0.00000  Uiso   1.00
C415   C     0.81042   0.00872   0.45785   0.00000  Uiso   1.00
C416   C     0.78366   0.99689   0.51436   0.00000  Uiso   1.00
C417   C     0.75410   0.06209   0.52793   0.00000  Uiso   1.00
C418   C     0.73289   0.03803   0.58186   0.00000  Uiso   1.00
C419   C     0.69011   0.03275   0.66367   0.00000  Uiso   1.00
C420   C     0.80887   0.90634   0.42071   0.00000  Uiso   1.00
C421   C     0.80051   0.89542   0.35554   0.00000  Uiso   1.00
C422   C     0.80052   0.79515   0.33064   0.00000  Uiso   1.00
C423   C     0.79690   0.64930   0.26705   0.00000  Uiso   1.00
C424   C     0.84893   0.01418   0.48757   0.00000  Uiso   1.00
C425   C     0.87426   0.09391   0.47860   0.00000  Uiso   1.00
C426   C     0.90802   0.08441   0.50997   0.00000  Uiso   1.00
C427   C     0.96660   0.10598   0.55019   0.00000  Uiso   1.00
C428   C     0.82532   0.85005   0.52950   0.00000  Uiso   1.00
C429   C     0.79175   0.91070   0.55327   0.00000  Uiso   1.00
C430   C     0.77059   0.88655   0.60720   0.00000  Uiso   1.00
C431   C     0.74100   0.95170   0.62085   0.00000  Uiso   1.00
C432   C     0.81696   0.82017   0.45963   0.00000  Uiso   1.00
C433   C     0.81699   0.71988   0.43482   0.00000  Uiso   1.00
C434   C     0.80863   0.70881   0.36963   0.00000  Uiso   1.00
C435   C     0.85703   0.92800   0.52649   0.00000  Uiso   1.00
C436   C     0.89075   0.91837   0.55787   0.00000  Uiso   1.00
C437   C     0.91613   0.99807   0.54896   0.00000  Uiso   1.00
H438   H     0.80411   0.07581   0.42754   0.00000  Uiso   1.00
H439   H     0.74784   0.12877   0.49779   0.00000  Uiso   1.00
H440   H     0.79425   0.96213   0.32544   0.00000  Uiso   1.00
H441   H     0.86799   0.16059   0.44848   0.00000  Uiso   1.00
H442   H     0.68902   0.14946   0.59283   0.00000  Uiso   1.00
H443   H     0.78687   0.79810   0.22940   0.00000  Uiso   1.00
H444   H     0.94238   0.21658   0.48885   0.00000  Uiso   1.00
H445   H     0.83162   0.78295   0.55980   0.00000  Uiso   1.00
H446   H     0.77686   0.81985   0.63731   0.00000  Uiso   1.00
H447   H     0.82326   0.65321   0.46495   0.00000  Uiso   1.00
H448   H     0.89701   0.85166   0.58799   0.00000  Uiso   1.00
H449   H     0.71257   0.89873   0.70606   0.00000  Uiso   1.00
H450   H     0.81043   0.54736   0.34263   0.00000  Uiso   1.00
H451   H     0.96593   0.96585   0.60208   0.00000  Uiso   1.00
O452   O     0.66427   0.05363   0.69804   0.00000  Uiso   1.00
O453   O     0.79266   0.59266   0.22123   0.00000  Uiso   1.00
O454   O     0.99667   0.14170   0.56162   0.00000  Uiso   1.00
N455   N     0.70208   0.08540   0.60885   0.00000  Uiso   1.00
N456   N     0.79356   0.75689   0.26907   0.00000  Uiso   1.00
N457   N     0.93895   0.14813   0.51162   0.00000  Uiso   1.00
N458   N     0.71475   0.95048   0.66978   0.00000  Uiso   1.00
N459   N     0.80624   0.62198   0.32999   0.00000  Uiso   1.00
N460   N     0.95163   0.01321   0.57255   0.00000  Uiso   1.00
C461   C     0.31042   0.50872   0.45785   0.00000  Uiso   1.00
C462   C     0.28366   0.49689   0.51436   0.00000  Uiso   1.00
C463   C     0.25410   0.56209   0.52793   0.00000  Uiso   1.00
C464   C     0.23289   0.53803   0.58186   0.00000  Uiso   1.00
C465   C     0.19011   0.53275   0.66367   0.00000  Uiso   1.00
C466   C     0.30887   0.40634   0.42071   0.00000  Uiso   1.00
C467   C     0.30051   0.39542   0.35554   0.00000  Uiso   1.00
C468   C     0.30052   0.29515   0.33064   0.00000  Uiso   1.00
C469   C     0.29690   0.14930   0.26705   0.00000  Uiso   1.00
C470   C     0.34893   0.51418   0.48757   0.00000  Uiso   1.00
C471   C     0.37426   0.59391   0.47860   0.00000  Uiso   1.00
C472   C     0.40802   0.58441   0.50997   0.00000  Uiso   1.00
C473   C     0.46660   0.60598   0.55019   0.00000  Uiso   1.00
C474   C     0.32532   0.35005   0.52950   0.00000  Uiso   1.00
C475   C     0.29175   0.41070   0.55327   0.00000  Uiso   1.00
C476   C     0.27059   0.38655   0.60720   0.00000  Uiso   1.00
C477   C     0.24100   0.45170   0.62085   0.00000  Uiso   1.00
C478   C     0.31696   0.32017   0.45963   0.00000  Uiso   1.00
C479   C     0.31699   0.21988   0.43482   0.00000  Uiso   1.00
C480   C     0.30863   0.20881   0.36963   0.00000  Uiso   1.00
C481   C     0.35703   0.42800   0.52649   0.00000  Uiso   1.00
C482   C     0.39075   0.41837   0.55787   0.00000  Uiso   1.00
C483   C     0.41613   0.49807   0.54896   0.00000  Uiso   1.00
H484   H     0.30411   0.57581   0.42754   0.00000  Uiso   1.00
H485   H     0.24784   0.62877   0.49779   0.00000  Uiso   1.00
H486   H     0.29425   0.46213   0.32544   0.00000  Uiso   1.00
H487   H     0.36799   0.66059   0.44848   0.00000  Uiso   1.00
H488   H     0.18902   0.64946   0.59283   0.00000  Uiso   1.00
H489   H     0.28687   0.29810   0.22940   0.00000  Uiso   1.00
H490   H     0.44238   0.71658   0.48885   0.00000  Uiso   1.00
H491   H     0.33162   0.28295   0.55980   0.00000  Uiso   1.00
H492   H     0.27686   0.31985   0.63731   0.00000  Uiso   1.00
H493   H     0.32326   0.15321   0.46495   0.00000  Uiso   1.00
H494   H     0.39701   0.35166   0.58799   0.00000  Uiso   1.00
H495   H     0.21257   0.39873   0.70606   0.00000  Uiso   1.00
H496   H     0.31043   0.04736   0.34263   0.00000  Uiso   1.00
H497   H     0.46593   0.46585   0.60208   0.00000  Uiso   1.00
O498   O     0.16427   0.55363   0.69804   0.00000  Uiso   1.00
O499   O     0.29266   0.09266   0.22123   0.00000  Uiso   1.00
O500   O     0.49667   0.64170   0.56162   0.00000  Uiso   1.00
N501   N     0.20208   0.58540   0.60885   0.00000  Uiso   1.00
N502   N     0.29356   0.25689   0.26907   0.00000  Uiso   1.00
N503   N     0.43895   0.64813   0.51162   0.00000  Uiso   1.00
N504   N     0.21475   0.45048   0.66978   0.00000  Uiso   1.00
N505   N     0.30624   0.12198   0.32999   0.00000  Uiso   1.00
N506   N     0.45163   0.51321   0.57255   0.00000  Uiso   1.00
C507   C     0.31042   0.00872   0.95785   0.00000  Uiso   1.00
C508   C     0.28366   0.99689   0.01436   0.00000  Uiso   1.00
C509   C     0.25410   0.06209   0.02793   0.00000  Uiso   1.00
C510   C     0.23289   0.03803   0.08186   0.00000  Uiso   1.00
C511   C     0.19011   0.03275   0.16367   0.00000  Uiso   1.00
C512   C     0.30887   0.90634   0.92071   0.00000  Uiso   1.00
C513   C     0.30051   0.89542   0.85554   0.00000  Uiso   1.00
C514   C     0.30052   0.79515   0.83064   0.00000  Uiso   1.00
C515   C     0.29690   0.64930   0.76705   0.00000  Uiso   1.00
C516   C     0.34893   0.01418   0.98757   0.00000  Uiso   1.00
C517   C     0.37426   0.09391   0.97860   0.00000  Uiso   1.00
C518   C     0.40802   0.08441   0.00997   0.00000  Uiso   1.00
C519   C     0.46660   0.10598   0.05019   0.00000  Uiso   1.00
C520   C     0.32532   0.85005   0.02950   0.00000  Uiso   1.00
C521   C     0.29175   0.91070   0.05327   0.00000  Uiso   1.00
C522   C     0.27059   0.88655   0.10720   0.00000  Uiso   1.00
C523   C     0.24100   0.95170   0.12085   0.00000  Uiso   1.00
C524   C     0.31696   0.82017   0.95963   0.00000  Uiso   1.00
C525   C     0.31699   0.71988   0.93482   0.00000  Uiso   1.00
C526   C     0.30863   0.70881   0.86963   0.00000  Uiso   1.00
C527   C     0.35703   0.92800   0.02649   0.00000  Uiso   1.00
C528   C     0.39075   0.91837   0.05787   0.00000  Uiso   1.00
C529   C     0.41613   0.99807   0.04896   0.00000  Uiso   1.00
H530   H     0.30411   0.07581   0.92754   0.00000  Uiso   1.00
H531   H     0.24784   0.12877   0.99779   0.00000  Uiso   1.00
H532   H     0.29425   0.96213   0.82544   0.00000  Uiso   1.00
H533   H     0.36799   0.16059   0.94848   0.00000  Uiso   1.00
H534   H     0.18902   0.14946   0.09283   0.00000  Uiso   1.00
H535   H     0.28687   0.79810   0.72940   0.00000  Uiso   1.00
H536   H     0.44238   0.21658   0.98885   0.00000  Uiso   1.00
H537   H     0.33162   0.78295   0.05980   0.00000  Uiso   1.00
H538   H     0.27686   0.81985   0.13731   0.00000  Uiso   1.00
H539   H     0.32326   0.65321   0.96495   0.00000  Uiso   1.00
H540   H     0.39701   0.85166   0.08799   0.00000  Uiso   1.00
H541   H     0.21257   0.89873   0.20606   0.00000  Uiso   1.00
H542   H     0.31043   0.54736   0.84263   0.00000  Uiso   1.00
H543   H     0.46593   0.96585   0.10208   0.00000  Uiso   1.00
O544   O     0.16427   0.05363   0.19804   0.00000  Uiso   1.00
O545   O     0.29266   0.59266   0.72123   0.00000  Uiso   1.00
O546   O     0.49667   0.14170   0.06162   0.00000  Uiso   1.00
N547   N     0.20208   0.08540   0.10885   0.00000  Uiso   1.00
N548   N     0.29356   0.75689   0.76907   0.00000  Uiso   1.00
N549   N     0.43895   0.14813   0.01162   0.00000  Uiso   1.00
N550   N     0.21475   0.95048   0.16978   0.00000  Uiso   1.00
N551   N     0.30624   0.62198   0.82999   0.00000  Uiso   1.00
N552   N     0.45163   0.01321   0.07255   0.00000  Uiso   1.00
C553   C     0.68958   0.99128   0.95785   0.00000  Uiso   1.00
C554   C     0.71634   0.00311   0.01436   0.00000  Uiso   1.00
C555   C     0.74590   0.93791   0.02793   0.00000  Uiso   1.00
C556   C     0.76711   0.96197   0.08186   0.00000  Uiso   1.00
C557   C     0.80989   0.96725   0.16367   0.00000  Uiso   1.00
C558   C     0.69113   0.09366   0.92071   0.00000  Uiso   1.00
C559   C     0.69949   0.10458   0.85554   0.00000  Uiso   1.00
C560   C     0.69948   0.20485   0.83064   0.00000  Uiso   1.00
C561   C     0.70310   0.35070   0.76705   0.00000  Uiso   1.00
C562   C     0.65107   0.98582   0.98757   0.00000  Uiso   1.00
C563   C     0.62574   0.90609   0.97860   0.00000  Uiso   1.00
C564   C     0.59198   0.91559   0.00997   0.00000  Uiso   1.00
C565   C     0.53340   0.89402   0.05019   0.00000  Uiso   1.00
C566   C     0.67468   0.14995   0.02950   0.00000  Uiso   1.00
C567   C     0.70825   0.08930   0.05327   0.00000  Uiso   1.00
C568   C     0.72941   0.11345   0.10720   0.00000  Uiso   1.00
C569   C     0.75900   0.04830   0.12085   0.00000  Uiso   1.00
C570   C     0.68304   0.17983   0.95963   0.00000  Uiso   1.00
C571   C     0.68301   0.28012   0.93482   0.00000  Uiso   1.00
C572   C     0.69137   0.29119   0.86963   0.00000  Uiso   1.00
C573   C     0.64297   0.07200   0.02649   0.00000  Uiso   1.00
C574   C     0.60925   0.08163   0.05787   0.00000  Uiso   1.00
C575   C     0.58387   0.00193   0.04896   0.00000  Uiso   1.00
H576   H     0.69589   0.92419   0.92754   0.00000  Uiso   1.00
H577   H     0.75216   0.87123   0.99779   0.00000  Uiso   1.00
H578   H     0.70575   0.03787   0.82544   0.00000  Uiso   1.00
H579   H     0.63201   0.83941   0.94848   0.00000  Uiso   1.00
H580   H     0.81098   0.85054   0.09283   0.00000  Uiso   1.00
H581   H     0.71313   0.20190   0.72940   0.00000  Uiso   1.00
H582   H     0.55762   0.78342   0.98885   0.00000  Uiso   1.00
H583   H     0.66838   0.21705   0.05980   0.00000  Uiso   1.00
H584   H     0.72314   0.18015   0.13731   0.00000  Uiso   1.00
H585   H     0.67674   0.34679   0.96495   0.00000  Uiso   1.00
H586   H     0.60299   0.14834   0.08799   0.00000  Uiso   1.00
H587   H     0.78743   0.10127   0.20606   0.00000  Uiso   1.00
H588   H     0.68957   0.45264   0.84263   0.00000  Uiso   1.00
H589   H     0.53407   0.03415   0.10208   0.00000  Uiso   1.00
O590   O     0.83573   0.94637   0.19804   0.00000  Uiso   1.00
O591   O     0.70734   0.40734   0.72123   0.00000  Uiso   1.00
O592   O     0.50333   0.85830   0.06162   0.00000  Uiso   1.00
N593   N     0.79792   0.91460   0.10885   0.00000  Uiso   1.00
N594   N     0.70644   0.24311   0.76907   0.00000  Uiso   1.00
N595   N     0.56105   0.85187   0.01162   0.00000  Uiso   1.00
N596   N     0.78525   0.04952   0.16978   0.00000  Uiso   1.00
N597   N     0.69376   0.37802   0.82999   0.00000  Uiso   1.00
N598   N     0.54837   0.98679   0.07255   0.00000  Uiso   1.00
C599   C     0.68958   0.49128   0.45785   0.00000  Uiso   1.00
C600   C     0.71634   0.50311   0.51436   0.00000  Uiso   1.00
C601   C     0.74590   0.43791   0.52793   0.00000  Uiso   1.00
C602   C     0.76711   0.46197   0.58186   0.00000  Uiso   1.00
C603   C     0.80989   0.46725   0.66367   0.00000  Uiso   1.00
C604   C     0.69113   0.59366   0.42071   0.00000  Uiso   1.00
C605   C     0.69949   0.60458   0.35554   0.00000  Uiso   1.00
C606   C     0.69948   0.70485   0.33064   0.00000  Uiso   1.00
C607   C     0.70310   0.85070   0.26705   0.00000  Uiso   1.00
C608   C     0.65107   0.48582   0.48757   0.00000  Uiso   1.00
C609   C     0.62574   0.40609   0.47860   0.00000  Uiso   1.00
C610   C     0.59198   0.41559   0.50997   0.00000  Uiso   1.00
C611   C     0.53340   0.39402   0.55019   0.00000  Uiso   1.00
C612   C     0.67468   0.64995   0.52950   0.00000  Uiso   1.00
C613   C     0.70825   0.58930   0.55327   0.00000  Uiso   1.00
C614   C     0.72941   0.61345   0.60720   0.00000  Uiso   1.00
C615   C     0.75900   0.54830   0.62085   0.00000  Uiso   1.00
C616   C     0.68304   0.67983   0.45963   0.00000  Uiso   1.00
C617   C     0.68301   0.78012   0.43482   0.00000  Uiso   1.00
C618   C     0.69137   0.79119   0.36963   0.00000  Uiso   1.00
C619   C     0.64297   0.57200   0.52649   0.00000  Uiso   1.00
C620   C     0.60925   0.58163   0.55787   0.00000  Uiso   1.00
C621   C     0.58387   0.50193   0.54896   0.00000  Uiso   1.00
H622   H     0.69589   0.42419   0.42754   0.00000  Uiso   1.00
H623   H     0.75216   0.37123   0.49779   0.00000  Uiso   1.00
H624   H     0.70575   0.53787   0.32544   0.00000  Uiso   1.00
H625   H     0.63201   0.33941   0.44848   0.00000  Uiso   1.00
H626   H     0.81098   0.35054   0.59283   0.00000  Uiso   1.00
H627   H     0.71313   0.70190   0.22940   0.00000  Uiso   1.00
H628   H     0.55762   0.28342   0.48885   0.00000  Uiso   1.00
H629   H     0.66838   0.71705   0.55980   0.00000  Uiso   1.00
H630   H     0.72314   0.68015   0.63731   0.00000  Uiso   1.00
H631   H     0.67674   0.84679   0.46495   0.00000  Uiso   1.00
H632   H     0.60299   0.64834   0.58799   0.00000  Uiso   1.00
H633   H     0.78743   0.60127   0.70606   0.00000  Uiso   1.00
H634   H     0.68957   0.95264   0.34263   0.00000  Uiso   1.00
H635   H     0.53407   0.53415   0.60208   0.00000  Uiso   1.00
O636   O     0.83573   0.44637   0.69804   0.00000  Uiso   1.00
O637   O     0.70734   0.90734   0.22123   0.00000  Uiso   1.00
O638   O     0.50333   0.35830   0.56162   0.00000  Uiso   1.00
N639   N     0.79792   0.41460   0.60885   0.00000  Uiso   1.00
N640   N     0.70644   0.74311   0.26907   0.00000  Uiso   1.00
N641   N     0.56105   0.35187   0.51162   0.00000  Uiso   1.00
N642   N     0.78525   0.54952   0.66978   0.00000  Uiso   1.00
N643   N     0.69376   0.87802   0.32999   0.00000  Uiso   1.00
N644   N     0.54837   0.48679   0.57255   0.00000  Uiso   1.00
C645   C     0.18958   0.99128   0.45785   0.00000  Uiso   1.00
C646   C     0.21634   0.00311   0.51436   0.00000  Uiso   1.00
C647   C     0.24590   0.93791   0.52793   0.00000  Uiso   1.00
C648   C     0.26711   0.96197   0.58186   0.00000  Uiso   1.00
C649   C     0.30989   0.96725   0.66367   0.00000  Uiso   1.00
C650   C     0.19113   0.09366   0.42071   0.00000  Uiso   1.00
C651   C     0.19949   0.10458   0.35554   0.00000  Uiso   1.00
C652   C     0.19948   0.20485   0.33064   0.00000  Uiso   1.00
C653   C     0.20310   0.35070   0.26705   0.00000  Uiso   1.00
C654   C     0.15107   0.98582   0.48757   0.00000  Uiso   1.00
C655   C     0.12574   0.90609   0.47860   0.00000  Uiso   1.00
C656   C     0.09198   0.91559   0.50997   0.00000  Uiso   1.00
C657   C     0.03340   0.89402   0.55019   0.00000  Uiso   1.00
C658   C     0.17468   0.14995   0.52950   0.00000  Uiso   1.00
C659   C     0.20825   0.08930   0.55327   0.00000  Uiso   1.00
C660   C     0.22941   0.11345   0.60720   0.00000  Uiso   1.00
C661   C     0.25900   0.04830   0.62085   0.00000  Uiso   1.00
C662   C     0.18304   0.17983   0.45963   0.00000  Uiso   1.00
C663   C     0.18301   0.28012   0.43482   0.00000  Uiso   1.00
C664   C     0.19137   0.29119   0.36963   0.00000  Uiso   1.00
C665   C     0.14297   0.07200   0.52649   0.00000  Uiso   1.00
C666   C     0.10925   0.08163   0.55787   0.00000  Uiso   1.00
C667   C     0.08387   0.00193   0.54896   0.00000  Uiso   1.00
H668   H     0.19589   0.92419   0.42754   0.00000  Uiso   1.00
H669   H     0.25216   0.87123   0.49779   0.00000  Uiso   1.00
H670   H     0.20575   0.03787   0.32544   0.00000  Uiso   1.00
H671   H     0.13201   0.83941   0.44848   0.00000  Uiso   1.00
H672   H     0.31098   0.85054   0.59283   0.00000  Uiso   1.00
H673   H     0.21313   0.20190   0.22940   0.00000  Uiso   1.00
H674   H     0.05762   0.78342   0.48885   0.00000  Uiso   1.00
H675   H     0.16838   0.21705   0.55980   0.00000  Uiso   1.00
H676   H     0.22314   0.18015   0.63731   0.00000  Uiso   1.00
H677   H     0.17674   0.34679   0.46495   0.00000  Uiso   1.00
H678   H     0.10299   0.14834   0.58799   0.00000  Uiso   1.00
H679   H     0.28743   0.10127   0.70606   0.00000  Uiso   1.00
H680   H     0.18957   0.45264   0.34263   0.00000  Uiso   1.00
H681   H     0.03407   0.03415   0.60208   0.00000  Uiso   1.00
O682   O     0.33573   0.94637   0.69804   0.00000  Uiso   1.00
O683   O     0.20734   0.40734   0.22123   0.00000  Uiso   1.00
O684   O     0.00333   0.85830   0.56162   0.00000  Uiso   1.00
N685   N     0.29792   0.91460   0.60885   0.00000  Uiso   1.00
N686   N     0.20644   0.24311   0.26907   0.00000  Uiso   1.00
N687   N     0.06105   0.85187   0.51162   0.00000  Uiso   1.00
N688   N     0.28525   0.04952   0.66978   0.00000  Uiso   1.00
N689   N     0.19376   0.37802   0.32999   0.00000  Uiso   1.00
N690   N     0.04837   0.98679   0.57255   0.00000  Uiso   1.00
C691   C     0.18958   0.49128   0.95785   0.00000  Uiso   1.00
C692   C     0.21634   0.50311   0.01436   0.00000  Uiso   1.00
C693   C     0.24590   0.43791   0.02793   0.00000  Uiso   1.00
C694   C     0.26711   0.46197   0.08186   0.00000  Uiso   1.00
C695   C     0.30989   0.46725   0.16367   0.00000  Uiso   1.00
C696   C     0.19113   0.59366   0.92071   0.00000  Uiso   1.00
C697   C     0.19949   0.60458   0.85554   0.00000  Uiso   1.00
C698   C     0.19948   0.70485   0.83064   0.00000  Uiso   1.00
C699   C     0.20310   0.85070   0.76705   0.00000  Uiso   1.00
C700   C     0.15107   0.48582   0.98757   0.00000  Uiso   1.00
C701   C     0.12574   0.40609   0.97860   0.00000  Uiso   1.00
C702   C     0.09198   0.41559   0.00997   0.00000  Uiso   1.00
C703   C     0.03340   0.39402   0.05019   0.00000  Uiso   1.00
C704   C     0.17468   0.64995   0.02950   0.00000  Uiso   1.00
C705   C     0.20825   0.58930   0.05327   0.00000  Uiso   1.00
C706   C     0.22941   0.61345   0.10720   0.00000  Uiso   1.00
C707   C     0.25900   0.54830   0.12085   0.00000  Uiso   1.00
C708   C     0.18304   0.67983   0.95963   0.00000  Uiso   1.00
C709   C     0.18301   0.78012   0.93482   0.00000  Uiso   1.00
C710   C     0.19137   0.79119   0.86963   0.00000  Uiso   1.00
C711   C     0.14297   0.57200   0.02649   0.00000  Uiso   1.00
C712   C     0.10925   0.58163   0.05787   0.00000  Uiso   1.00
C713   C     0.08387   0.50193   0.04896   0.00000  Uiso   1.00
H714   H     0.19589   0.42419   0.92754   0.00000  Uiso   1.00
H715   H     0.25216   0.37123   0.99779   0.00000  Uiso   1.00
H716   H     0.20575   0.53787   0.82544   0.00000  Uiso   1.00
H717   H     0.13201   0.33941   0.94848   0.00000  Uiso   1.00
H718   H     0.31098   0.35054   0.09283   0.00000  Uiso   1.00
H719   H     0.21313   0.70190   0.72940   0.00000  Uiso   1.00
H720   H     0.05762   0.28342   0.98885   0.00000  Uiso   1.00
H721   H     0.16838   0.71705   0.05980   0.00000  Uiso   1.00
H722   H     0.22314   0.68015   0.13731   0.00000  Uiso   1.00
H723   H     0.17674   0.84679   0.96495   0.00000  Uiso   1.00
H724   H     0.10299   0.64834   0.08799   0.00000  Uiso   1.00
H725   H     0.28743   0.60127   0.20606   0.00000  Uiso   1.00
H726   H     0.18957   0.95264   0.84263   0.00000  Uiso   1.00
H727   H     0.03407   0.53415   0.10208   0.00000  Uiso   1.00
O728   O     0.33573   0.44637   0.19804   0.00000  Uiso   1.00
O729   O     0.20734   0.90734   0.72123   0.00000  Uiso   1.00
O730   O     0.00333   0.35830   0.06162   0.00000  Uiso   1.00
N731   N     0.29792   0.41460   0.10885   0.00000  Uiso   1.00
N732   N     0.20644   0.74311   0.76907   0.00000  Uiso   1.00
N733   N     0.06105   0.35187   0.01162   0.00000  Uiso   1.00
N734   N     0.28525   0.54952   0.16978   0.00000  Uiso   1.00
N735   N     0.19376   0.87802   0.82999   0.00000  Uiso   1.00
N736   N     0.04837   0.48679   0.07255   0.00000  Uiso   1.00
