data_job_02914
_audit_creation_date              2018-12-19
_audit_creation_method            'Materials Studio'
_symmetry_space_group_name_H-M    'P1'
_symmetry_Int_Tables_number       1
_symmetry_cell_setting            triclinic
loop_
_symmetry_equiv_pos_as_xyz
  x,y,z
_cell_length_a                    26.7382
_cell_length_b                    20.9062
_cell_length_c                    20.1740
_cell_angle_alpha                 90.0000
_cell_angle_beta                  90.0000
_cell_angle_gamma                 90.0000
loop_
_atom_site_label
_atom_site_type_symbol
_atom_site_fract_x
_atom_site_fract_y
_atom_site_fract_z
_atom_site_U_iso_or_equiv
_atom_site_adp_type
_atom_site_occupancy
C1     C     0.41162   0.89845   0.74617   0.00000  Uiso   1.00
C2     C     0.38390   0.89518   0.81214   0.00000  Uiso   1.00
C3     C     0.40254   0.91492   0.87299   0.00000  Uiso   1.00
C4     C     0.37134   0.90794   0.92752   0.00000  Uiso   1.00
C5     C     0.33562   0.90676   0.03090   0.00000  Uiso   1.00
C6     C     0.41193   0.83044   0.71885   0.00000  Uiso   1.00
C7     C     0.45414   0.79575   0.70126   0.00000  Uiso   1.00
C8     C     0.44653   0.73428   0.67726   0.00000  Uiso   1.00
C9     C     0.45433   0.63260   0.63576   0.00000  Uiso   1.00
C10    C     0.37834   0.93718   0.69973   0.00000  Uiso   1.00
C11    C     0.39232   0.99223   0.66604   0.00000  Uiso   1.00
C12    C     0.35643   0.02062   0.62592   0.00000  Uiso   1.00
C13    C     0.31208   0.08467   0.55473   0.00000  Uiso   1.00
C14    C     0.32304   0.85096   0.73481   0.00000  Uiso   1.00
C15    C     0.33578   0.86939   0.80597   0.00000  Uiso   1.00
C16    C     0.30454   0.86238   0.86042   0.00000  Uiso   1.00
C17    C     0.32314   0.88210   0.92134   0.00000  Uiso   1.00
C18    C     0.36382   0.80465   0.71268   0.00000  Uiso   1.00
C19    C     0.35614   0.74321   0.68869   0.00000  Uiso   1.00
C20    C     0.39833   0.70843   0.67107   0.00000  Uiso   1.00
C21    C     0.33022   0.91139   0.69356   0.00000  Uiso   1.00
C22    C     0.29431   0.93969   0.65348   0.00000  Uiso   1.00
C23    C     0.30823   0.99477   0.61974   0.00000  Uiso   1.00
H24    H     0.44908   0.91853   0.75097   0.00000  Uiso   1.00
H25    H     0.43978   0.93487   0.87775   0.00000  Uiso   1.00
H26    H     0.49137   0.81573   0.70604   0.00000  Uiso   1.00
H27    H     0.42955   0.01218   0.67083   0.00000  Uiso   1.00
H28    H     0.40826   0.94160   0.01558   0.00000  Uiso   1.00
H29    H     0.51704   0.69038   0.65350   0.00000  Uiso   1.00
H30    H     0.38668   0.10463   0.57926   0.00000  Uiso   1.00
H31    H     0.28558   0.83088   0.73000   0.00000  Uiso   1.00
H32    H     0.26731   0.84241   0.85563   0.00000  Uiso   1.00
H33    H     0.31890   0.72327   0.68392   0.00000  Uiso   1.00
H34    H     0.25709   0.91972   0.64871   0.00000  Uiso   1.00
H35    H     0.26828   0.86655   0.99763   0.00000  Uiso   1.00
H36    H     0.37706   0.61533   0.63555   0.00000  Uiso   1.00
H37    H     0.24670   0.02958   0.56131   0.00000  Uiso   1.00
O38    O     0.32921   0.91322   0.08963   0.00000  Uiso   1.00
O39    O     0.47192   0.58364   0.61458   0.00000  Uiso   1.00
O40    O     0.30090   0.12713   0.51718   0.00000  Uiso   1.00
N41    N     0.37782   0.92236   0.99411   0.00000  Uiso   1.00
N42    N     0.47952   0.68748   0.65560   0.00000  Uiso   1.00
N43    N     0.35766   0.07477   0.58618   0.00000  Uiso   1.00
N44    N     0.30250   0.88198   0.98445   0.00000  Uiso   1.00
N45    N     0.40420   0.64710   0.64594   0.00000  Uiso   1.00
N46    N     0.28233   0.03439   0.57652   0.00000  Uiso   1.00
C47    C     0.91162   0.39845   0.74617   0.00000  Uiso   1.00
C48    C     0.88390   0.39518   0.81214   0.00000  Uiso   1.00
C49    C     0.90254   0.41492   0.87299   0.00000  Uiso   1.00
C50    C     0.87134   0.40794   0.92752   0.00000  Uiso   1.00
C51    C     0.83562   0.40676   0.03090   0.00000  Uiso   1.00
C52    C     0.91193   0.33044   0.71885   0.00000  Uiso   1.00
C53    C     0.95414   0.29575   0.70126   0.00000  Uiso   1.00
C54    C     0.94653   0.23428   0.67726   0.00000  Uiso   1.00
C55    C     0.95433   0.13260   0.63576   0.00000  Uiso   1.00
C56    C     0.87834   0.43718   0.69973   0.00000  Uiso   1.00
C57    C     0.89232   0.49223   0.66604   0.00000  Uiso   1.00
C58    C     0.85643   0.52062   0.62592   0.00000  Uiso   1.00
C59    C     0.81208   0.58467   0.55473   0.00000  Uiso   1.00
C60    C     0.82304   0.35096   0.73481   0.00000  Uiso   1.00
C61    C     0.83578   0.36939   0.80597   0.00000  Uiso   1.00
C62    C     0.80454   0.36238   0.86042   0.00000  Uiso   1.00
C63    C     0.82314   0.38210   0.92134   0.00000  Uiso   1.00
C64    C     0.86382   0.30465   0.71268   0.00000  Uiso   1.00
C65    C     0.85614   0.24321   0.68869   0.00000  Uiso   1.00
C66    C     0.89833   0.20843   0.67107   0.00000  Uiso   1.00
C67    C     0.83022   0.41139   0.69356   0.00000  Uiso   1.00
C68    C     0.79431   0.43969   0.65348   0.00000  Uiso   1.00
C69    C     0.80823   0.49477   0.61974   0.00000  Uiso   1.00
H70    H     0.94908   0.41853   0.75097   0.00000  Uiso   1.00
H71    H     0.93978   0.43487   0.87775   0.00000  Uiso   1.00
H72    H     0.99137   0.31573   0.70604   0.00000  Uiso   1.00
H73    H     0.92955   0.51218   0.67083   0.00000  Uiso   1.00
H74    H     0.90826   0.44160   0.01558   0.00000  Uiso   1.00
H75    H     0.01704   0.19038   0.65350   0.00000  Uiso   1.00
H76    H     0.88668   0.60463   0.57926   0.00000  Uiso   1.00
H77    H     0.78558   0.33088   0.73000   0.00000  Uiso   1.00
H78    H     0.76731   0.34241   0.85563   0.00000  Uiso   1.00
H79    H     0.81890   0.22327   0.68392   0.00000  Uiso   1.00
H80    H     0.75709   0.41972   0.64871   0.00000  Uiso   1.00
H81    H     0.76828   0.36655   0.99763   0.00000  Uiso   1.00
H82    H     0.87706   0.11533   0.63555   0.00000  Uiso   1.00
H83    H     0.74670   0.52958   0.56131   0.00000  Uiso   1.00
O84    O     0.82921   0.41322   0.08963   0.00000  Uiso   1.00
O85    O     0.97192   0.08364   0.61458   0.00000  Uiso   1.00
O86    O     0.80090   0.62713   0.51718   0.00000  Uiso   1.00
N87    N     0.87782   0.42236   0.99411   0.00000  Uiso   1.00
N88    N     0.97952   0.18748   0.65560   0.00000  Uiso   1.00
N89    N     0.85766   0.57477   0.58618   0.00000  Uiso   1.00
N90    N     0.80250   0.38198   0.98445   0.00000  Uiso   1.00
N91    N     0.90420   0.14710   0.64594   0.00000  Uiso   1.00
N92    N     0.78233   0.53439   0.57652   0.00000  Uiso   1.00
C93    C     0.08838   0.60155   0.74617   0.00000  Uiso   1.00
C94    C     0.11610   0.60482   0.81214   0.00000  Uiso   1.00
C95    C     0.09746   0.58508   0.87299   0.00000  Uiso   1.00
C96    C     0.12866   0.59206   0.92752   0.00000  Uiso   1.00
C97    C     0.16438   0.59324   0.03090   0.00000  Uiso   1.00
C98    C     0.08807   0.66956   0.71885   0.00000  Uiso   1.00
C99    C     0.04586   0.70425   0.70126   0.00000  Uiso   1.00
C100   C     0.05347   0.76572   0.67726   0.00000  Uiso   1.00
C101   C     0.04567   0.86740   0.63576   0.00000  Uiso   1.00
C102   C     0.12166   0.56282   0.69973   0.00000  Uiso   1.00
C103   C     0.10768   0.50777   0.66604   0.00000  Uiso   1.00
C104   C     0.14357   0.47938   0.62592   0.00000  Uiso   1.00
C105   C     0.18792   0.41533   0.55473   0.00000  Uiso   1.00
C106   C     0.17696   0.64904   0.73481   0.00000  Uiso   1.00
C107   C     0.16422   0.63061   0.80597   0.00000  Uiso   1.00
C108   C     0.19546   0.63762   0.86042   0.00000  Uiso   1.00
C109   C     0.17686   0.61790   0.92134   0.00000  Uiso   1.00
C110   C     0.13618   0.69535   0.71268   0.00000  Uiso   1.00
C111   C     0.14386   0.75679   0.68869   0.00000  Uiso   1.00
C112   C     0.10167   0.79157   0.67107   0.00000  Uiso   1.00
C113   C     0.16978   0.58861   0.69356   0.00000  Uiso   1.00
C114   C     0.20569   0.56031   0.65348   0.00000  Uiso   1.00
C115   C     0.19177   0.50523   0.61974   0.00000  Uiso   1.00
H116   H     0.05092   0.58147   0.75097   0.00000  Uiso   1.00
H117   H     0.06022   0.56513   0.87775   0.00000  Uiso   1.00
H118   H     0.00863   0.68427   0.70604   0.00000  Uiso   1.00
H119   H     0.07045   0.48782   0.67083   0.00000  Uiso   1.00
H120   H     0.09174   0.55840   0.01558   0.00000  Uiso   1.00
H121   H     0.98296   0.80962   0.65350   0.00000  Uiso   1.00
H122   H     0.11332   0.39537   0.57926   0.00000  Uiso   1.00
H123   H     0.21442   0.66912   0.73000   0.00000  Uiso   1.00
H124   H     0.23269   0.65759   0.85563   0.00000  Uiso   1.00
H125   H     0.18110   0.77673   0.68392   0.00000  Uiso   1.00
H126   H     0.24291   0.58028   0.64871   0.00000  Uiso   1.00
H127   H     0.23172   0.63345   0.99763   0.00000  Uiso   1.00
H128   H     0.12294   0.88467   0.63555   0.00000  Uiso   1.00
H129   H     0.25330   0.47042   0.56131   0.00000  Uiso   1.00
O130   O     0.17079   0.58678   0.08963   0.00000  Uiso   1.00
O131   O     0.02808   0.91636   0.61458   0.00000  Uiso   1.00
O132   O     0.19910   0.37287   0.51718   0.00000  Uiso   1.00
N133   N     0.12218   0.57764   0.99411   0.00000  Uiso   1.00
N134   N     0.02048   0.81252   0.65560   0.00000  Uiso   1.00
N135   N     0.14234   0.42523   0.58618   0.00000  Uiso   1.00
N136   N     0.19750   0.61802   0.98445   0.00000  Uiso   1.00
N137   N     0.09580   0.85290   0.64594   0.00000  Uiso   1.00
N138   N     0.21767   0.46561   0.57652   0.00000  Uiso   1.00
C139   C     0.58838   0.10155   0.74617   0.00000  Uiso   1.00
C140   C     0.61610   0.10482   0.81214   0.00000  Uiso   1.00
C141   C     0.59746   0.08508   0.87299   0.00000  Uiso   1.00
C142   C     0.62866   0.09206   0.92752   0.00000  Uiso   1.00
C143   C     0.66438   0.09324   0.03090   0.00000  Uiso   1.00
C144   C     0.58807   0.16956   0.71885   0.00000  Uiso   1.00
C145   C     0.54586   0.20425   0.70126   0.00000  Uiso   1.00
C146   C     0.55347   0.26572   0.67726   0.00000  Uiso   1.00
C147   C     0.54567   0.36740   0.63576   0.00000  Uiso   1.00
C148   C     0.62166   0.06282   0.69973   0.00000  Uiso   1.00
C149   C     0.60768   0.00777   0.66604   0.00000  Uiso   1.00
C150   C     0.64357   0.97938   0.62592   0.00000  Uiso   1.00
C151   C     0.68792   0.91533   0.55473   0.00000  Uiso   1.00
C152   C     0.67696   0.14904   0.73481   0.00000  Uiso   1.00
C153   C     0.66422   0.13061   0.80597   0.00000  Uiso   1.00
C154   C     0.69546   0.13762   0.86042   0.00000  Uiso   1.00
C155   C     0.67686   0.11790   0.92134   0.00000  Uiso   1.00
C156   C     0.63618   0.19535   0.71268   0.00000  Uiso   1.00
C157   C     0.64386   0.25679   0.68869   0.00000  Uiso   1.00
C158   C     0.60167   0.29157   0.67107   0.00000  Uiso   1.00
C159   C     0.66978   0.08861   0.69356   0.00000  Uiso   1.00
C160   C     0.70569   0.06031   0.65348   0.00000  Uiso   1.00
C161   C     0.69177   0.00523   0.61974   0.00000  Uiso   1.00
H162   H     0.55092   0.08147   0.75097   0.00000  Uiso   1.00
H163   H     0.56022   0.06513   0.87775   0.00000  Uiso   1.00
H164   H     0.50863   0.18427   0.70604   0.00000  Uiso   1.00
H165   H     0.57045   0.98782   0.67083   0.00000  Uiso   1.00
H166   H     0.59174   0.05840   0.01558   0.00000  Uiso   1.00
H167   H     0.48296   0.30962   0.65350   0.00000  Uiso   1.00
H168   H     0.61332   0.89537   0.57926   0.00000  Uiso   1.00
H169   H     0.71442   0.16912   0.73000   0.00000  Uiso   1.00
H170   H     0.73269   0.15759   0.85563   0.00000  Uiso   1.00
H171   H     0.68110   0.27673   0.68392   0.00000  Uiso   1.00
H172   H     0.74291   0.08028   0.64871   0.00000  Uiso   1.00
H173   H     0.73172   0.13345   0.99763   0.00000  Uiso   1.00
H174   H     0.62294   0.38467   0.63555   0.00000  Uiso   1.00
H175   H     0.75330   0.97042   0.56131   0.00000  Uiso   1.00
O176   O     0.67079   0.08678   0.08963   0.00000  Uiso   1.00
O177   O     0.52808   0.41636   0.61458   0.00000  Uiso   1.00
O178   O     0.69910   0.87287   0.51718   0.00000  Uiso   1.00
N179   N     0.62218   0.07764   0.99411   0.00000  Uiso   1.00
N180   N     0.52048   0.31252   0.65560   0.00000  Uiso   1.00
N181   N     0.64234   0.92523   0.58618   0.00000  Uiso   1.00
N182   N     0.69750   0.11802   0.98445   0.00000  Uiso   1.00
N183   N     0.59580   0.35290   0.64594   0.00000  Uiso   1.00
N184   N     0.71767   0.96561   0.57652   0.00000  Uiso   1.00
C185   C     0.58838   0.89845   0.25383   0.00000  Uiso   1.00
C186   C     0.61610   0.89518   0.18786   0.00000  Uiso   1.00
C187   C     0.59746   0.91492   0.12701   0.00000  Uiso   1.00
C188   C     0.62866   0.90794   0.07248   0.00000  Uiso   1.00
C189   C     0.66438   0.90676   0.96910   0.00000  Uiso   1.00
C190   C     0.58807   0.83044   0.28115   0.00000  Uiso   1.00
C191   C     0.54586   0.79575   0.29874   0.00000  Uiso   1.00
C192   C     0.55347   0.73428   0.32274   0.00000  Uiso   1.00
C193   C     0.54567   0.63260   0.36424   0.00000  Uiso   1.00
C194   C     0.62166   0.93718   0.30027   0.00000  Uiso   1.00
C195   C     0.60768   0.99223   0.33396   0.00000  Uiso   1.00
C196   C     0.64357   0.02062   0.37408   0.00000  Uiso   1.00
C197   C     0.68792   0.08467   0.44527   0.00000  Uiso   1.00
C198   C     0.67696   0.85096   0.26519   0.00000  Uiso   1.00
C199   C     0.66422   0.86939   0.19403   0.00000  Uiso   1.00
C200   C     0.69546   0.86238   0.13958   0.00000  Uiso   1.00
C201   C     0.67686   0.88210   0.07866   0.00000  Uiso   1.00
C202   C     0.63618   0.80465   0.28732   0.00000  Uiso   1.00
C203   C     0.64386   0.74321   0.31131   0.00000  Uiso   1.00
C204   C     0.60167   0.70843   0.32893   0.00000  Uiso   1.00
C205   C     0.66978   0.91139   0.30644   0.00000  Uiso   1.00
C206   C     0.70569   0.93969   0.34652   0.00000  Uiso   1.00
C207   C     0.69177   0.99477   0.38026   0.00000  Uiso   1.00
H208   H     0.55092   0.91853   0.24903   0.00000  Uiso   1.00
H209   H     0.56022   0.93487   0.12225   0.00000  Uiso   1.00
H210   H     0.50863   0.81573   0.29396   0.00000  Uiso   1.00
H211   H     0.57045   0.01218   0.32917   0.00000  Uiso   1.00
H212   H     0.59174   0.94160   0.98442   0.00000  Uiso   1.00
H213   H     0.48296   0.69038   0.34650   0.00000  Uiso   1.00
H214   H     0.61332   0.10463   0.42074   0.00000  Uiso   1.00
H215   H     0.71442   0.83088   0.27000   0.00000  Uiso   1.00
H216   H     0.73269   0.84241   0.14437   0.00000  Uiso   1.00
H217   H     0.68110   0.72327   0.31608   0.00000  Uiso   1.00
H218   H     0.74291   0.91972   0.35129   0.00000  Uiso   1.00
H219   H     0.73172   0.86655   0.00237   0.00000  Uiso   1.00
H220   H     0.62294   0.61533   0.36445   0.00000  Uiso   1.00
H221   H     0.75330   0.02958   0.43869   0.00000  Uiso   1.00
O222   O     0.67079   0.91322   0.91037   0.00000  Uiso   1.00
O223   O     0.52808   0.58364   0.38542   0.00000  Uiso   1.00
O224   O     0.69910   0.12713   0.48282   0.00000  Uiso   1.00
N225   N     0.62218   0.92236   0.00589   0.00000  Uiso   1.00
N226   N     0.52048   0.68748   0.34440   0.00000  Uiso   1.00
N227   N     0.64234   0.07477   0.41382   0.00000  Uiso   1.00
N228   N     0.69750   0.88198   0.01555   0.00000  Uiso   1.00
N229   N     0.59580   0.64710   0.35406   0.00000  Uiso   1.00
N230   N     0.71767   0.03439   0.42348   0.00000  Uiso   1.00
C231   C     0.08838   0.39845   0.25383   0.00000  Uiso   1.00
C232   C     0.11610   0.39518   0.18786   0.00000  Uiso   1.00
C233   C     0.09746   0.41492   0.12701   0.00000  Uiso   1.00
C234   C     0.12866   0.40794   0.07248   0.00000  Uiso   1.00
C235   C     0.16438   0.40676   0.96910   0.00000  Uiso   1.00
C236   C     0.08807   0.33044   0.28115   0.00000  Uiso   1.00
C237   C     0.04586   0.29575   0.29874   0.00000  Uiso   1.00
C238   C     0.05347   0.23428   0.32274   0.00000  Uiso   1.00
C239   C     0.04567   0.13260   0.36424   0.00000  Uiso   1.00
C240   C     0.12166   0.43718   0.30027   0.00000  Uiso   1.00
C241   C     0.10768   0.49223   0.33396   0.00000  Uiso   1.00
C242   C     0.14357   0.52062   0.37408   0.00000  Uiso   1.00
C243   C     0.18792   0.58467   0.44527   0.00000  Uiso   1.00
C244   C     0.17696   0.35096   0.26519   0.00000  Uiso   1.00
C245   C     0.16422   0.36939   0.19403   0.00000  Uiso   1.00
C246   C     0.19546   0.36238   0.13958   0.00000  Uiso   1.00
C247   C     0.17686   0.38210   0.07866   0.00000  Uiso   1.00
C248   C     0.13618   0.30465   0.28732   0.00000  Uiso   1.00
C249   C     0.14386   0.24321   0.31131   0.00000  Uiso   1.00
C250   C     0.10167   0.20843   0.32893   0.00000  Uiso   1.00
C251   C     0.16978   0.41139   0.30644   0.00000  Uiso   1.00
C252   C     0.20569   0.43969   0.34652   0.00000  Uiso   1.00
C253   C     0.19177   0.49477   0.38026   0.00000  Uiso   1.00
H254   H     0.05092   0.41853   0.24903   0.00000  Uiso   1.00
H255   H     0.06022   0.43487   0.12225   0.00000  Uiso   1.00
H256   H     0.00863   0.31573   0.29396   0.00000  Uiso   1.00
H257   H     0.07045   0.51218   0.32917   0.00000  Uiso   1.00
H258   H     0.09174   0.44160   0.98442   0.00000  Uiso   1.00
H259   H     0.98296   0.19038   0.34650   0.00000  Uiso   1.00
H260   H     0.11332   0.60463   0.42074   0.00000  Uiso   1.00
H261   H     0.21442   0.33088   0.27000   0.00000  Uiso   1.00
H262   H     0.23269   0.34241   0.14437   0.00000  Uiso   1.00
H263   H     0.18110   0.22327   0.31608   0.00000  Uiso   1.00
H264   H     0.24291   0.41972   0.35129   0.00000  Uiso   1.00
H265   H     0.23172   0.36655   0.00237   0.00000  Uiso   1.00
H266   H     0.12294   0.11533   0.36445   0.00000  Uiso   1.00
H267   H     0.25330   0.52958   0.43869   0.00000  Uiso   1.00
O268   O     0.17079   0.41322   0.91037   0.00000  Uiso   1.00
O269   O     0.02808   0.08364   0.38542   0.00000  Uiso   1.00
O270   O     0.19910   0.62713   0.48282   0.00000  Uiso   1.00
N271   N     0.12218   0.42236   0.00589   0.00000  Uiso   1.00
N272   N     0.02048   0.18748   0.34440   0.00000  Uiso   1.00
N273   N     0.14234   0.57477   0.41382   0.00000  Uiso   1.00
N274   N     0.19750   0.38198   0.01555   0.00000  Uiso   1.00
N275   N     0.09580   0.14710   0.35406   0.00000  Uiso   1.00
N276   N     0.21767   0.53439   0.42348   0.00000  Uiso   1.00
C277   C     0.91162   0.60155   0.25383   0.00000  Uiso   1.00
C278   C     0.88390   0.60482   0.18786   0.00000  Uiso   1.00
C279   C     0.90254   0.58508   0.12701   0.00000  Uiso   1.00
C280   C     0.87134   0.59206   0.07248   0.00000  Uiso   1.00
C281   C     0.83562   0.59324   0.96910   0.00000  Uiso   1.00
C282   C     0.91193   0.66956   0.28115   0.00000  Uiso   1.00
C283   C     0.95414   0.70425   0.29874   0.00000  Uiso   1.00
C284   C     0.94653   0.76572   0.32274   0.00000  Uiso   1.00
C285   C     0.95433   0.86740   0.36424   0.00000  Uiso   1.00
C286   C     0.87834   0.56282   0.30027   0.00000  Uiso   1.00
C287   C     0.89232   0.50777   0.33396   0.00000  Uiso   1.00
C288   C     0.85643   0.47938   0.37408   0.00000  Uiso   1.00
C289   C     0.81208   0.41533   0.44527   0.00000  Uiso   1.00
C290   C     0.82304   0.64904   0.26519   0.00000  Uiso   1.00
C291   C     0.83578   0.63061   0.19403   0.00000  Uiso   1.00
C292   C     0.80454   0.63762   0.13958   0.00000  Uiso   1.00
C293   C     0.82314   0.61790   0.07866   0.00000  Uiso   1.00
C294   C     0.86382   0.69535   0.28732   0.00000  Uiso   1.00
C295   C     0.85614   0.75679   0.31131   0.00000  Uiso   1.00
C296   C     0.89833   0.79157   0.32893   0.00000  Uiso   1.00
C297   C     0.83022   0.58861   0.30644   0.00000  Uiso   1.00
C298   C     0.79431   0.56031   0.34652   0.00000  Uiso   1.00
C299   C     0.80823   0.50523   0.38026   0.00000  Uiso   1.00
H300   H     0.94908   0.58147   0.24903   0.00000  Uiso   1.00
H301   H     0.93978   0.56513   0.12225   0.00000  Uiso   1.00
H302   H     0.99137   0.68427   0.29396   0.00000  Uiso   1.00
H303   H     0.92955   0.48782   0.32917   0.00000  Uiso   1.00
H304   H     0.90826   0.55840   0.98442   0.00000  Uiso   1.00
H305   H     0.01704   0.80962   0.34650   0.00000  Uiso   1.00
H306   H     0.88668   0.39537   0.42074   0.00000  Uiso   1.00
H307   H     0.78558   0.66912   0.27000   0.00000  Uiso   1.00
H308   H     0.76731   0.65759   0.14437   0.00000  Uiso   1.00
H309   H     0.81890   0.77673   0.31608   0.00000  Uiso   1.00
H310   H     0.75709   0.58028   0.35129   0.00000  Uiso   1.00
H311   H     0.76828   0.63345   0.00237   0.00000  Uiso   1.00
H312   H     0.87706   0.88467   0.36445   0.00000  Uiso   1.00
H313   H     0.74670   0.47042   0.43869   0.00000  Uiso   1.00
O314   O     0.82921   0.58678   0.91037   0.00000  Uiso   1.00
O315   O     0.97192   0.91636   0.38542   0.00000  Uiso   1.00
O316   O     0.80090   0.37287   0.48282   0.00000  Uiso   1.00
N317   N     0.87782   0.57764   0.00589   0.00000  Uiso   1.00
N318   N     0.97952   0.81252   0.34440   0.00000  Uiso   1.00
N319   N     0.85766   0.42523   0.41382   0.00000  Uiso   1.00
N320   N     0.80250   0.61802   0.01555   0.00000  Uiso   1.00
N321   N     0.90420   0.85290   0.35406   0.00000  Uiso   1.00
N322   N     0.78233   0.46561   0.42348   0.00000  Uiso   1.00
C323   C     0.41162   0.10155   0.25383   0.00000  Uiso   1.00
C324   C     0.38390   0.10482   0.18786   0.00000  Uiso   1.00
C325   C     0.40254   0.08508   0.12701   0.00000  Uiso   1.00
C326   C     0.37134   0.09206   0.07248   0.00000  Uiso   1.00
C327   C     0.33562   0.09324   0.96910   0.00000  Uiso   1.00
C328   C     0.41193   0.16956   0.28115   0.00000  Uiso   1.00
C329   C     0.45414   0.20425   0.29874   0.00000  Uiso   1.00
C330   C     0.44653   0.26572   0.32274   0.00000  Uiso   1.00
C331   C     0.45433   0.36740   0.36424   0.00000  Uiso   1.00
C332   C     0.37834   0.06282   0.30027   0.00000  Uiso   1.00
C333   C     0.39232   0.00777   0.33396   0.00000  Uiso   1.00
C334   C     0.35643   0.97938   0.37408   0.00000  Uiso   1.00
C335   C     0.31208   0.91533   0.44527   0.00000  Uiso   1.00
C336   C     0.32304   0.14904   0.26519   0.00000  Uiso   1.00
C337   C     0.33578   0.13061   0.19403   0.00000  Uiso   1.00
C338   C     0.30454   0.13762   0.13958   0.00000  Uiso   1.00
C339   C     0.32314   0.11790   0.07866   0.00000  Uiso   1.00
C340   C     0.36382   0.19535   0.28732   0.00000  Uiso   1.00
C341   C     0.35614   0.25679   0.31131   0.00000  Uiso   1.00
C342   C     0.39833   0.29157   0.32893   0.00000  Uiso   1.00
C343   C     0.33022   0.08861   0.30644   0.00000  Uiso   1.00
C344   C     0.29431   0.06031   0.34652   0.00000  Uiso   1.00
C345   C     0.30823   0.00523   0.38026   0.00000  Uiso   1.00
H346   H     0.44908   0.08147   0.24903   0.00000  Uiso   1.00
H347   H     0.43978   0.06513   0.12225   0.00000  Uiso   1.00
H348   H     0.49137   0.18427   0.29396   0.00000  Uiso   1.00
H349   H     0.42955   0.98782   0.32917   0.00000  Uiso   1.00
H350   H     0.40826   0.05840   0.98442   0.00000  Uiso   1.00
H351   H     0.51704   0.30962   0.34650   0.00000  Uiso   1.00
H352   H     0.38668   0.89537   0.42074   0.00000  Uiso   1.00
H353   H     0.28558   0.16912   0.27000   0.00000  Uiso   1.00
H354   H     0.26731   0.15759   0.14437   0.00000  Uiso   1.00
H355   H     0.31890   0.27673   0.31608   0.00000  Uiso   1.00
H356   H     0.25709   0.08028   0.35129   0.00000  Uiso   1.00
H357   H     0.26828   0.13345   0.00237   0.00000  Uiso   1.00
H358   H     0.37706   0.38467   0.36445   0.00000  Uiso   1.00
H359   H     0.24670   0.97042   0.43869   0.00000  Uiso   1.00
O360   O     0.32921   0.08678   0.91037   0.00000  Uiso   1.00
O361   O     0.47192   0.41636   0.38542   0.00000  Uiso   1.00
O362   O     0.30090   0.87287   0.48282   0.00000  Uiso   1.00
N363   N     0.37782   0.07764   0.00589   0.00000  Uiso   1.00
N364   N     0.47952   0.31252   0.34440   0.00000  Uiso   1.00
N365   N     0.35766   0.92523   0.41382   0.00000  Uiso   1.00
N366   N     0.30250   0.11802   0.01555   0.00000  Uiso   1.00
N367   N     0.40420   0.35290   0.35406   0.00000  Uiso   1.00
N368   N     0.28233   0.96561   0.42348   0.00000  Uiso   1.00
C369   C     0.58838   0.60155   0.75383   0.00000  Uiso   1.00
C370   C     0.61610   0.60482   0.68786   0.00000  Uiso   1.00
C371   C     0.59746   0.58508   0.62701   0.00000  Uiso   1.00
C372   C     0.62866   0.59206   0.57248   0.00000  Uiso   1.00
C373   C     0.66438   0.59324   0.46910   0.00000  Uiso   1.00
C374   C     0.58807   0.66956   0.78115   0.00000  Uiso   1.00
C375   C     0.54586   0.70425   0.79874   0.00000  Uiso   1.00
C376   C     0.55347   0.76572   0.82274   0.00000  Uiso   1.00
C377   C     0.54567   0.86740   0.86424   0.00000  Uiso   1.00
C378   C     0.62166   0.56282   0.80027   0.00000  Uiso   1.00
C379   C     0.60768   0.50777   0.83396   0.00000  Uiso   1.00
C380   C     0.64357   0.47938   0.87408   0.00000  Uiso   1.00
C381   C     0.68792   0.41533   0.94527   0.00000  Uiso   1.00
C382   C     0.67696   0.64904   0.76519   0.00000  Uiso   1.00
C383   C     0.66422   0.63061   0.69403   0.00000  Uiso   1.00
C384   C     0.69546   0.63762   0.63958   0.00000  Uiso   1.00
C385   C     0.67686   0.61790   0.57866   0.00000  Uiso   1.00
C386   C     0.63618   0.69535   0.78732   0.00000  Uiso   1.00
C387   C     0.64386   0.75679   0.81131   0.00000  Uiso   1.00
C388   C     0.60167   0.79157   0.82893   0.00000  Uiso   1.00
C389   C     0.66978   0.58861   0.80644   0.00000  Uiso   1.00
C390   C     0.70569   0.56031   0.84652   0.00000  Uiso   1.00
C391   C     0.69177   0.50523   0.88026   0.00000  Uiso   1.00
H392   H     0.55092   0.58147   0.74903   0.00000  Uiso   1.00
H393   H     0.56022   0.56513   0.62225   0.00000  Uiso   1.00
H394   H     0.50863   0.68427   0.79396   0.00000  Uiso   1.00
H395   H     0.57045   0.48782   0.82917   0.00000  Uiso   1.00
H396   H     0.59174   0.55840   0.48442   0.00000  Uiso   1.00
H397   H     0.48296   0.80962   0.84650   0.00000  Uiso   1.00
H398   H     0.61332   0.39537   0.92074   0.00000  Uiso   1.00
H399   H     0.71442   0.66912   0.77000   0.00000  Uiso   1.00
H400   H     0.73269   0.65759   0.64437   0.00000  Uiso   1.00
H401   H     0.68110   0.77673   0.81608   0.00000  Uiso   1.00
H402   H     0.74291   0.58028   0.85129   0.00000  Uiso   1.00
H403   H     0.73172   0.63345   0.50237   0.00000  Uiso   1.00
H404   H     0.62294   0.88467   0.86445   0.00000  Uiso   1.00
H405   H     0.75330   0.47042   0.93869   0.00000  Uiso   1.00
O406   O     0.67079   0.58678   0.41037   0.00000  Uiso   1.00
O407   O     0.52808   0.91636   0.88542   0.00000  Uiso   1.00
O408   O     0.69910   0.37287   0.98282   0.00000  Uiso   1.00
N409   N     0.62218   0.57764   0.50589   0.00000  Uiso   1.00
N410   N     0.52048   0.81252   0.84440   0.00000  Uiso   1.00
N411   N     0.64234   0.42523   0.91382   0.00000  Uiso   1.00
N412   N     0.69750   0.61802   0.51555   0.00000  Uiso   1.00
N413   N     0.59580   0.85290   0.85406   0.00000  Uiso   1.00
N414   N     0.71767   0.46561   0.92348   0.00000  Uiso   1.00
C415   C     0.08838   0.10155   0.75383   0.00000  Uiso   1.00
C416   C     0.11610   0.10482   0.68786   0.00000  Uiso   1.00
C417   C     0.09746   0.08508   0.62701   0.00000  Uiso   1.00
C418   C     0.12866   0.09206   0.57248   0.00000  Uiso   1.00
C419   C     0.16438   0.09324   0.46910   0.00000  Uiso   1.00
C420   C     0.08807   0.16956   0.78115   0.00000  Uiso   1.00
C421   C     0.04586   0.20425   0.79874   0.00000  Uiso   1.00
C422   C     0.05347   0.26572   0.82274   0.00000  Uiso   1.00
C423   C     0.04567   0.36740   0.86424   0.00000  Uiso   1.00
C424   C     0.12166   0.06282   0.80027   0.00000  Uiso   1.00
C425   C     0.10768   0.00777   0.83396   0.00000  Uiso   1.00
C426   C     0.14357   0.97938   0.87408   0.00000  Uiso   1.00
C427   C     0.18792   0.91533   0.94527   0.00000  Uiso   1.00
C428   C     0.17696   0.14904   0.76519   0.00000  Uiso   1.00
C429   C     0.16422   0.13061   0.69403   0.00000  Uiso   1.00
C430   C     0.19546   0.13762   0.63958   0.00000  Uiso   1.00
C431   C     0.17686   0.11790   0.57866   0.00000  Uiso   1.00
C432   C     0.13618   0.19535   0.78732   0.00000  Uiso   1.00
C433   C     0.14386   0.25679   0.81131   0.00000  Uiso   1.00
C434   C     0.10167   0.29157   0.82893   0.00000  Uiso   1.00
C435   C     0.16978   0.08861   0.80644   0.00000  Uiso   1.00
C436   C     0.20569   0.06031   0.84652   0.00000  Uiso   1.00
C437   C     0.19177   0.00523   0.88026   0.00000  Uiso   1.00
H438   H     0.05092   0.08147   0.74903   0.00000  Uiso   1.00
H439   H     0.06022   0.06513   0.62225   0.00000  Uiso   1.00
H440   H     0.00863   0.18427   0.79396   0.00000  Uiso   1.00
H441   H     0.07045   0.98782   0.82917   0.00000  Uiso   1.00
H442   H     0.09174   0.05840   0.48442   0.00000  Uiso   1.00
H443   H     0.98296   0.30962   0.84650   0.00000  Uiso   1.00
H444   H     0.11332   0.89537   0.92074   0.00000  Uiso   1.00
H445   H     0.21442   0.16912   0.77000   0.00000  Uiso   1.00
H446   H     0.23269   0.15759   0.64437   0.00000  Uiso   1.00
H447   H     0.18110   0.27673   0.81608   0.00000  Uiso   1.00
H448   H     0.24291   0.08028   0.85129   0.00000  Uiso   1.00
H449   H     0.23172   0.13345   0.50237   0.00000  Uiso   1.00
H450   H     0.12294   0.38467   0.86445   0.00000  Uiso   1.00
H451   H     0.25330   0.97042   0.93869   0.00000  Uiso   1.00
O452   O     0.17079   0.08678   0.41037   0.00000  Uiso   1.00
O453   O     0.02808   0.41636   0.88542   0.00000  Uiso   1.00
O454   O     0.19910   0.87287   0.98282   0.00000  Uiso   1.00
N455   N     0.12218   0.07764   0.50589   0.00000  Uiso   1.00
N456   N     0.02048   0.31252   0.84440   0.00000  Uiso   1.00
N457   N     0.14234   0.92523   0.91382   0.00000  Uiso   1.00
N458   N     0.19750   0.11802   0.51555   0.00000  Uiso   1.00
N459   N     0.09580   0.35290   0.85406   0.00000  Uiso   1.00
N460   N     0.21767   0.96561   0.92348   0.00000  Uiso   1.00
C461   C     0.91162   0.89845   0.75383   0.00000  Uiso   1.00
C462   C     0.88390   0.89518   0.68786   0.00000  Uiso   1.00
C463   C     0.90254   0.91492   0.62701   0.00000  Uiso   1.00
C464   C     0.87134   0.90794   0.57248   0.00000  Uiso   1.00
C465   C     0.83562   0.90676   0.46910   0.00000  Uiso   1.00
C466   C     0.91193   0.83044   0.78115   0.00000  Uiso   1.00
C467   C     0.95414   0.79575   0.79874   0.00000  Uiso   1.00
C468   C     0.94653   0.73428   0.82274   0.00000  Uiso   1.00
C469   C     0.95433   0.63260   0.86424   0.00000  Uiso   1.00
C470   C     0.87834   0.93718   0.80027   0.00000  Uiso   1.00
C471   C     0.89232   0.99223   0.83396   0.00000  Uiso   1.00
C472   C     0.85643   0.02062   0.87408   0.00000  Uiso   1.00
C473   C     0.81208   0.08467   0.94527   0.00000  Uiso   1.00
C474   C     0.82304   0.85096   0.76519   0.00000  Uiso   1.00
C475   C     0.83578   0.86939   0.69403   0.00000  Uiso   1.00
C476   C     0.80454   0.86238   0.63958   0.00000  Uiso   1.00
C477   C     0.82314   0.88210   0.57866   0.00000  Uiso   1.00
C478   C     0.86382   0.80465   0.78732   0.00000  Uiso   1.00
C479   C     0.85614   0.74321   0.81131   0.00000  Uiso   1.00
C480   C     0.89833   0.70843   0.82893   0.00000  Uiso   1.00
C481   C     0.83022   0.91139   0.80644   0.00000  Uiso   1.00
C482   C     0.79431   0.93969   0.84652   0.00000  Uiso   1.00
C483   C     0.80823   0.99477   0.88026   0.00000  Uiso   1.00
H484   H     0.94908   0.91853   0.74903   0.00000  Uiso   1.00
H485   H     0.93978   0.93487   0.62225   0.00000  Uiso   1.00
H486   H     0.99137   0.81573   0.79396   0.00000  Uiso   1.00
H487   H     0.92955   0.01218   0.82917   0.00000  Uiso   1.00
H488   H     0.90826   0.94160   0.48442   0.00000  Uiso   1.00
H489   H     0.01704   0.69038   0.84650   0.00000  Uiso   1.00
H490   H     0.88668   0.10463   0.92074   0.00000  Uiso   1.00
H491   H     0.78558   0.83088   0.77000   0.00000  Uiso   1.00
H492   H     0.76731   0.84241   0.64437   0.00000  Uiso   1.00
H493   H     0.81890   0.72327   0.81608   0.00000  Uiso   1.00
H494   H     0.75709   0.91972   0.85129   0.00000  Uiso   1.00
H495   H     0.76828   0.86655   0.50237   0.00000  Uiso   1.00
H496   H     0.87706   0.61533   0.86445   0.00000  Uiso   1.00
H497   H     0.74670   0.02958   0.93869   0.00000  Uiso   1.00
O498   O     0.82921   0.91322   0.41037   0.00000  Uiso   1.00
O499   O     0.97192   0.58364   0.88542   0.00000  Uiso   1.00
O500   O     0.80090   0.12713   0.98282   0.00000  Uiso   1.00
N501   N     0.87782   0.92236   0.50589   0.00000  Uiso   1.00
N502   N     0.97952   0.68748   0.84440   0.00000  Uiso   1.00
N503   N     0.85766   0.07477   0.91382   0.00000  Uiso   1.00
N504   N     0.80250   0.88198   0.51555   0.00000  Uiso   1.00
N505   N     0.90420   0.64710   0.85406   0.00000  Uiso   1.00
N506   N     0.78233   0.03439   0.92348   0.00000  Uiso   1.00
C507   C     0.41162   0.39845   0.75383   0.00000  Uiso   1.00
C508   C     0.38390   0.39518   0.68786   0.00000  Uiso   1.00
C509   C     0.40254   0.41492   0.62701   0.00000  Uiso   1.00
C510   C     0.37134   0.40794   0.57248   0.00000  Uiso   1.00
C511   C     0.33562   0.40676   0.46910   0.00000  Uiso   1.00
C512   C     0.41193   0.33044   0.78115   0.00000  Uiso   1.00
C513   C     0.45414   0.29575   0.79874   0.00000  Uiso   1.00
C514   C     0.44653   0.23428   0.82274   0.00000  Uiso   1.00
C515   C     0.45433   0.13260   0.86424   0.00000  Uiso   1.00
C516   C     0.37834   0.43718   0.80027   0.00000  Uiso   1.00
C517   C     0.39232   0.49223   0.83396   0.00000  Uiso   1.00
C518   C     0.35643   0.52062   0.87408   0.00000  Uiso   1.00
C519   C     0.31208   0.58467   0.94527   0.00000  Uiso   1.00
C520   C     0.32304   0.35096   0.76519   0.00000  Uiso   1.00
C521   C     0.33578   0.36939   0.69403   0.00000  Uiso   1.00
C522   C     0.30454   0.36238   0.63958   0.00000  Uiso   1.00
C523   C     0.32314   0.38210   0.57866   0.00000  Uiso   1.00
C524   C     0.36382   0.30465   0.78732   0.00000  Uiso   1.00
C525   C     0.35614   0.24321   0.81131   0.00000  Uiso   1.00
C526   C     0.39833   0.20843   0.82893   0.00000  Uiso   1.00
C527   C     0.33022   0.41139   0.80644   0.00000  Uiso   1.00
C528   C     0.29431   0.43969   0.84652   0.00000  Uiso   1.00
C529   C     0.30823   0.49477   0.88026   0.00000  Uiso   1.00
H530   H     0.44908   0.41853   0.74903   0.00000  Uiso   1.00
H531   H     0.43978   0.43487   0.62225   0.00000  Uiso   1.00
H532   H     0.49137   0.31573   0.79396   0.00000  Uiso   1.00
H533   H     0.42955   0.51218   0.82917   0.00000  Uiso   1.00
H534   H     0.40826   0.44160   0.48442   0.00000  Uiso   1.00
H535   H     0.51704   0.19038   0.84650   0.00000  Uiso   1.00
H536   H     0.38668   0.60463   0.92074   0.00000  Uiso   1.00
H537   H     0.28558   0.33088   0.77000   0.00000  Uiso   1.00
H538   H     0.26731   0.34241   0.64437   0.00000  Uiso   1.00
H539   H     0.31890   0.22327   0.81608   0.00000  Uiso   1.00
H540   H     0.25709   0.41972   0.85129   0.00000  Uiso   1.00
H541   H     0.26828   0.36655   0.50237   0.00000  Uiso   1.00
H542   H     0.37706   0.11533   0.86445   0.00000  Uiso   1.00
H543   H     0.24670   0.52958   0.93869   0.00000  Uiso   1.00
O544   O     0.32921   0.41322   0.41037   0.00000  Uiso   1.00
O545   O     0.47192   0.08364   0.88542   0.00000  Uiso   1.00
O546   O     0.30090   0.62713   0.98282   0.00000  Uiso   1.00
N547   N     0.37782   0.42236   0.50589   0.00000  Uiso   1.00
N548   N     0.47952   0.18748   0.84440   0.00000  Uiso   1.00
N549   N     0.35766   0.57477   0.91382   0.00000  Uiso   1.00
N550   N     0.30250   0.38198   0.51555   0.00000  Uiso   1.00
N551   N     0.40420   0.14710   0.85406   0.00000  Uiso   1.00
N552   N     0.28233   0.53439   0.92348   0.00000  Uiso   1.00
C553   C     0.41162   0.60155   0.24617   0.00000  Uiso   1.00
C554   C     0.38390   0.60482   0.31214   0.00000  Uiso   1.00
C555   C     0.40254   0.58508   0.37299   0.00000  Uiso   1.00
C556   C     0.37134   0.59206   0.42752   0.00000  Uiso   1.00
C557   C     0.33562   0.59324   0.53090   0.00000  Uiso   1.00
C558   C     0.41193   0.66956   0.21885   0.00000  Uiso   1.00
C559   C     0.45414   0.70425   0.20126   0.00000  Uiso   1.00
C560   C     0.44653   0.76572   0.17726   0.00000  Uiso   1.00
C561   C     0.45433   0.86740   0.13576   0.00000  Uiso   1.00
C562   C     0.37834   0.56282   0.19973   0.00000  Uiso   1.00
C563   C     0.39232   0.50777   0.16604   0.00000  Uiso   1.00
C564   C     0.35643   0.47938   0.12592   0.00000  Uiso   1.00
C565   C     0.31208   0.41533   0.05473   0.00000  Uiso   1.00
C566   C     0.32304   0.64904   0.23481   0.00000  Uiso   1.00
C567   C     0.33578   0.63061   0.30597   0.00000  Uiso   1.00
C568   C     0.30454   0.63762   0.36042   0.00000  Uiso   1.00
C569   C     0.32314   0.61790   0.42134   0.00000  Uiso   1.00
C570   C     0.36382   0.69535   0.21268   0.00000  Uiso   1.00
C571   C     0.35614   0.75679   0.18869   0.00000  Uiso   1.00
C572   C     0.39833   0.79157   0.17107   0.00000  Uiso   1.00
C573   C     0.33022   0.58861   0.19356   0.00000  Uiso   1.00
C574   C     0.29431   0.56031   0.15348   0.00000  Uiso   1.00
C575   C     0.30823   0.50523   0.11974   0.00000  Uiso   1.00
H576   H     0.44908   0.58147   0.25097   0.00000  Uiso   1.00
H577   H     0.43978   0.56513   0.37775   0.00000  Uiso   1.00
H578   H     0.49137   0.68427   0.20604   0.00000  Uiso   1.00
H579   H     0.42955   0.48782   0.17083   0.00000  Uiso   1.00
H580   H     0.40826   0.55840   0.51558   0.00000  Uiso   1.00
H581   H     0.51704   0.80962   0.15350   0.00000  Uiso   1.00
H582   H     0.38668   0.39537   0.07926   0.00000  Uiso   1.00
H583   H     0.28558   0.66912   0.23000   0.00000  Uiso   1.00
H584   H     0.26731   0.65759   0.35563   0.00000  Uiso   1.00
H585   H     0.31890   0.77673   0.18392   0.00000  Uiso   1.00
H586   H     0.25709   0.58028   0.14871   0.00000  Uiso   1.00
H587   H     0.26828   0.63345   0.49763   0.00000  Uiso   1.00
H588   H     0.37706   0.88467   0.13555   0.00000  Uiso   1.00
H589   H     0.24670   0.47042   0.06131   0.00000  Uiso   1.00
O590   O     0.32921   0.58678   0.58963   0.00000  Uiso   1.00
O591   O     0.47192   0.91636   0.11458   0.00000  Uiso   1.00
O592   O     0.30090   0.37287   0.01718   0.00000  Uiso   1.00
N593   N     0.37782   0.57764   0.49411   0.00000  Uiso   1.00
N594   N     0.47952   0.81252   0.15560   0.00000  Uiso   1.00
N595   N     0.35766   0.42523   0.08618   0.00000  Uiso   1.00
N596   N     0.30250   0.61802   0.48445   0.00000  Uiso   1.00
N597   N     0.40420   0.85290   0.14594   0.00000  Uiso   1.00
N598   N     0.28233   0.46561   0.07652   0.00000  Uiso   1.00
C599   C     0.91162   0.10155   0.24617   0.00000  Uiso   1.00
C600   C     0.88390   0.10482   0.31214   0.00000  Uiso   1.00
C601   C     0.90254   0.08508   0.37299   0.00000  Uiso   1.00
C602   C     0.87134   0.09206   0.42752   0.00000  Uiso   1.00
C603   C     0.83562   0.09324   0.53090   0.00000  Uiso   1.00
C604   C     0.91193   0.16956   0.21885   0.00000  Uiso   1.00
C605   C     0.95414   0.20425   0.20126   0.00000  Uiso   1.00
C606   C     0.94653   0.26572   0.17726   0.00000  Uiso   1.00
C607   C     0.95433   0.36740   0.13576   0.00000  Uiso   1.00
C608   C     0.87834   0.06282   0.19973   0.00000  Uiso   1.00
C609   C     0.89232   0.00777   0.16604   0.00000  Uiso   1.00
C610   C     0.85643   0.97938   0.12592   0.00000  Uiso   1.00
C611   C     0.81208   0.91533   0.05473   0.00000  Uiso   1.00
C612   C     0.82304   0.14904   0.23481   0.00000  Uiso   1.00
C613   C     0.83578   0.13061   0.30597   0.00000  Uiso   1.00
C614   C     0.80454   0.13762   0.36042   0.00000  Uiso   1.00
C615   C     0.82314   0.11790   0.42134   0.00000  Uiso   1.00
C616   C     0.86382   0.19535   0.21268   0.00000  Uiso   1.00
C617   C     0.85614   0.25679   0.18869   0.00000  Uiso   1.00
C618   C     0.89833   0.29157   0.17107   0.00000  Uiso   1.00
C619   C     0.83022   0.08861   0.19356   0.00000  Uiso   1.00
C620   C     0.79431   0.06031   0.15348   0.00000  Uiso   1.00
C621   C     0.80823   0.00523   0.11974   0.00000  Uiso   1.00
H622   H     0.94908   0.08147   0.25097   0.00000  Uiso   1.00
H623   H     0.93978   0.06513   0.37775   0.00000  Uiso   1.00
H624   H     0.99137   0.18427   0.20604   0.00000  Uiso   1.00
H625   H     0.92955   0.98782   0.17083   0.00000  Uiso   1.00
H626   H     0.90826   0.05840   0.51558   0.00000  Uiso   1.00
H627   H     0.01704   0.30962   0.15350   0.00000  Uiso   1.00
H628   H     0.88668   0.89537   0.07926   0.00000  Uiso   1.00
H629   H     0.78558   0.16912   0.23000   0.00000  Uiso   1.00
H630   H     0.76731   0.15759   0.35563   0.00000  Uiso   1.00
H631   H     0.81890   0.27673   0.18392   0.00000  Uiso   1.00
H632   H     0.75709   0.08028   0.14871   0.00000  Uiso   1.00
H633   H     0.76828   0.13345   0.49763   0.00000  Uiso   1.00
H634   H     0.87706   0.38467   0.13555   0.00000  Uiso   1.00
H635   H     0.74670   0.97042   0.06131   0.00000  Uiso   1.00
O636   O     0.82921   0.08678   0.58963   0.00000  Uiso   1.00
O637   O     0.97192   0.41636   0.11458   0.00000  Uiso   1.00
O638   O     0.80090   0.87287   0.01718   0.00000  Uiso   1.00
N639   N     0.87782   0.07764   0.49411   0.00000  Uiso   1.00
N640   N     0.97952   0.31252   0.15560   0.00000  Uiso   1.00
N641   N     0.85766   0.92523   0.08618   0.00000  Uiso   1.00
N642   N     0.80250   0.11802   0.48445   0.00000  Uiso   1.00
N643   N     0.90420   0.35290   0.14594   0.00000  Uiso   1.00
N644   N     0.78233   0.96561   0.07652   0.00000  Uiso   1.00
C645   C     0.08838   0.89845   0.24617   0.00000  Uiso   1.00
C646   C     0.11610   0.89518   0.31214   0.00000  Uiso   1.00
C647   C     0.09746   0.91492   0.37299   0.00000  Uiso   1.00
C648   C     0.12866   0.90794   0.42752   0.00000  Uiso   1.00
C649   C     0.16438   0.90676   0.53090   0.00000  Uiso   1.00
C650   C     0.08807   0.83044   0.21885   0.00000  Uiso   1.00
C651   C     0.04586   0.79575   0.20126   0.00000  Uiso   1.00
C652   C     0.05347   0.73428   0.17726   0.00000  Uiso   1.00
C653   C     0.04567   0.63260   0.13576   0.00000  Uiso   1.00
C654   C     0.12166   0.93718   0.19973   0.00000  Uiso   1.00
C655   C     0.10768   0.99223   0.16604   0.00000  Uiso   1.00
C656   C     0.14357   0.02062   0.12592   0.00000  Uiso   1.00
C657   C     0.18792   0.08467   0.05473   0.00000  Uiso   1.00
C658   C     0.17696   0.85096   0.23481   0.00000  Uiso   1.00
C659   C     0.16422   0.86939   0.30597   0.00000  Uiso   1.00
C660   C     0.19546   0.86238   0.36042   0.00000  Uiso   1.00
C661   C     0.17686   0.88210   0.42134   0.00000  Uiso   1.00
C662   C     0.13618   0.80465   0.21268   0.00000  Uiso   1.00
C663   C     0.14386   0.74321   0.18869   0.00000  Uiso   1.00
C664   C     0.10167   0.70843   0.17107   0.00000  Uiso   1.00
C665   C     0.16978   0.91139   0.19356   0.00000  Uiso   1.00
C666   C     0.20569   0.93969   0.15348   0.00000  Uiso   1.00
C667   C     0.19177   0.99477   0.11974   0.00000  Uiso   1.00
H668   H     0.05092   0.91853   0.25097   0.00000  Uiso   1.00
H669   H     0.06022   0.93487   0.37775   0.00000  Uiso   1.00
H670   H     0.00863   0.81573   0.20604   0.00000  Uiso   1.00
H671   H     0.07045   0.01218   0.17083   0.00000  Uiso   1.00
H672   H     0.09174   0.94160   0.51558   0.00000  Uiso   1.00
H673   H     0.98296   0.69038   0.15350   0.00000  Uiso   1.00
H674   H     0.11332   0.10463   0.07926   0.00000  Uiso   1.00
H675   H     0.21442   0.83088   0.23000   0.00000  Uiso   1.00
H676   H     0.23269   0.84241   0.35563   0.00000  Uiso   1.00
H677   H     0.18110   0.72327   0.18392   0.00000  Uiso   1.00
H678   H     0.24291   0.91972   0.14871   0.00000  Uiso   1.00
H679   H     0.23172   0.86655   0.49763   0.00000  Uiso   1.00
H680   H     0.12294   0.61533   0.13555   0.00000  Uiso   1.00
H681   H     0.25330   0.02958   0.06131   0.00000  Uiso   1.00
O682   O     0.17079   0.91322   0.58963   0.00000  Uiso   1.00
O683   O     0.02808   0.58364   0.11458   0.00000  Uiso   1.00
O684   O     0.19910   0.12713   0.01718   0.00000  Uiso   1.00
N685   N     0.12218   0.92236   0.49411   0.00000  Uiso   1.00
N686   N     0.02048   0.68748   0.15560   0.00000  Uiso   1.00
N687   N     0.14234   0.07477   0.08618   0.00000  Uiso   1.00
N688   N     0.19750   0.88198   0.48445   0.00000  Uiso   1.00
N689   N     0.09580   0.64710   0.14594   0.00000  Uiso   1.00
N690   N     0.21767   0.03439   0.07652   0.00000  Uiso   1.00
C691   C     0.58838   0.39845   0.24617   0.00000  Uiso   1.00
C692   C     0.61610   0.39518   0.31214   0.00000  Uiso   1.00
C693   C     0.59746   0.41492   0.37299   0.00000  Uiso   1.00
C694   C     0.62866   0.40794   0.42752   0.00000  Uiso   1.00
C695   C     0.66438   0.40676   0.53090   0.00000  Uiso   1.00
C696   C     0.58807   0.33044   0.21885   0.00000  Uiso   1.00
C697   C     0.54586   0.29575   0.20126   0.00000  Uiso   1.00
C698   C     0.55347   0.23428   0.17726   0.00000  Uiso   1.00
C699   C     0.54567   0.13260   0.13576   0.00000  Uiso   1.00
C700   C     0.62166   0.43718   0.19973   0.00000  Uiso   1.00
C701   C     0.60768   0.49223   0.16604   0.00000  Uiso   1.00
C702   C     0.64357   0.52062   0.12592   0.00000  Uiso   1.00
C703   C     0.68792   0.58467   0.05473   0.00000  Uiso   1.00
C704   C     0.67696   0.35096   0.23481   0.00000  Uiso   1.00
C705   C     0.66422   0.36939   0.30597   0.00000  Uiso   1.00
C706   C     0.69546   0.36238   0.36042   0.00000  Uiso   1.00
C707   C     0.67686   0.38210   0.42134   0.00000  Uiso   1.00
C708   C     0.63618   0.30465   0.21268   0.00000  Uiso   1.00
C709   C     0.64386   0.24321   0.18869   0.00000  Uiso   1.00
C710   C     0.60167   0.20843   0.17107   0.00000  Uiso   1.00
C711   C     0.66978   0.41139   0.19356   0.00000  Uiso   1.00
C712   C     0.70569   0.43969   0.15348   0.00000  Uiso   1.00
C713   C     0.69177   0.49477   0.11974   0.00000  Uiso   1.00
H714   H     0.55092   0.41853   0.25097   0.00000  Uiso   1.00
H715   H     0.56022   0.43487   0.37775   0.00000  Uiso   1.00
H716   H     0.50863   0.31573   0.20604   0.00000  Uiso   1.00
H717   H     0.57045   0.51218   0.17083   0.00000  Uiso   1.00
H718   H     0.59174   0.44160   0.51558   0.00000  Uiso   1.00
H719   H     0.48296   0.19038   0.15350   0.00000  Uiso   1.00
H720   H     0.61332   0.60463   0.07926   0.00000  Uiso   1.00
H721   H     0.71442   0.33088   0.23000   0.00000  Uiso   1.00
H722   H     0.73269   0.34241   0.35563   0.00000  Uiso   1.00
H723   H     0.68110   0.22327   0.18392   0.00000  Uiso   1.00
H724   H     0.74291   0.41972   0.14871   0.00000  Uiso   1.00
H725   H     0.73172   0.36655   0.49763   0.00000  Uiso   1.00
H726   H     0.62294   0.11533   0.13555   0.00000  Uiso   1.00
H727   H     0.75330   0.52958   0.06131   0.00000  Uiso   1.00
O728   O     0.67079   0.41322   0.58963   0.00000  Uiso   1.00
O729   O     0.52808   0.08364   0.11458   0.00000  Uiso   1.00
O730   O     0.69910   0.62713   0.01718   0.00000  Uiso   1.00
N731   N     0.62218   0.42236   0.49411   0.00000  Uiso   1.00
N732   N     0.52048   0.18748   0.15560   0.00000  Uiso   1.00
N733   N     0.64234   0.57477   0.08618   0.00000  Uiso   1.00
N734   N     0.69750   0.38198   0.48445   0.00000  Uiso   1.00
N735   N     0.59580   0.14710   0.14594   0.00000  Uiso   1.00
N736   N     0.71767   0.53439   0.07652   0.00000  Uiso   1.00
