data_job_00706
_audit_creation_date              2018-12-19
_audit_creation_method            'Materials Studio'
_symmetry_space_group_name_H-M    'P1'
_symmetry_Int_Tables_number       1
_symmetry_cell_setting            triclinic
loop_
_symmetry_equiv_pos_as_xyz
  x,y,z
_cell_length_a                    21.0626
_cell_length_b                    21.4333
_cell_length_c                    25.4561
_cell_angle_alpha                 90.0000
_cell_angle_beta                  90.0000
_cell_angle_gamma                 90.0000
loop_
_atom_site_label
_atom_site_type_symbol
_atom_site_fract_x
_atom_site_fract_y
_atom_site_fract_z
_atom_site_U_iso_or_equiv
_atom_site_adp_type
_atom_site_occupancy
C1     C     0.06042   0.62222   0.33719   0.00000  Uiso   1.00
C2     C     0.04807   0.55464   0.35291   0.00000  Uiso   1.00
C3     C     0.07978   0.50283   0.33339   0.00000  Uiso   1.00
C4     C     0.06149   0.44500   0.35274   0.00000  Uiso   1.00
C5     C     0.04964   0.34095   0.37141   0.00000  Uiso   1.00
C6     C     0.99696   0.64781   0.31802   0.00000  Uiso   1.00
C7     C     0.98570   0.67435   0.26917   0.00000  Uiso   1.00
C8     C     0.92439   0.69496   0.25916   0.00000  Uiso   1.00
C9     C     0.83321   0.73559   0.22367   0.00000  Uiso   1.00
C10    C     0.07531   0.65695   0.38800   0.00000  Uiso   1.00
C11    C     0.12992   0.69119   0.39798   0.00000  Uiso   1.00
C12    C     0.13456   0.71951   0.44689   0.00000  Uiso   1.00
C13    C     0.16503   0.77433   0.52006   0.00000  Uiso   1.00
C14    C     0.97155   0.61164   0.40628   0.00000  Uiso   1.00
C15    C     0.99980   0.54890   0.39043   0.00000  Uiso   1.00
C16    C     0.98146   0.49113   0.40982   0.00000  Uiso   1.00
C17    C     0.01313   0.43925   0.39034   0.00000  Uiso   1.00
C18    C     0.94870   0.64207   0.35554   0.00000  Uiso   1.00
C19    C     0.88739   0.66265   0.34560   0.00000  Uiso   1.00
C20    C     0.87603   0.68920   0.29675   0.00000  Uiso   1.00
C21    C     0.02704   0.65121   0.42552   0.00000  Uiso   1.00
C22    C     0.03160   0.67948   0.47442   0.00000  Uiso   1.00
C23    C     0.08621   0.71375   0.48448   0.00000  Uiso   1.00
H24    H     0.09799   0.62669   0.30798   0.00000  Uiso   1.00
H25    H     0.11712   0.50730   0.30434   0.00000  Uiso   1.00
H26    H     0.02307   0.67879   0.24014   0.00000  Uiso   1.00
H27    H     0.16726   0.69563   0.36894   0.00000  Uiso   1.00
H28    H     0.11703   0.37239   0.31685   0.00000  Uiso   1.00
H29    H     0.91871   0.73402   0.18147   0.00000  Uiso   1.00
H30    H     0.22278   0.76952   0.45307   0.00000  Uiso   1.00
H31    H     0.93397   0.60717   0.43550   0.00000  Uiso   1.00
H32    H     0.94410   0.48670   0.43886   0.00000  Uiso   1.00
H33    H     0.85005   0.65820   0.37465   0.00000  Uiso   1.00
H34    H     0.99424   0.67503   0.50345   0.00000  Uiso   1.00
H35    H     0.97660   0.35567   0.42603   0.00000  Uiso   1.00
H36    H     0.77828   0.71730   0.29065   0.00000  Uiso   1.00
H37    H     0.08235   0.75280   0.56225   0.00000  Uiso   1.00
O38    O     0.05643   0.28514   0.37134   0.00000  Uiso   1.00
O39    O     0.79625   0.75958   0.19373   0.00000  Uiso   1.00
O40    O     0.19517   0.80615   0.55006   0.00000  Uiso   1.00
N41    N     0.08260   0.38499   0.34209   0.00000  Uiso   1.00
N42    N     0.89718   0.72308   0.21552   0.00000  Uiso   1.00
N43    N     0.18145   0.75628   0.46943   0.00000  Uiso   1.00
N44    N     0.00704   0.37600   0.40084   0.00000  Uiso   1.00
N45    N     0.82162   0.71408   0.27426   0.00000  Uiso   1.00
N46    N     0.10588   0.74729   0.52818   0.00000  Uiso   1.00
C47    C     0.56042   0.12222   0.83719   0.00000  Uiso   1.00
C48    C     0.54807   0.05464   0.85291   0.00000  Uiso   1.00
C49    C     0.57978   0.00283   0.83339   0.00000  Uiso   1.00
C50    C     0.56149   0.94500   0.85274   0.00000  Uiso   1.00
C51    C     0.54964   0.84095   0.87141   0.00000  Uiso   1.00
C52    C     0.49696   0.14781   0.81802   0.00000  Uiso   1.00
C53    C     0.48570   0.17435   0.76917   0.00000  Uiso   1.00
C54    C     0.42439   0.19496   0.75916   0.00000  Uiso   1.00
C55    C     0.33321   0.23559   0.72367   0.00000  Uiso   1.00
C56    C     0.57531   0.15695   0.88800   0.00000  Uiso   1.00
C57    C     0.62992   0.19119   0.89798   0.00000  Uiso   1.00
C58    C     0.63456   0.21951   0.94689   0.00000  Uiso   1.00
C59    C     0.66503   0.27433   0.02006   0.00000  Uiso   1.00
C60    C     0.47155   0.11164   0.90628   0.00000  Uiso   1.00
C61    C     0.49980   0.04890   0.89043   0.00000  Uiso   1.00
C62    C     0.48146   0.99113   0.90982   0.00000  Uiso   1.00
C63    C     0.51313   0.93925   0.89034   0.00000  Uiso   1.00
C64    C     0.44870   0.14207   0.85554   0.00000  Uiso   1.00
C65    C     0.38739   0.16265   0.84560   0.00000  Uiso   1.00
C66    C     0.37603   0.18920   0.79675   0.00000  Uiso   1.00
C67    C     0.52704   0.15121   0.92552   0.00000  Uiso   1.00
C68    C     0.53160   0.17948   0.97442   0.00000  Uiso   1.00
C69    C     0.58621   0.21375   0.98448   0.00000  Uiso   1.00
H70    H     0.59799   0.12669   0.80798   0.00000  Uiso   1.00
H71    H     0.61712   0.00730   0.80434   0.00000  Uiso   1.00
H72    H     0.52307   0.17879   0.74014   0.00000  Uiso   1.00
H73    H     0.66726   0.19563   0.86894   0.00000  Uiso   1.00
H74    H     0.61703   0.87239   0.81685   0.00000  Uiso   1.00
H75    H     0.41871   0.23402   0.68147   0.00000  Uiso   1.00
H76    H     0.72278   0.26952   0.95307   0.00000  Uiso   1.00
H77    H     0.43397   0.10717   0.93550   0.00000  Uiso   1.00
H78    H     0.44410   0.98670   0.93886   0.00000  Uiso   1.00
H79    H     0.35005   0.15820   0.87465   0.00000  Uiso   1.00
H80    H     0.49424   0.17503   0.00345   0.00000  Uiso   1.00
H81    H     0.47660   0.85567   0.92603   0.00000  Uiso   1.00
H82    H     0.27828   0.21730   0.79065   0.00000  Uiso   1.00
H83    H     0.58235   0.25280   0.06225   0.00000  Uiso   1.00
O84    O     0.55643   0.78514   0.87134   0.00000  Uiso   1.00
O85    O     0.29625   0.25958   0.69373   0.00000  Uiso   1.00
O86    O     0.69517   0.30615   0.05006   0.00000  Uiso   1.00
N87    N     0.58260   0.88499   0.84209   0.00000  Uiso   1.00
N88    N     0.39718   0.22308   0.71552   0.00000  Uiso   1.00
N89    N     0.68145   0.25628   0.96943   0.00000  Uiso   1.00
N90    N     0.50704   0.87600   0.90084   0.00000  Uiso   1.00
N91    N     0.32162   0.21408   0.77426   0.00000  Uiso   1.00
N92    N     0.60588   0.24729   0.02818   0.00000  Uiso   1.00
C93    C     0.43958   0.37778   0.83719   0.00000  Uiso   1.00
C94    C     0.45193   0.44536   0.85291   0.00000  Uiso   1.00
C95    C     0.42022   0.49717   0.83339   0.00000  Uiso   1.00
C96    C     0.43851   0.55500   0.85274   0.00000  Uiso   1.00
C97    C     0.45036   0.65905   0.87141   0.00000  Uiso   1.00
C98    C     0.50304   0.35219   0.81802   0.00000  Uiso   1.00
C99    C     0.51430   0.32565   0.76917   0.00000  Uiso   1.00
C100   C     0.57561   0.30504   0.75916   0.00000  Uiso   1.00
C101   C     0.66679   0.26441   0.72367   0.00000  Uiso   1.00
C102   C     0.42469   0.34305   0.88800   0.00000  Uiso   1.00
C103   C     0.37008   0.30881   0.89798   0.00000  Uiso   1.00
C104   C     0.36544   0.28049   0.94689   0.00000  Uiso   1.00
C105   C     0.33497   0.22567   0.02006   0.00000  Uiso   1.00
C106   C     0.52845   0.38836   0.90628   0.00000  Uiso   1.00
C107   C     0.50020   0.45110   0.89043   0.00000  Uiso   1.00
C108   C     0.51854   0.50887   0.90982   0.00000  Uiso   1.00
C109   C     0.48687   0.56075   0.89034   0.00000  Uiso   1.00
C110   C     0.55130   0.35793   0.85554   0.00000  Uiso   1.00
C111   C     0.61261   0.33735   0.84560   0.00000  Uiso   1.00
C112   C     0.62397   0.31080   0.79675   0.00000  Uiso   1.00
C113   C     0.47296   0.34879   0.92552   0.00000  Uiso   1.00
C114   C     0.46840   0.32052   0.97442   0.00000  Uiso   1.00
C115   C     0.41379   0.28625   0.98448   0.00000  Uiso   1.00
H116   H     0.40201   0.37331   0.80798   0.00000  Uiso   1.00
H117   H     0.38288   0.49270   0.80434   0.00000  Uiso   1.00
H118   H     0.47693   0.32121   0.74014   0.00000  Uiso   1.00
H119   H     0.33274   0.30437   0.86894   0.00000  Uiso   1.00
H120   H     0.38297   0.62761   0.81685   0.00000  Uiso   1.00
H121   H     0.58129   0.26598   0.68147   0.00000  Uiso   1.00
H122   H     0.27722   0.23048   0.95307   0.00000  Uiso   1.00
H123   H     0.56603   0.39283   0.93550   0.00000  Uiso   1.00
H124   H     0.55590   0.51330   0.93886   0.00000  Uiso   1.00
H125   H     0.64995   0.34180   0.87465   0.00000  Uiso   1.00
H126   H     0.50576   0.32497   0.00345   0.00000  Uiso   1.00
H127   H     0.52340   0.64433   0.92603   0.00000  Uiso   1.00
H128   H     0.72172   0.28270   0.79065   0.00000  Uiso   1.00
H129   H     0.41765   0.24720   0.06225   0.00000  Uiso   1.00
O130   O     0.44357   0.71486   0.87134   0.00000  Uiso   1.00
O131   O     0.70375   0.24042   0.69373   0.00000  Uiso   1.00
O132   O     0.30483   0.19385   0.05006   0.00000  Uiso   1.00
N133   N     0.41740   0.61501   0.84209   0.00000  Uiso   1.00
N134   N     0.60282   0.27692   0.71552   0.00000  Uiso   1.00
N135   N     0.31855   0.24372   0.96943   0.00000  Uiso   1.00
N136   N     0.49296   0.62400   0.90084   0.00000  Uiso   1.00
N137   N     0.67838   0.28592   0.77426   0.00000  Uiso   1.00
N138   N     0.39412   0.25271   0.02818   0.00000  Uiso   1.00
C139   C     0.93958   0.87778   0.33719   0.00000  Uiso   1.00
C140   C     0.95193   0.94536   0.35291   0.00000  Uiso   1.00
C141   C     0.92022   0.99717   0.33339   0.00000  Uiso   1.00
C142   C     0.93851   0.05500   0.35274   0.00000  Uiso   1.00
C143   C     0.95036   0.15905   0.37141   0.00000  Uiso   1.00
C144   C     0.00304   0.85219   0.31802   0.00000  Uiso   1.00
C145   C     0.01430   0.82565   0.26917   0.00000  Uiso   1.00
C146   C     0.07561   0.80504   0.25916   0.00000  Uiso   1.00
C147   C     0.16679   0.76441   0.22367   0.00000  Uiso   1.00
C148   C     0.92469   0.84305   0.38800   0.00000  Uiso   1.00
C149   C     0.87008   0.80881   0.39798   0.00000  Uiso   1.00
C150   C     0.86544   0.78049   0.44689   0.00000  Uiso   1.00
C151   C     0.83497   0.72567   0.52006   0.00000  Uiso   1.00
C152   C     0.02845   0.88836   0.40628   0.00000  Uiso   1.00
C153   C     0.00020   0.95110   0.39043   0.00000  Uiso   1.00
C154   C     0.01854   0.00887   0.40982   0.00000  Uiso   1.00
C155   C     0.98687   0.06075   0.39034   0.00000  Uiso   1.00
C156   C     0.05130   0.85793   0.35554   0.00000  Uiso   1.00
C157   C     0.11261   0.83735   0.34560   0.00000  Uiso   1.00
C158   C     0.12397   0.81080   0.29675   0.00000  Uiso   1.00
C159   C     0.97296   0.84879   0.42552   0.00000  Uiso   1.00
C160   C     0.96840   0.82052   0.47442   0.00000  Uiso   1.00
C161   C     0.91379   0.78625   0.48448   0.00000  Uiso   1.00
H162   H     0.90201   0.87331   0.30798   0.00000  Uiso   1.00
H163   H     0.88288   0.99270   0.30434   0.00000  Uiso   1.00
H164   H     0.97693   0.82121   0.24014   0.00000  Uiso   1.00
H165   H     0.83274   0.80437   0.36894   0.00000  Uiso   1.00
H166   H     0.88297   0.12761   0.31685   0.00000  Uiso   1.00
H167   H     0.08129   0.76598   0.18147   0.00000  Uiso   1.00
H168   H     0.77722   0.73048   0.45307   0.00000  Uiso   1.00
H169   H     0.06603   0.89283   0.43550   0.00000  Uiso   1.00
H170   H     0.05590   0.01330   0.43886   0.00000  Uiso   1.00
H171   H     0.14995   0.84180   0.37465   0.00000  Uiso   1.00
H172   H     0.00576   0.82497   0.50345   0.00000  Uiso   1.00
H173   H     0.02340   0.14433   0.42603   0.00000  Uiso   1.00
H174   H     0.22172   0.78270   0.29065   0.00000  Uiso   1.00
H175   H     0.91765   0.74720   0.56225   0.00000  Uiso   1.00
O176   O     0.94357   0.21486   0.37134   0.00000  Uiso   1.00
O177   O     0.20375   0.74042   0.19373   0.00000  Uiso   1.00
O178   O     0.80483   0.69385   0.55006   0.00000  Uiso   1.00
N179   N     0.91740   0.11501   0.34209   0.00000  Uiso   1.00
N180   N     0.10282   0.77692   0.21552   0.00000  Uiso   1.00
N181   N     0.81855   0.74372   0.46943   0.00000  Uiso   1.00
N182   N     0.99296   0.12400   0.40084   0.00000  Uiso   1.00
N183   N     0.17838   0.78592   0.27426   0.00000  Uiso   1.00
N184   N     0.89412   0.75271   0.52818   0.00000  Uiso   1.00
C185   C     0.93958   0.12222   0.16281   0.00000  Uiso   1.00
C186   C     0.95193   0.05464   0.14709   0.00000  Uiso   1.00
C187   C     0.92022   0.00283   0.16661   0.00000  Uiso   1.00
C188   C     0.93851   0.94500   0.14726   0.00000  Uiso   1.00
C189   C     0.95036   0.84095   0.12859   0.00000  Uiso   1.00
C190   C     0.00304   0.14781   0.18198   0.00000  Uiso   1.00
C191   C     0.01430   0.17435   0.23083   0.00000  Uiso   1.00
C192   C     0.07561   0.19496   0.24084   0.00000  Uiso   1.00
C193   C     0.16679   0.23559   0.27633   0.00000  Uiso   1.00
C194   C     0.92469   0.15695   0.11200   0.00000  Uiso   1.00
C195   C     0.87008   0.19119   0.10202   0.00000  Uiso   1.00
C196   C     0.86544   0.21951   0.05311   0.00000  Uiso   1.00
C197   C     0.83497   0.27433   0.97994   0.00000  Uiso   1.00
C198   C     0.02845   0.11164   0.09372   0.00000  Uiso   1.00
C199   C     0.00020   0.04890   0.10957   0.00000  Uiso   1.00
C200   C     0.01854   0.99113   0.09018   0.00000  Uiso   1.00
C201   C     0.98687   0.93925   0.10966   0.00000  Uiso   1.00
C202   C     0.05130   0.14207   0.14446   0.00000  Uiso   1.00
C203   C     0.11261   0.16265   0.15440   0.00000  Uiso   1.00
C204   C     0.12397   0.18920   0.20325   0.00000  Uiso   1.00
C205   C     0.97296   0.15121   0.07448   0.00000  Uiso   1.00
C206   C     0.96840   0.17948   0.02558   0.00000  Uiso   1.00
C207   C     0.91379   0.21375   0.01552   0.00000  Uiso   1.00
H208   H     0.90201   0.12669   0.19202   0.00000  Uiso   1.00
H209   H     0.88288   0.00730   0.19566   0.00000  Uiso   1.00
H210   H     0.97693   0.17879   0.25986   0.00000  Uiso   1.00
H211   H     0.83274   0.19563   0.13106   0.00000  Uiso   1.00
H212   H     0.88297   0.87239   0.18315   0.00000  Uiso   1.00
H213   H     0.08129   0.23402   0.31853   0.00000  Uiso   1.00
H214   H     0.77722   0.26952   0.04693   0.00000  Uiso   1.00
H215   H     0.06603   0.10717   0.06450   0.00000  Uiso   1.00
H216   H     0.05590   0.98670   0.06114   0.00000  Uiso   1.00
H217   H     0.14995   0.15820   0.12535   0.00000  Uiso   1.00
H218   H     0.00576   0.17503   0.99655   0.00000  Uiso   1.00
H219   H     0.02340   0.85567   0.07397   0.00000  Uiso   1.00
H220   H     0.22172   0.21730   0.20935   0.00000  Uiso   1.00
H221   H     0.91765   0.25280   0.93775   0.00000  Uiso   1.00
O222   O     0.94357   0.78514   0.12866   0.00000  Uiso   1.00
O223   O     0.20375   0.25958   0.30627   0.00000  Uiso   1.00
O224   O     0.80483   0.30615   0.94994   0.00000  Uiso   1.00
N225   N     0.91740   0.88499   0.15791   0.00000  Uiso   1.00
N226   N     0.10282   0.22308   0.28448   0.00000  Uiso   1.00
N227   N     0.81855   0.25628   0.03057   0.00000  Uiso   1.00
N228   N     0.99296   0.87600   0.09916   0.00000  Uiso   1.00
N229   N     0.17838   0.21408   0.22574   0.00000  Uiso   1.00
N230   N     0.89412   0.24729   0.97182   0.00000  Uiso   1.00
C231   C     0.43958   0.62222   0.66281   0.00000  Uiso   1.00
C232   C     0.45193   0.55464   0.64709   0.00000  Uiso   1.00
C233   C     0.42022   0.50283   0.66661   0.00000  Uiso   1.00
C234   C     0.43851   0.44500   0.64726   0.00000  Uiso   1.00
C235   C     0.45036   0.34095   0.62859   0.00000  Uiso   1.00
C236   C     0.50304   0.64781   0.68198   0.00000  Uiso   1.00
C237   C     0.51430   0.67435   0.73083   0.00000  Uiso   1.00
C238   C     0.57561   0.69496   0.74084   0.00000  Uiso   1.00
C239   C     0.66679   0.73559   0.77633   0.00000  Uiso   1.00
C240   C     0.42469   0.65695   0.61200   0.00000  Uiso   1.00
C241   C     0.37008   0.69119   0.60202   0.00000  Uiso   1.00
C242   C     0.36544   0.71951   0.55311   0.00000  Uiso   1.00
C243   C     0.33497   0.77433   0.47994   0.00000  Uiso   1.00
C244   C     0.52845   0.61164   0.59372   0.00000  Uiso   1.00
C245   C     0.50020   0.54890   0.60957   0.00000  Uiso   1.00
C246   C     0.51854   0.49113   0.59018   0.00000  Uiso   1.00
C247   C     0.48687   0.43925   0.60966   0.00000  Uiso   1.00
C248   C     0.55130   0.64207   0.64446   0.00000  Uiso   1.00
C249   C     0.61261   0.66265   0.65440   0.00000  Uiso   1.00
C250   C     0.62397   0.68920   0.70325   0.00000  Uiso   1.00
C251   C     0.47296   0.65121   0.57448   0.00000  Uiso   1.00
C252   C     0.46840   0.67948   0.52558   0.00000  Uiso   1.00
C253   C     0.41379   0.71375   0.51552   0.00000  Uiso   1.00
H254   H     0.40201   0.62669   0.69202   0.00000  Uiso   1.00
H255   H     0.38288   0.50730   0.69566   0.00000  Uiso   1.00
H256   H     0.47693   0.67879   0.75986   0.00000  Uiso   1.00
H257   H     0.33274   0.69563   0.63106   0.00000  Uiso   1.00
H258   H     0.38297   0.37239   0.68315   0.00000  Uiso   1.00
H259   H     0.58129   0.73402   0.81853   0.00000  Uiso   1.00
H260   H     0.27722   0.76952   0.54693   0.00000  Uiso   1.00
H261   H     0.56603   0.60717   0.56450   0.00000  Uiso   1.00
H262   H     0.55590   0.48670   0.56114   0.00000  Uiso   1.00
H263   H     0.64995   0.65820   0.62535   0.00000  Uiso   1.00
H264   H     0.50576   0.67503   0.49655   0.00000  Uiso   1.00
H265   H     0.52340   0.35567   0.57397   0.00000  Uiso   1.00
H266   H     0.72172   0.71730   0.70935   0.00000  Uiso   1.00
H267   H     0.41765   0.75280   0.43775   0.00000  Uiso   1.00
O268   O     0.44357   0.28514   0.62866   0.00000  Uiso   1.00
O269   O     0.70375   0.75958   0.80627   0.00000  Uiso   1.00
O270   O     0.30483   0.80615   0.44994   0.00000  Uiso   1.00
N271   N     0.41740   0.38499   0.65791   0.00000  Uiso   1.00
N272   N     0.60282   0.72308   0.78448   0.00000  Uiso   1.00
N273   N     0.31855   0.75628   0.53057   0.00000  Uiso   1.00
N274   N     0.49296   0.37600   0.59916   0.00000  Uiso   1.00
N275   N     0.67838   0.71408   0.72574   0.00000  Uiso   1.00
N276   N     0.39412   0.74729   0.47182   0.00000  Uiso   1.00
C277   C     0.56042   0.87778   0.66281   0.00000  Uiso   1.00
C278   C     0.54807   0.94536   0.64709   0.00000  Uiso   1.00
C279   C     0.57978   0.99717   0.66661   0.00000  Uiso   1.00
C280   C     0.56149   0.05500   0.64726   0.00000  Uiso   1.00
C281   C     0.54964   0.15905   0.62859   0.00000  Uiso   1.00
C282   C     0.49696   0.85219   0.68198   0.00000  Uiso   1.00
C283   C     0.48570   0.82565   0.73083   0.00000  Uiso   1.00
C284   C     0.42439   0.80504   0.74084   0.00000  Uiso   1.00
C285   C     0.33321   0.76441   0.77633   0.00000  Uiso   1.00
C286   C     0.57531   0.84305   0.61200   0.00000  Uiso   1.00
C287   C     0.62992   0.80881   0.60202   0.00000  Uiso   1.00
C288   C     0.63456   0.78049   0.55311   0.00000  Uiso   1.00
C289   C     0.66503   0.72567   0.47994   0.00000  Uiso   1.00
C290   C     0.47155   0.88836   0.59372   0.00000  Uiso   1.00
C291   C     0.49980   0.95110   0.60957   0.00000  Uiso   1.00
C292   C     0.48146   0.00887   0.59018   0.00000  Uiso   1.00
C293   C     0.51313   0.06075   0.60966   0.00000  Uiso   1.00
C294   C     0.44870   0.85793   0.64446   0.00000  Uiso   1.00
C295   C     0.38739   0.83735   0.65440   0.00000  Uiso   1.00
C296   C     0.37603   0.81080   0.70325   0.00000  Uiso   1.00
C297   C     0.52704   0.84879   0.57448   0.00000  Uiso   1.00
C298   C     0.53160   0.82052   0.52558   0.00000  Uiso   1.00
C299   C     0.58621   0.78625   0.51552   0.00000  Uiso   1.00
H300   H     0.59799   0.87331   0.69202   0.00000  Uiso   1.00
H301   H     0.61712   0.99270   0.69566   0.00000  Uiso   1.00
H302   H     0.52307   0.82121   0.75986   0.00000  Uiso   1.00
H303   H     0.66726   0.80437   0.63106   0.00000  Uiso   1.00
H304   H     0.61703   0.12761   0.68315   0.00000  Uiso   1.00
H305   H     0.41871   0.76598   0.81853   0.00000  Uiso   1.00
H306   H     0.72278   0.73048   0.54693   0.00000  Uiso   1.00
H307   H     0.43397   0.89283   0.56450   0.00000  Uiso   1.00
H308   H     0.44410   0.01330   0.56114   0.00000  Uiso   1.00
H309   H     0.35005   0.84180   0.62535   0.00000  Uiso   1.00
H310   H     0.49424   0.82497   0.49655   0.00000  Uiso   1.00
H311   H     0.47660   0.14433   0.57397   0.00000  Uiso   1.00
H312   H     0.27828   0.78270   0.70935   0.00000  Uiso   1.00
H313   H     0.58235   0.74720   0.43775   0.00000  Uiso   1.00
O314   O     0.55643   0.21486   0.62866   0.00000  Uiso   1.00
O315   O     0.29625   0.74042   0.80627   0.00000  Uiso   1.00
O316   O     0.69517   0.69385   0.44994   0.00000  Uiso   1.00
N317   N     0.58260   0.11501   0.65791   0.00000  Uiso   1.00
N318   N     0.39718   0.77692   0.78448   0.00000  Uiso   1.00
N319   N     0.68145   0.74372   0.53057   0.00000  Uiso   1.00
N320   N     0.50704   0.12400   0.59916   0.00000  Uiso   1.00
N321   N     0.32162   0.78592   0.72574   0.00000  Uiso   1.00
N322   N     0.60588   0.75271   0.47182   0.00000  Uiso   1.00
C323   C     0.06042   0.37778   0.16281   0.00000  Uiso   1.00
C324   C     0.04807   0.44536   0.14709   0.00000  Uiso   1.00
C325   C     0.07978   0.49717   0.16661   0.00000  Uiso   1.00
C326   C     0.06149   0.55500   0.14726   0.00000  Uiso   1.00
C327   C     0.04964   0.65905   0.12859   0.00000  Uiso   1.00
C328   C     0.99696   0.35219   0.18198   0.00000  Uiso   1.00
C329   C     0.98570   0.32565   0.23083   0.00000  Uiso   1.00
C330   C     0.92439   0.30504   0.24084   0.00000  Uiso   1.00
C331   C     0.83321   0.26441   0.27633   0.00000  Uiso   1.00
C332   C     0.07531   0.34305   0.11200   0.00000  Uiso   1.00
C333   C     0.12992   0.30881   0.10202   0.00000  Uiso   1.00
C334   C     0.13456   0.28049   0.05311   0.00000  Uiso   1.00
C335   C     0.16503   0.22567   0.97994   0.00000  Uiso   1.00
C336   C     0.97155   0.38836   0.09372   0.00000  Uiso   1.00
C337   C     0.99980   0.45110   0.10957   0.00000  Uiso   1.00
C338   C     0.98146   0.50887   0.09018   0.00000  Uiso   1.00
C339   C     0.01313   0.56075   0.10966   0.00000  Uiso   1.00
C340   C     0.94870   0.35793   0.14446   0.00000  Uiso   1.00
C341   C     0.88739   0.33735   0.15440   0.00000  Uiso   1.00
C342   C     0.87603   0.31080   0.20325   0.00000  Uiso   1.00
C343   C     0.02704   0.34879   0.07448   0.00000  Uiso   1.00
C344   C     0.03160   0.32052   0.02558   0.00000  Uiso   1.00
C345   C     0.08621   0.28625   0.01552   0.00000  Uiso   1.00
H346   H     0.09799   0.37331   0.19202   0.00000  Uiso   1.00
H347   H     0.11712   0.49270   0.19566   0.00000  Uiso   1.00
H348   H     0.02307   0.32121   0.25986   0.00000  Uiso   1.00
H349   H     0.16726   0.30437   0.13106   0.00000  Uiso   1.00
H350   H     0.11703   0.62761   0.18315   0.00000  Uiso   1.00
H351   H     0.91871   0.26598   0.31853   0.00000  Uiso   1.00
H352   H     0.22278   0.23048   0.04693   0.00000  Uiso   1.00
H353   H     0.93397   0.39283   0.06450   0.00000  Uiso   1.00
H354   H     0.94410   0.51330   0.06114   0.00000  Uiso   1.00
H355   H     0.85005   0.34180   0.12535   0.00000  Uiso   1.00
H356   H     0.99424   0.32497   0.99655   0.00000  Uiso   1.00
H357   H     0.97660   0.64433   0.07397   0.00000  Uiso   1.00
H358   H     0.77828   0.28270   0.20935   0.00000  Uiso   1.00
H359   H     0.08235   0.24720   0.93775   0.00000  Uiso   1.00
O360   O     0.05643   0.71486   0.12866   0.00000  Uiso   1.00
O361   O     0.79625   0.24042   0.30627   0.00000  Uiso   1.00
O362   O     0.19517   0.19385   0.94994   0.00000  Uiso   1.00
N363   N     0.08260   0.61501   0.15791   0.00000  Uiso   1.00
N364   N     0.89718   0.27692   0.28448   0.00000  Uiso   1.00
N365   N     0.18145   0.24372   0.03057   0.00000  Uiso   1.00
N366   N     0.00704   0.62400   0.09916   0.00000  Uiso   1.00
N367   N     0.82162   0.28592   0.22574   0.00000  Uiso   1.00
N368   N     0.10588   0.25271   0.97182   0.00000  Uiso   1.00
C369   C     0.93958   0.37778   0.66281   0.00000  Uiso   1.00
C370   C     0.95193   0.44536   0.64709   0.00000  Uiso   1.00
C371   C     0.92022   0.49717   0.66661   0.00000  Uiso   1.00
C372   C     0.93851   0.55500   0.64726   0.00000  Uiso   1.00
C373   C     0.95036   0.65905   0.62859   0.00000  Uiso   1.00
C374   C     0.00304   0.35219   0.68198   0.00000  Uiso   1.00
C375   C     0.01430   0.32565   0.73083   0.00000  Uiso   1.00
C376   C     0.07561   0.30504   0.74084   0.00000  Uiso   1.00
C377   C     0.16679   0.26441   0.77633   0.00000  Uiso   1.00
C378   C     0.92469   0.34305   0.61200   0.00000  Uiso   1.00
C379   C     0.87008   0.30881   0.60202   0.00000  Uiso   1.00
C380   C     0.86544   0.28049   0.55311   0.00000  Uiso   1.00
C381   C     0.83497   0.22567   0.47994   0.00000  Uiso   1.00
C382   C     0.02845   0.38836   0.59372   0.00000  Uiso   1.00
C383   C     0.00020   0.45110   0.60957   0.00000  Uiso   1.00
C384   C     0.01854   0.50887   0.59018   0.00000  Uiso   1.00
C385   C     0.98687   0.56075   0.60966   0.00000  Uiso   1.00
C386   C     0.05130   0.35793   0.64446   0.00000  Uiso   1.00
C387   C     0.11261   0.33735   0.65440   0.00000  Uiso   1.00
C388   C     0.12397   0.31080   0.70325   0.00000  Uiso   1.00
C389   C     0.97296   0.34879   0.57448   0.00000  Uiso   1.00
C390   C     0.96840   0.32052   0.52558   0.00000  Uiso   1.00
C391   C     0.91379   0.28625   0.51552   0.00000  Uiso   1.00
H392   H     0.90201   0.37331   0.69202   0.00000  Uiso   1.00
H393   H     0.88288   0.49270   0.69566   0.00000  Uiso   1.00
H394   H     0.97693   0.32121   0.75986   0.00000  Uiso   1.00
H395   H     0.83274   0.30437   0.63106   0.00000  Uiso   1.00
H396   H     0.88297   0.62761   0.68315   0.00000  Uiso   1.00
H397   H     0.08129   0.26598   0.81853   0.00000  Uiso   1.00
H398   H     0.77722   0.23048   0.54693   0.00000  Uiso   1.00
H399   H     0.06603   0.39283   0.56450   0.00000  Uiso   1.00
H400   H     0.05590   0.51330   0.56114   0.00000  Uiso   1.00
H401   H     0.14995   0.34180   0.62535   0.00000  Uiso   1.00
H402   H     0.00576   0.32497   0.49655   0.00000  Uiso   1.00
H403   H     0.02340   0.64433   0.57397   0.00000  Uiso   1.00
H404   H     0.22172   0.28270   0.70935   0.00000  Uiso   1.00
H405   H     0.91765   0.24720   0.43775   0.00000  Uiso   1.00
O406   O     0.94357   0.71486   0.62866   0.00000  Uiso   1.00
O407   O     0.20375   0.24042   0.80627   0.00000  Uiso   1.00
O408   O     0.80483   0.19385   0.44994   0.00000  Uiso   1.00
N409   N     0.91740   0.61501   0.65791   0.00000  Uiso   1.00
N410   N     0.10282   0.27692   0.78448   0.00000  Uiso   1.00
N411   N     0.81855   0.24372   0.53057   0.00000  Uiso   1.00
N412   N     0.99296   0.62400   0.59916   0.00000  Uiso   1.00
N413   N     0.17838   0.28592   0.72574   0.00000  Uiso   1.00
N414   N     0.89412   0.25271   0.47182   0.00000  Uiso   1.00
C415   C     0.43958   0.87778   0.16281   0.00000  Uiso   1.00
C416   C     0.45193   0.94536   0.14709   0.00000  Uiso   1.00
C417   C     0.42022   0.99717   0.16661   0.00000  Uiso   1.00
C418   C     0.43851   0.05500   0.14726   0.00000  Uiso   1.00
C419   C     0.45036   0.15905   0.12859   0.00000  Uiso   1.00
C420   C     0.50304   0.85219   0.18198   0.00000  Uiso   1.00
C421   C     0.51430   0.82565   0.23083   0.00000  Uiso   1.00
C422   C     0.57561   0.80504   0.24084   0.00000  Uiso   1.00
C423   C     0.66679   0.76441   0.27633   0.00000  Uiso   1.00
C424   C     0.42469   0.84305   0.11200   0.00000  Uiso   1.00
C425   C     0.37008   0.80881   0.10202   0.00000  Uiso   1.00
C426   C     0.36544   0.78049   0.05311   0.00000  Uiso   1.00
C427   C     0.33497   0.72567   0.97994   0.00000  Uiso   1.00
C428   C     0.52845   0.88836   0.09372   0.00000  Uiso   1.00
C429   C     0.50020   0.95110   0.10957   0.00000  Uiso   1.00
C430   C     0.51854   0.00887   0.09018   0.00000  Uiso   1.00
C431   C     0.48687   0.06075   0.10966   0.00000  Uiso   1.00
C432   C     0.55130   0.85793   0.14446   0.00000  Uiso   1.00
C433   C     0.61261   0.83735   0.15440   0.00000  Uiso   1.00
C434   C     0.62397   0.81080   0.20325   0.00000  Uiso   1.00
C435   C     0.47296   0.84879   0.07448   0.00000  Uiso   1.00
C436   C     0.46840   0.82052   0.02558   0.00000  Uiso   1.00
C437   C     0.41379   0.78625   0.01552   0.00000  Uiso   1.00
H438   H     0.40201   0.87331   0.19202   0.00000  Uiso   1.00
H439   H     0.38288   0.99270   0.19566   0.00000  Uiso   1.00
H440   H     0.47693   0.82121   0.25986   0.00000  Uiso   1.00
H441   H     0.33274   0.80437   0.13106   0.00000  Uiso   1.00
H442   H     0.38297   0.12761   0.18315   0.00000  Uiso   1.00
H443   H     0.58129   0.76598   0.31853   0.00000  Uiso   1.00
H444   H     0.27722   0.73048   0.04693   0.00000  Uiso   1.00
H445   H     0.56603   0.89283   0.06450   0.00000  Uiso   1.00
H446   H     0.55590   0.01330   0.06114   0.00000  Uiso   1.00
H447   H     0.64995   0.84180   0.12535   0.00000  Uiso   1.00
H448   H     0.50576   0.82497   0.99655   0.00000  Uiso   1.00
H449   H     0.52340   0.14433   0.07397   0.00000  Uiso   1.00
H450   H     0.72172   0.78270   0.20935   0.00000  Uiso   1.00
H451   H     0.41765   0.74720   0.93775   0.00000  Uiso   1.00
O452   O     0.44357   0.21486   0.12866   0.00000  Uiso   1.00
O453   O     0.70375   0.74042   0.30627   0.00000  Uiso   1.00
O454   O     0.30483   0.69385   0.94994   0.00000  Uiso   1.00
N455   N     0.41740   0.11501   0.15791   0.00000  Uiso   1.00
N456   N     0.60282   0.77692   0.28448   0.00000  Uiso   1.00
N457   N     0.31855   0.74372   0.03057   0.00000  Uiso   1.00
N458   N     0.49296   0.12400   0.09916   0.00000  Uiso   1.00
N459   N     0.67838   0.78592   0.22574   0.00000  Uiso   1.00
N460   N     0.39412   0.75271   0.97182   0.00000  Uiso   1.00
C461   C     0.56042   0.62222   0.16281   0.00000  Uiso   1.00
C462   C     0.54807   0.55464   0.14709   0.00000  Uiso   1.00
C463   C     0.57978   0.50283   0.16661   0.00000  Uiso   1.00
C464   C     0.56149   0.44500   0.14726   0.00000  Uiso   1.00
C465   C     0.54964   0.34095   0.12859   0.00000  Uiso   1.00
C466   C     0.49696   0.64781   0.18198   0.00000  Uiso   1.00
C467   C     0.48570   0.67435   0.23083   0.00000  Uiso   1.00
C468   C     0.42439   0.69496   0.24084   0.00000  Uiso   1.00
C469   C     0.33321   0.73559   0.27633   0.00000  Uiso   1.00
C470   C     0.57531   0.65695   0.11200   0.00000  Uiso   1.00
C471   C     0.62992   0.69119   0.10202   0.00000  Uiso   1.00
C472   C     0.63456   0.71951   0.05311   0.00000  Uiso   1.00
C473   C     0.66503   0.77433   0.97994   0.00000  Uiso   1.00
C474   C     0.47155   0.61164   0.09372   0.00000  Uiso   1.00
C475   C     0.49980   0.54890   0.10957   0.00000  Uiso   1.00
C476   C     0.48146   0.49113   0.09018   0.00000  Uiso   1.00
C477   C     0.51313   0.43925   0.10966   0.00000  Uiso   1.00
C478   C     0.44870   0.64207   0.14446   0.00000  Uiso   1.00
C479   C     0.38739   0.66265   0.15440   0.00000  Uiso   1.00
C480   C     0.37603   0.68920   0.20325   0.00000  Uiso   1.00
C481   C     0.52704   0.65121   0.07448   0.00000  Uiso   1.00
C482   C     0.53160   0.67948   0.02558   0.00000  Uiso   1.00
C483   C     0.58621   0.71375   0.01552   0.00000  Uiso   1.00
H484   H     0.59799   0.62669   0.19202   0.00000  Uiso   1.00
H485   H     0.61712   0.50730   0.19566   0.00000  Uiso   1.00
H486   H     0.52307   0.67879   0.25986   0.00000  Uiso   1.00
H487   H     0.66726   0.69563   0.13106   0.00000  Uiso   1.00
H488   H     0.61703   0.37239   0.18315   0.00000  Uiso   1.00
H489   H     0.41871   0.73402   0.31853   0.00000  Uiso   1.00
H490   H     0.72278   0.76952   0.04693   0.00000  Uiso   1.00
H491   H     0.43397   0.60717   0.06450   0.00000  Uiso   1.00
H492   H     0.44410   0.48670   0.06114   0.00000  Uiso   1.00
H493   H     0.35005   0.65820   0.12535   0.00000  Uiso   1.00
H494   H     0.49424   0.67503   0.99655   0.00000  Uiso   1.00
H495   H     0.47660   0.35567   0.07397   0.00000  Uiso   1.00
H496   H     0.27828   0.71730   0.20935   0.00000  Uiso   1.00
H497   H     0.58235   0.75280   0.93775   0.00000  Uiso   1.00
O498   O     0.55643   0.28514   0.12866   0.00000  Uiso   1.00
O499   O     0.29625   0.75958   0.30627   0.00000  Uiso   1.00
O500   O     0.69517   0.80615   0.94994   0.00000  Uiso   1.00
N501   N     0.58260   0.38499   0.15791   0.00000  Uiso   1.00
N502   N     0.39718   0.72308   0.28448   0.00000  Uiso   1.00
N503   N     0.68145   0.75628   0.03057   0.00000  Uiso   1.00
N504   N     0.50704   0.37600   0.09916   0.00000  Uiso   1.00
N505   N     0.32162   0.71408   0.22574   0.00000  Uiso   1.00
N506   N     0.60588   0.74729   0.97182   0.00000  Uiso   1.00
C507   C     0.06042   0.12222   0.66281   0.00000  Uiso   1.00
C508   C     0.04807   0.05464   0.64709   0.00000  Uiso   1.00
C509   C     0.07978   0.00283   0.66661   0.00000  Uiso   1.00
C510   C     0.06149   0.94500   0.64726   0.00000  Uiso   1.00
C511   C     0.04964   0.84095   0.62859   0.00000  Uiso   1.00
C512   C     0.99696   0.14781   0.68198   0.00000  Uiso   1.00
C513   C     0.98570   0.17435   0.73083   0.00000  Uiso   1.00
C514   C     0.92439   0.19496   0.74084   0.00000  Uiso   1.00
C515   C     0.83321   0.23559   0.77633   0.00000  Uiso   1.00
C516   C     0.07531   0.15695   0.61200   0.00000  Uiso   1.00
C517   C     0.12992   0.19119   0.60202   0.00000  Uiso   1.00
C518   C     0.13456   0.21951   0.55311   0.00000  Uiso   1.00
C519   C     0.16503   0.27433   0.47994   0.00000  Uiso   1.00
C520   C     0.97155   0.11164   0.59372   0.00000  Uiso   1.00
C521   C     0.99980   0.04890   0.60957   0.00000  Uiso   1.00
C522   C     0.98146   0.99113   0.59018   0.00000  Uiso   1.00
C523   C     0.01313   0.93925   0.60966   0.00000  Uiso   1.00
C524   C     0.94870   0.14207   0.64446   0.00000  Uiso   1.00
C525   C     0.88739   0.16265   0.65440   0.00000  Uiso   1.00
C526   C     0.87603   0.18920   0.70325   0.00000  Uiso   1.00
C527   C     0.02704   0.15121   0.57448   0.00000  Uiso   1.00
C528   C     0.03160   0.17948   0.52558   0.00000  Uiso   1.00
C529   C     0.08621   0.21375   0.51552   0.00000  Uiso   1.00
H530   H     0.09799   0.12669   0.69202   0.00000  Uiso   1.00
H531   H     0.11712   0.00730   0.69566   0.00000  Uiso   1.00
H532   H     0.02307   0.17879   0.75986   0.00000  Uiso   1.00
H533   H     0.16726   0.19563   0.63106   0.00000  Uiso   1.00
H534   H     0.11703   0.87239   0.68315   0.00000  Uiso   1.00
H535   H     0.91871   0.23402   0.81853   0.00000  Uiso   1.00
H536   H     0.22278   0.26952   0.54693   0.00000  Uiso   1.00
H537   H     0.93397   0.10717   0.56450   0.00000  Uiso   1.00
H538   H     0.94410   0.98670   0.56114   0.00000  Uiso   1.00
H539   H     0.85005   0.15820   0.62535   0.00000  Uiso   1.00
H540   H     0.99424   0.17503   0.49655   0.00000  Uiso   1.00
H541   H     0.97660   0.85567   0.57397   0.00000  Uiso   1.00
H542   H     0.77828   0.21730   0.70935   0.00000  Uiso   1.00
H543   H     0.08235   0.25280   0.43775   0.00000  Uiso   1.00
O544   O     0.05643   0.78514   0.62866   0.00000  Uiso   1.00
O545   O     0.79625   0.25958   0.80627   0.00000  Uiso   1.00
O546   O     0.19517   0.30615   0.44994   0.00000  Uiso   1.00
N547   N     0.08260   0.88499   0.65791   0.00000  Uiso   1.00
N548   N     0.89718   0.22308   0.78448   0.00000  Uiso   1.00
N549   N     0.18145   0.25628   0.53057   0.00000  Uiso   1.00
N550   N     0.00704   0.87600   0.59916   0.00000  Uiso   1.00
N551   N     0.82162   0.21408   0.72574   0.00000  Uiso   1.00
N552   N     0.10588   0.24729   0.47182   0.00000  Uiso   1.00
C553   C     0.06042   0.87778   0.83719   0.00000  Uiso   1.00
C554   C     0.04807   0.94536   0.85291   0.00000  Uiso   1.00
C555   C     0.07978   0.99717   0.83339   0.00000  Uiso   1.00
C556   C     0.06149   0.05500   0.85274   0.00000  Uiso   1.00
C557   C     0.04964   0.15905   0.87141   0.00000  Uiso   1.00
C558   C     0.99696   0.85219   0.81802   0.00000  Uiso   1.00
C559   C     0.98570   0.82565   0.76917   0.00000  Uiso   1.00
C560   C     0.92439   0.80504   0.75916   0.00000  Uiso   1.00
C561   C     0.83321   0.76441   0.72367   0.00000  Uiso   1.00
C562   C     0.07531   0.84305   0.88800   0.00000  Uiso   1.00
C563   C     0.12992   0.80881   0.89798   0.00000  Uiso   1.00
C564   C     0.13456   0.78049   0.94689   0.00000  Uiso   1.00
C565   C     0.16503   0.72567   0.02006   0.00000  Uiso   1.00
C566   C     0.97155   0.88836   0.90628   0.00000  Uiso   1.00
C567   C     0.99980   0.95110   0.89043   0.00000  Uiso   1.00
C568   C     0.98146   0.00887   0.90982   0.00000  Uiso   1.00
C569   C     0.01313   0.06075   0.89034   0.00000  Uiso   1.00
C570   C     0.94870   0.85793   0.85554   0.00000  Uiso   1.00
C571   C     0.88739   0.83735   0.84560   0.00000  Uiso   1.00
C572   C     0.87603   0.81080   0.79675   0.00000  Uiso   1.00
C573   C     0.02704   0.84879   0.92552   0.00000  Uiso   1.00
C574   C     0.03160   0.82052   0.97442   0.00000  Uiso   1.00
C575   C     0.08621   0.78625   0.98448   0.00000  Uiso   1.00
H576   H     0.09799   0.87331   0.80798   0.00000  Uiso   1.00
H577   H     0.11712   0.99270   0.80434   0.00000  Uiso   1.00
H578   H     0.02307   0.82121   0.74014   0.00000  Uiso   1.00
H579   H     0.16726   0.80437   0.86894   0.00000  Uiso   1.00
H580   H     0.11703   0.12761   0.81685   0.00000  Uiso   1.00
H581   H     0.91871   0.76598   0.68147   0.00000  Uiso   1.00
H582   H     0.22278   0.73048   0.95307   0.00000  Uiso   1.00
H583   H     0.93397   0.89283   0.93550   0.00000  Uiso   1.00
H584   H     0.94410   0.01330   0.93886   0.00000  Uiso   1.00
H585   H     0.85005   0.84180   0.87465   0.00000  Uiso   1.00
H586   H     0.99424   0.82497   0.00345   0.00000  Uiso   1.00
H587   H     0.97660   0.14433   0.92603   0.00000  Uiso   1.00
H588   H     0.77828   0.78270   0.79065   0.00000  Uiso   1.00
H589   H     0.08235   0.74720   0.06225   0.00000  Uiso   1.00
O590   O     0.05643   0.21486   0.87134   0.00000  Uiso   1.00
O591   O     0.79625   0.74042   0.69373   0.00000  Uiso   1.00
O592   O     0.19517   0.69385   0.05006   0.00000  Uiso   1.00
N593   N     0.08260   0.11501   0.84209   0.00000  Uiso   1.00
N594   N     0.89718   0.77692   0.71552   0.00000  Uiso   1.00
N595   N     0.18145   0.74372   0.96943   0.00000  Uiso   1.00
N596   N     0.00704   0.12400   0.90084   0.00000  Uiso   1.00
N597   N     0.82162   0.78592   0.77426   0.00000  Uiso   1.00
N598   N     0.10588   0.75271   0.02818   0.00000  Uiso   1.00
C599   C     0.56042   0.37778   0.33719   0.00000  Uiso   1.00
C600   C     0.54807   0.44536   0.35291   0.00000  Uiso   1.00
C601   C     0.57978   0.49717   0.33339   0.00000  Uiso   1.00
C602   C     0.56149   0.55500   0.35274   0.00000  Uiso   1.00
C603   C     0.54964   0.65905   0.37141   0.00000  Uiso   1.00
C604   C     0.49696   0.35219   0.31802   0.00000  Uiso   1.00
C605   C     0.48570   0.32565   0.26917   0.00000  Uiso   1.00
C606   C     0.42439   0.30504   0.25916   0.00000  Uiso   1.00
C607   C     0.33321   0.26441   0.22367   0.00000  Uiso   1.00
C608   C     0.57531   0.34305   0.38800   0.00000  Uiso   1.00
C609   C     0.62992   0.30881   0.39798   0.00000  Uiso   1.00
C610   C     0.63456   0.28049   0.44689   0.00000  Uiso   1.00
C611   C     0.66503   0.22567   0.52006   0.00000  Uiso   1.00
C612   C     0.47155   0.38836   0.40628   0.00000  Uiso   1.00
C613   C     0.49980   0.45110   0.39043   0.00000  Uiso   1.00
C614   C     0.48146   0.50887   0.40982   0.00000  Uiso   1.00
C615   C     0.51313   0.56075   0.39034   0.00000  Uiso   1.00
C616   C     0.44870   0.35793   0.35554   0.00000  Uiso   1.00
C617   C     0.38739   0.33735   0.34560   0.00000  Uiso   1.00
C618   C     0.37603   0.31080   0.29675   0.00000  Uiso   1.00
C619   C     0.52704   0.34879   0.42552   0.00000  Uiso   1.00
C620   C     0.53160   0.32052   0.47442   0.00000  Uiso   1.00
C621   C     0.58621   0.28625   0.48448   0.00000  Uiso   1.00
H622   H     0.59799   0.37331   0.30798   0.00000  Uiso   1.00
H623   H     0.61712   0.49270   0.30434   0.00000  Uiso   1.00
H624   H     0.52307   0.32121   0.24014   0.00000  Uiso   1.00
H625   H     0.66726   0.30437   0.36894   0.00000  Uiso   1.00
H626   H     0.61703   0.62761   0.31685   0.00000  Uiso   1.00
H627   H     0.41871   0.26598   0.18147   0.00000  Uiso   1.00
H628   H     0.72278   0.23048   0.45307   0.00000  Uiso   1.00
H629   H     0.43397   0.39283   0.43550   0.00000  Uiso   1.00
H630   H     0.44410   0.51330   0.43886   0.00000  Uiso   1.00
H631   H     0.35005   0.34180   0.37465   0.00000  Uiso   1.00
H632   H     0.49424   0.32497   0.50345   0.00000  Uiso   1.00
H633   H     0.47660   0.64433   0.42603   0.00000  Uiso   1.00
H634   H     0.27828   0.28270   0.29065   0.00000  Uiso   1.00
H635   H     0.58235   0.24720   0.56225   0.00000  Uiso   1.00
O636   O     0.55643   0.71486   0.37134   0.00000  Uiso   1.00
O637   O     0.29625   0.24042   0.19373   0.00000  Uiso   1.00
O638   O     0.69517   0.19385   0.55006   0.00000  Uiso   1.00
N639   N     0.58260   0.61501   0.34209   0.00000  Uiso   1.00
N640   N     0.39718   0.27692   0.21552   0.00000  Uiso   1.00
N641   N     0.68145   0.24372   0.46943   0.00000  Uiso   1.00
N642   N     0.50704   0.62400   0.40084   0.00000  Uiso   1.00
N643   N     0.32162   0.28592   0.27426   0.00000  Uiso   1.00
N644   N     0.60588   0.25271   0.52818   0.00000  Uiso   1.00
C645   C     0.43958   0.12222   0.33719   0.00000  Uiso   1.00
C646   C     0.45193   0.05464   0.35291   0.00000  Uiso   1.00
C647   C     0.42022   0.00283   0.33339   0.00000  Uiso   1.00
C648   C     0.43851   0.94500   0.35274   0.00000  Uiso   1.00
C649   C     0.45036   0.84095   0.37141   0.00000  Uiso   1.00
C650   C     0.50304   0.14781   0.31802   0.00000  Uiso   1.00
C651   C     0.51430   0.17435   0.26917   0.00000  Uiso   1.00
C652   C     0.57561   0.19496   0.25916   0.00000  Uiso   1.00
C653   C     0.66679   0.23559   0.22367   0.00000  Uiso   1.00
C654   C     0.42469   0.15695   0.38800   0.00000  Uiso   1.00
C655   C     0.37008   0.19119   0.39798   0.00000  Uiso   1.00
C656   C     0.36544   0.21951   0.44689   0.00000  Uiso   1.00
C657   C     0.33497   0.27433   0.52006   0.00000  Uiso   1.00
C658   C     0.52845   0.11164   0.40628   0.00000  Uiso   1.00
C659   C     0.50020   0.04890   0.39043   0.00000  Uiso   1.00
C660   C     0.51854   0.99113   0.40982   0.00000  Uiso   1.00
C661   C     0.48687   0.93925   0.39034   0.00000  Uiso   1.00
C662   C     0.55130   0.14207   0.35554   0.00000  Uiso   1.00
C663   C     0.61261   0.16265   0.34560   0.00000  Uiso   1.00
C664   C     0.62397   0.18920   0.29675   0.00000  Uiso   1.00
C665   C     0.47296   0.15121   0.42552   0.00000  Uiso   1.00
C666   C     0.46840   0.17948   0.47442   0.00000  Uiso   1.00
C667   C     0.41379   0.21375   0.48448   0.00000  Uiso   1.00
H668   H     0.40201   0.12669   0.30798   0.00000  Uiso   1.00
H669   H     0.38288   0.00730   0.30434   0.00000  Uiso   1.00
H670   H     0.47693   0.17879   0.24014   0.00000  Uiso   1.00
H671   H     0.33274   0.19563   0.36894   0.00000  Uiso   1.00
H672   H     0.38297   0.87239   0.31685   0.00000  Uiso   1.00
H673   H     0.58129   0.23402   0.18147   0.00000  Uiso   1.00
H674   H     0.27722   0.26952   0.45307   0.00000  Uiso   1.00
H675   H     0.56603   0.10717   0.43550   0.00000  Uiso   1.00
H676   H     0.55590   0.98670   0.43886   0.00000  Uiso   1.00
H677   H     0.64995   0.15820   0.37465   0.00000  Uiso   1.00
H678   H     0.50576   0.17503   0.50345   0.00000  Uiso   1.00
H679   H     0.52340   0.85567   0.42603   0.00000  Uiso   1.00
H680   H     0.72172   0.21730   0.29065   0.00000  Uiso   1.00
H681   H     0.41765   0.25280   0.56225   0.00000  Uiso   1.00
O682   O     0.44357   0.78514   0.37134   0.00000  Uiso   1.00
O683   O     0.70375   0.25958   0.19373   0.00000  Uiso   1.00
O684   O     0.30483   0.30615   0.55006   0.00000  Uiso   1.00
N685   N     0.41740   0.88499   0.34209   0.00000  Uiso   1.00
N686   N     0.60282   0.22308   0.21552   0.00000  Uiso   1.00
N687   N     0.31855   0.25628   0.46943   0.00000  Uiso   1.00
N688   N     0.49296   0.87600   0.40084   0.00000  Uiso   1.00
N689   N     0.67838   0.21408   0.27426   0.00000  Uiso   1.00
N690   N     0.39412   0.24729   0.52818   0.00000  Uiso   1.00
C691   C     0.93958   0.62222   0.83719   0.00000  Uiso   1.00
C692   C     0.95193   0.55464   0.85291   0.00000  Uiso   1.00
C693   C     0.92022   0.50283   0.83339   0.00000  Uiso   1.00
C694   C     0.93851   0.44500   0.85274   0.00000  Uiso   1.00
C695   C     0.95036   0.34095   0.87141   0.00000  Uiso   1.00
C696   C     0.00304   0.64781   0.81802   0.00000  Uiso   1.00
C697   C     0.01430   0.67435   0.76917   0.00000  Uiso   1.00
C698   C     0.07561   0.69496   0.75916   0.00000  Uiso   1.00
C699   C     0.16679   0.73559   0.72367   0.00000  Uiso   1.00
C700   C     0.92469   0.65695   0.88800   0.00000  Uiso   1.00
C701   C     0.87008   0.69119   0.89798   0.00000  Uiso   1.00
C702   C     0.86544   0.71951   0.94689   0.00000  Uiso   1.00
C703   C     0.83497   0.77433   0.02006   0.00000  Uiso   1.00
C704   C     0.02845   0.61164   0.90628   0.00000  Uiso   1.00
C705   C     0.00020   0.54890   0.89043   0.00000  Uiso   1.00
C706   C     0.01854   0.49113   0.90982   0.00000  Uiso   1.00
C707   C     0.98687   0.43925   0.89034   0.00000  Uiso   1.00
C708   C     0.05130   0.64207   0.85554   0.00000  Uiso   1.00
C709   C     0.11261   0.66265   0.84560   0.00000  Uiso   1.00
C710   C     0.12397   0.68920   0.79675   0.00000  Uiso   1.00
C711   C     0.97296   0.65121   0.92552   0.00000  Uiso   1.00
C712   C     0.96840   0.67948   0.97442   0.00000  Uiso   1.00
C713   C     0.91379   0.71375   0.98448   0.00000  Uiso   1.00
H714   H     0.90201   0.62669   0.80798   0.00000  Uiso   1.00
H715   H     0.88288   0.50730   0.80434   0.00000  Uiso   1.00
H716   H     0.97693   0.67879   0.74014   0.00000  Uiso   1.00
H717   H     0.83274   0.69563   0.86894   0.00000  Uiso   1.00
H718   H     0.88297   0.37239   0.81685   0.00000  Uiso   1.00
H719   H     0.08129   0.73402   0.68147   0.00000  Uiso   1.00
H720   H     0.77722   0.76952   0.95307   0.00000  Uiso   1.00
H721   H     0.06603   0.60717   0.93550   0.00000  Uiso   1.00
H722   H     0.05590   0.48670   0.93886   0.00000  Uiso   1.00
H723   H     0.14995   0.65820   0.87465   0.00000  Uiso   1.00
H724   H     0.00576   0.67503   0.00345   0.00000  Uiso   1.00
H725   H     0.02340   0.35567   0.92603   0.00000  Uiso   1.00
H726   H     0.22172   0.71730   0.79065   0.00000  Uiso   1.00
H727   H     0.91765   0.75280   0.06225   0.00000  Uiso   1.00
O728   O     0.94357   0.28514   0.87134   0.00000  Uiso   1.00
O729   O     0.20375   0.75958   0.69373   0.00000  Uiso   1.00
O730   O     0.80483   0.80615   0.05006   0.00000  Uiso   1.00
N731   N     0.91740   0.38499   0.84209   0.00000  Uiso   1.00
N732   N     0.10282   0.72308   0.71552   0.00000  Uiso   1.00
N733   N     0.81855   0.75628   0.96943   0.00000  Uiso   1.00
N734   N     0.99296   0.37600   0.90084   0.00000  Uiso   1.00
N735   N     0.17838   0.71408   0.77426   0.00000  Uiso   1.00
N736   N     0.89412   0.74729   0.02818   0.00000  Uiso   1.00
