data_job_07082
_audit_creation_date              2018-12-19
_audit_creation_method            'Materials Studio'
_symmetry_space_group_name_H-M    'P1'
_symmetry_Int_Tables_number       1
_symmetry_cell_setting            triclinic
loop_
_symmetry_equiv_pos_as_xyz
  x,y,z
_cell_length_a                    42.1171
_cell_length_b                    21.8124
_cell_length_c                    20.3431
_cell_angle_alpha                 90.0000
_cell_angle_beta                  114.2608
_cell_angle_gamma                 90.0000
loop_
_atom_site_label
_atom_site_type_symbol
_atom_site_fract_x
_atom_site_fract_y
_atom_site_fract_z
_atom_site_U_iso_or_equiv
_atom_site_adp_type
_atom_site_occupancy
C1     C     0.34837   0.24993   0.01350   0.00000  Uiso   1.00
C2     C     0.31752   0.28329   0.01809   0.00000  Uiso   1.00
C3     C     0.81835   0.84157   0.04610   0.00000  Uiso   1.00
C4     C     0.78736   0.86398   0.04545   0.00000  Uiso   1.00
C5     C     0.74414   0.92103   0.05682   0.00000  Uiso   1.00
C6     C     0.35170   0.18935   0.05321   0.00000  Uiso   1.00
C7     C     0.38126   0.16865   0.11074   0.00000  Uiso   1.00
C8     C     0.37904   0.11198   0.13965   0.00000  Uiso   1.00
C9     C     0.88888   0.52317   0.20551   0.00000  Uiso   1.00
C10    C     0.33718   0.23340   0.93428   0.00000  Uiso   1.00
C11    C     0.35453   0.24973   0.89181   0.00000  Uiso   1.00
C12    C     0.34009   0.23013   0.82059   0.00000  Uiso   1.00
C13    C     0.32739   0.20972   0.70179   0.00000  Uiso   1.00
C14    C     0.29188   0.18608   0.96253   0.00000  Uiso   1.00
C15    C     0.28684   0.24860   0.99040   0.00000  Uiso   1.00
C16    C     0.75585   0.77093   0.98971   0.00000  Uiso   1.00
C17    C     0.75663   0.82924   0.01771   0.00000  Uiso   1.00
C18    C     0.32102   0.15467   0.02553   0.00000  Uiso   1.00
C19    C     0.81876   0.59801   0.05435   0.00000  Uiso   1.00
C20    C     0.84831   0.57723   0.11192   0.00000  Uiso   1.00
C21    C     0.30649   0.19872   0.90659   0.00000  Uiso   1.00
C22    C     0.29203   0.17909   0.83542   0.00000  Uiso   1.00
C23    C     0.30936   0.19538   0.79285   0.00000  Uiso   1.00
H24    H     0.37226   0.27693   0.03506   0.00000  Uiso   1.00
H25    H     0.84210   0.86839   0.06753   0.00000  Uiso   1.00
H26    H     0.40500   0.19550   0.13215   0.00000  Uiso   1.00
H27    H     0.37827   0.27656   0.91326   0.00000  Uiso   1.00
H28    H     0.79513   0.95449   0.09134   0.00000  Uiso   1.00
H29    H     0.42776   0.08993   0.22759   0.00000  Uiso   1.00
H30    H     0.37141   0.26087   0.76601   0.00000  Uiso   1.00
H31    H     0.76799   0.65908   0.94097   0.00000  Uiso   1.00
H32    H     0.73211   0.74408   0.96828   0.00000  Uiso   1.00
H33    H     0.79501   0.57118   0.03291   0.00000  Uiso   1.00
H34    H     0.76829   0.65225   0.81401   0.00000  Uiso   1.00
H35    H     0.70586   0.85360   0.01079   0.00000  Uiso   1.00
H36    H     0.83850   0.48902   0.14705   0.00000  Uiso   1.00
H37    H     0.78214   0.65997   0.68546   0.00000  Uiso   1.00
O38    O     0.72878   0.96208   0.07075   0.00000  Uiso   1.00
O39    O     0.90279   0.48377   0.24950   0.00000  Uiso   1.00
O40    O     0.32885   0.20805   0.64391   0.00000  Uiso   1.00
N41    N     0.77904   0.91909   0.06862   0.00000  Uiso   1.00
N42    N     0.40305   0.07824   0.19602   0.00000  Uiso   1.00
N43    N     0.35037   0.23805   0.76448   0.00000  Uiso   1.00
N44    N     0.73101   0.86480   0.02528   0.00000  Uiso   1.00
N45    N     0.85501   0.52395   0.15268   0.00000  Uiso   1.00
N46    N     0.30233   0.18375   0.72114   0.00000  Uiso   1.00
C47    C     0.55886   0.97174   0.05899   0.00000  Uiso   1.00
C48    C     0.05193   0.40343   0.06224   0.00000  Uiso   1.00
C49    C     0.03057   0.37766   0.09164   0.00000  Uiso   1.00
C50    C     0.02765   0.31421   0.08938   0.00000  Uiso   1.00
C51    C     0.01420   0.21367   0.09911   0.00000  Uiso   1.00
C52    C     0.59827   0.97959   0.09650   0.00000  Uiso   1.00
C53    C     0.61586   0.01785   0.15470   0.00000  Uiso   1.00
C54    C     0.65195   0.01851   0.18128   0.00000  Uiso   1.00
C55    C     0.71043   0.03623   0.24416   0.00000  Uiso   1.00
C56    C     0.54888   0.98641   0.97967   0.00000  Uiso   1.00
C57    C     0.52494   0.03042   0.93964   0.00000  Uiso   1.00
C58    C     0.51945   0.03684   0.86786   0.00000  Uiso   1.00
C59    C     0.50124   0.06515   0.74935   0.00000  Uiso   1.00
C60    C     0.59168   0.90491   0.00271   0.00000  Uiso   1.00
C61    C     0.06976   0.36713   0.03167   0.00000  Uiso   1.00
C62    C     0.06688   0.30371   0.02937   0.00000  Uiso   1.00
C63    C     0.04551   0.27785   0.05876   0.00000  Uiso   1.00
C64    C     0.61610   0.94329   0.06593   0.00000  Uiso   1.00
C65    C     0.65217   0.94390   0.09243   0.00000  Uiso   1.00
C66    C     0.66981   0.98215   0.15065   0.00000  Uiso   1.00
C67    C     0.56670   0.95011   0.94910   0.00000  Uiso   1.00
C68    C     0.56125   0.95647   0.87737   0.00000  Uiso   1.00
C69    C     0.53731   0.00047   0.83724   0.00000  Uiso   1.00
H70    H     0.54498   0.00001   0.08279   0.00000  Uiso   1.00
H71    H     0.01678   0.40577   0.11530   0.00000  Uiso   1.00
H72    H     0.60205   0.04594   0.17834   0.00000  Uiso   1.00
H73    H     0.51115   0.05850   0.96331   0.00000  Uiso   1.00
H74    H     0.99338   0.28527   0.13787   0.00000  Uiso   1.00
H75    H     0.67319   0.08085   0.27079   0.00000  Uiso   1.00
H76    H     0.48150   0.10734   0.81737   0.00000  Uiso   1.00
H77    H     0.60556   0.87665   0.97891   0.00000  Uiso   1.00
H78    H     0.08068   0.27563   0.00571   0.00000  Uiso   1.00
H79    H     0.66596   0.91581   0.06875   0.00000  Uiso   1.00
H80    H     0.57505   0.92837   0.85373   0.00000  Uiso   1.00
H81    H     0.04525   0.17965   0.04893   0.00000  Uiso   1.00
H82    H     0.72505   0.97523   0.18184   0.00000  Uiso   1.00
H83    H     0.53337   0.00172   0.72843   0.00000  Uiso   1.00
O84    O     0.00186   0.16823   0.11293   0.00000  Uiso   1.00
O85    O     0.73776   0.05603   0.28730   0.00000  Uiso   1.00
O86    O     0.48627   0.09078   0.69242   0.00000  Uiso   1.00
N87    N     0.00900   0.27428   0.11325   0.00000  Uiso   1.00
N88    N     0.67710   0.05061   0.23752   0.00000  Uiso   1.00
N89    N     0.49790   0.07540   0.81362   0.00000  Uiso   1.00
N90    N     0.03690   0.21744   0.06539   0.00000  Uiso   1.00
N91    N     0.70501   0.99378   0.18966   0.00000  Uiso   1.00
N92    N     0.52581   0.01856   0.76576   0.00000  Uiso   1.00
C93    C     0.60525   0.48769   0.09215   0.00000  Uiso   1.00
C94    C     0.64125   0.49733   0.09288   0.00000  Uiso   1.00
C95    C     0.66766   0.45396   0.11266   0.00000  Uiso   1.00
C96    C     0.69870   0.47173   0.10970   0.00000  Uiso   1.00
C97    C     0.75394   0.47774   0.11421   0.00000  Uiso   1.00
C98    C     0.60088   0.53770   0.14017   0.00000  Uiso   1.00
C99    C     0.59335   0.52827   0.19970   0.00000  Uiso   1.00
C100   C     0.59040   0.58002   0.23654   0.00000  Uiso   1.00
C101   C     0.08294   0.14870   0.31443   0.00000  Uiso   1.00
C102   C     0.57920   0.50251   0.01569   0.00000  Uiso   1.00
C103   C     0.55343   0.46351   0.97056   0.00000  Uiso   1.00
C104   C     0.53222   0.48565   0.90260   0.00000  Uiso   1.00
C105   C     0.99110   0.99969   0.78722   0.00000  Uiso   1.00
C106   C     0.61341   0.59637   0.05169   0.00000  Uiso   1.00
C107   C     0.64569   0.55636   0.07090   0.00000  Uiso   1.00
C108   C     0.67669   0.57420   0.06790   0.00000  Uiso   1.00
C109   C     0.70314   0.53087   0.08768   0.00000  Uiso   1.00
C110   C     0.60532   0.59672   0.11819   0.00000  Uiso   1.00
C111   C     0.10238   0.14851   0.15494   0.00000  Uiso   1.00
C112   C     0.09484   0.13916   0.21452   0.00000  Uiso   1.00
C113   C     0.58364   0.56154   0.99371   0.00000  Uiso   1.00
C114   C     0.06246   0.08375   0.92580   0.00000  Uiso   1.00
C115   C     0.03666   0.04478   0.88058   0.00000  Uiso   1.00
H116   H     0.60180   0.44173   0.10926   0.00000  Uiso   1.00
H117   H     0.66422   0.40829   0.12967   0.00000  Uiso   1.00
H118   H     0.58991   0.48258   0.21669   0.00000  Uiso   1.00
H119   H     0.55000   0.41783   0.98759   0.00000  Uiso   1.00
H120   H     0.73539   0.39725   0.14264   0.00000  Uiso   1.00
H121   H     0.57870   0.55390   0.32611   0.00000  Uiso   1.00
H122   H     0.49454   0.41736   0.84300   0.00000  Uiso   1.00
H123   H     0.11686   0.14233   0.03458   0.00000  Uiso   1.00
H124   H     0.68011   0.61989   0.05090   0.00000  Uiso   1.00
H125   H     0.10581   0.19418   0.13792   0.00000  Uiso   1.00
H126   H     0.06590   0.12943   0.90881   0.00000  Uiso   1.00
H127   H     0.74829   0.56899   0.07870   0.00000  Uiso   1.00
H128   H     0.09160   0.22564   0.26218   0.00000  Uiso   1.00
H129   H     0.00744   0.08911   0.77906   0.00000  Uiso   1.00
O130   O     0.78318   0.46475   0.12277   0.00000  Uiso   1.00
O131   O     0.07760   0.17027   0.36347   0.00000  Uiso   1.00
O132   O     0.96719   0.99113   0.72964   0.00000  Uiso   1.00
N133   N     0.72974   0.44074   0.12534   0.00000  Uiso   1.00
N134   N     0.08325   0.08720   0.29688   0.00000  Uiso   1.00
N135   N     0.50456   0.45956   0.84522   0.00000  Uiso   1.00
N136   N     0.73668   0.53316   0.09094   0.00000  Uiso   1.00
N137   N     0.09019   0.17962   0.26248   0.00000  Uiso   1.00
N138   N     0.01151   0.05197   0.81081   0.00000  Uiso   1.00
C139   C     0.56159   0.94269   0.55420   0.00000  Uiso   1.00
C140   C     0.55531   0.01129   0.55706   0.00000  Uiso   1.00
C141   C     0.53582   0.03847   0.59000   0.00000  Uiso   1.00
C142   C     0.53320   0.10195   0.58669   0.00000  Uiso   1.00
C143   C     0.52098   0.20316   0.59648   0.00000  Uiso   1.00
C144   C     0.60102   0.93429   0.58686   0.00000  Uiso   1.00
C145   C     0.61996   0.89673   0.64486   0.00000  Uiso   1.00
C146   C     0.65582   0.89538   0.66663   0.00000  Uiso   1.00
C147   C     0.71456   0.87701   0.72266   0.00000  Uiso   1.00
C148   C     0.54901   0.92660   0.47453   0.00000  Uiso   1.00
C149   C     0.02423   0.38256   0.43806   0.00000  Uiso   1.00
C150   C     0.01631   0.37472   0.36526   0.00000  Uiso   1.00
C151   C     0.99429   0.34441   0.24687   0.00000  Uiso   1.00
C152   C     0.59158   0.00708   0.48976   0.00000  Uiso   1.00
C153   C     0.57160   0.04626   0.52206   0.00000  Uiso   1.00
C154   C     0.56900   0.10972   0.51869   0.00000  Uiso   1.00
C155   C     0.54952   0.13699   0.55162   0.00000  Uiso   1.00
C156   C     0.61731   0.96927   0.55186   0.00000  Uiso   1.00
C157   C     0.65314   0.96797   0.57355   0.00000  Uiso   1.00
C158   C     0.67214   0.93042   0.63156   0.00000  Uiso   1.00
C159   C     0.56530   0.96158   0.43952   0.00000  Uiso   1.00
C160   C     0.55741   0.95380   0.36676   0.00000  Uiso   1.00
C161   C     0.03262   0.40976   0.33019   0.00000  Uiso   1.00
H162   H     0.54891   0.91545   0.58146   0.00000  Uiso   1.00
H163   H     0.52322   0.01139   0.61709   0.00000  Uiso   1.00
H164   H     0.60735   0.86966   0.67193   0.00000  Uiso   1.00
H165   H     0.01163   0.35550   0.46517   0.00000  Uiso   1.00
H166   H     0.50193   0.13318   0.64117   0.00000  Uiso   1.00
H167   H     0.67932   0.83433   0.75680   0.00000  Uiso   1.00
H168   H     0.97748   0.30446   0.32080   0.00000  Uiso   1.00
H169   H     0.60427   0.03431   0.46250   0.00000  Uiso   1.00
H170   H     0.58161   0.13677   0.49160   0.00000  Uiso   1.00
H171   H     0.66574   0.99504   0.54645   0.00000  Uiso   1.00
H172   H     0.57002   0.98088   0.33969   0.00000  Uiso   1.00
H173   H     0.54933   0.23494   0.53933   0.00000  Uiso   1.00
H174   H     0.72671   0.93608   0.65495   0.00000  Uiso   1.00
H175   H     0.02487   0.40622   0.21896   0.00000  Uiso   1.00
O176   O     0.50974   0.24932   0.61156   0.00000  Uiso   1.00
O177   O     0.74246   0.85722   0.76325   0.00000  Uiso   1.00
O178   O     0.97765   0.31804   0.19123   0.00000  Uiso   1.00
N179   N     0.51619   0.14307   0.61320   0.00000  Uiso   1.00
N180   N     0.68204   0.86366   0.72131   0.00000  Uiso   1.00
N181   N     0.99334   0.33573   0.31369   0.00000  Uiso   1.00
N182   N     0.54169   0.19782   0.55840   0.00000  Uiso   1.00
N183   N     0.70754   0.91842   0.66651   0.00000  Uiso   1.00
N184   N     0.01884   0.39048   0.25889   0.00000  Uiso   1.00
C185   C     0.59571   0.54561   0.60902   0.00000  Uiso   1.00
C186   C     0.62192   0.51548   0.58520   0.00000  Uiso   1.00
C187   C     0.65700   0.53015   0.61030   0.00000  Uiso   1.00
C188   C     0.67663   0.49728   0.58180   0.00000  Uiso   1.00
C189   C     0.71962   0.45745   0.55272   0.00000  Uiso   1.00
C190   C     0.57989   0.49381   0.63610   0.00000  Uiso   1.00
C191   C     0.57963   0.49027   0.70399   0.00000  Uiso   1.00
C192   C     0.56387   0.43916   0.71833   0.00000  Uiso   1.00
C193   C     0.54158   0.36571   0.76825   0.00000  Uiso   1.00
C194   C     0.06645   0.06965   0.54048   0.00000  Uiso   1.00
C195   C     0.05487   0.12987   0.52798   0.00000  Uiso   1.00
C196   C     0.02779   0.14260   0.46183   0.00000  Uiso   1.00
C197   C     0.98462   0.18690   0.36329   0.00000  Uiso   1.00
C198   C     0.56819   0.46113   0.51377   0.00000  Uiso   1.00
C199   C     0.60698   0.46959   0.53347   0.00000  Uiso   1.00
C200   C     0.62656   0.43669   0.50492   0.00000  Uiso   1.00
C201   C     0.66166   0.45131   0.52997   0.00000  Uiso   1.00
C202   C     0.56495   0.44793   0.58437   0.00000  Uiso   1.00
C203   C     0.54918   0.39681   0.59861   0.00000  Uiso   1.00
C204   C     0.54890   0.39319   0.66650   0.00000  Uiso   1.00
C205   C     0.55150   0.52376   0.48875   0.00000  Uiso   1.00
C206   C     0.02443   0.03640   0.42260   0.00000  Uiso   1.00
C207   C     0.01282   0.09663   0.41000   0.00000  Uiso   1.00
H208   H     0.60734   0.58133   0.64929   0.00000  Uiso   1.00
H209   H     0.66856   0.56566   0.65034   0.00000  Uiso   1.00
H210   H     0.59119   0.52579   0.74401   0.00000  Uiso   1.00
H211   H     0.06645   0.16536   0.56803   0.00000  Uiso   1.00
H212   H     0.72984   0.52804   0.62871   0.00000  Uiso   1.00
H213   H     0.56670   0.44398   0.82620   0.00000  Uiso   1.00
H214   H     0.01451   0.23830   0.45512   0.00000  Uiso   1.00
H215   H     0.55655   0.42541   0.47349   0.00000  Uiso   1.00
H216   H     0.61498   0.40118   0.46489   0.00000  Uiso   1.00
H217   H     0.53762   0.36131   0.55856   0.00000  Uiso   1.00
H218   H     0.51287   0.50088   0.38258   0.00000  Uiso   1.00
H219   H     0.68636   0.39454   0.47819   0.00000  Uiso   1.00
H220   H     0.52321   0.31048   0.67568   0.00000  Uiso   1.00
H221   H     0.97103   0.10480   0.30460   0.00000  Uiso   1.00
O222   O     0.74745   0.44815   0.55098   0.00000  Uiso   1.00
O223   O     0.53341   0.33787   0.81008   0.00000  Uiso   1.00
O224   O     0.96495   0.22401   0.32323   0.00000  Uiso   1.00
N225   N     0.71159   0.49995   0.59445   0.00000  Uiso   1.00
N226   N     0.55906   0.42136   0.77910   0.00000  Uiso   1.00
N227   N     0.01027   0.19652   0.43218   0.00000  Uiso   1.00
N228   N     0.68819   0.42812   0.51346   0.00000  Uiso   1.00
N229   N     0.53567   0.34952   0.69811   0.00000  Uiso   1.00
N230   N     0.98687   0.12468   0.35119   0.00000  Uiso   1.00
C231   C     0.84304   0.20510   0.50656   0.00000  Uiso   1.00
C232   C     0.81722   0.16386   0.52047   0.00000  Uiso   1.00
C233   C     0.82553   0.11134   0.56270   0.00000  Uiso   1.00
C234   C     0.79816   0.07997   0.56870   0.00000  Uiso   1.00
C235   C     0.76330   0.01284   0.59565   0.00000  Uiso   1.00
C236   C     0.83780   0.26926   0.53018   0.00000  Uiso   1.00
C237   C     0.86342   0.30536   0.58056   0.00000  Uiso   1.00
C238   C     0.85338   0.36272   0.59472   0.00000  Uiso   1.00
C239   C     0.85048   0.45925   0.63670   0.00000  Uiso   1.00
C240   C     0.83067   0.20801   0.42488   0.00000  Uiso   1.00
C241   C     0.85030   0.19263   0.38672   0.00000  Uiso   1.00
C242   C     0.83426   0.19844   0.31223   0.00000  Uiso   1.00
C243   C     0.82029   0.19986   0.19072   0.00000  Uiso   1.00
C244   C     0.77965   0.24279   0.44212   0.00000  Uiso   1.00
C245   C     0.78278   0.18434   0.48547   0.00000  Uiso   1.00
C246   C     0.75539   0.15304   0.49140   0.00000  Uiso   1.00
C247   C     0.76366   0.10048   0.53363   0.00000  Uiso   1.00
C248   C     0.80337   0.28973   0.49518   0.00000  Uiso   1.00
C249   C     0.79328   0.34706   0.50926   0.00000  Uiso   1.00
C250   C     0.81888   0.38324   0.55965   0.00000  Uiso   1.00
C251   C     0.79624   0.22848   0.38987   0.00000  Uiso   1.00
C252   C     0.78016   0.23433   0.31542   0.00000  Uiso   1.00
C253   C     0.79976   0.21895   0.27716   0.00000  Uiso   1.00
H254   H     0.86985   0.18916   0.53382   0.00000  Uiso   1.00
H255   H     0.85219   0.09551   0.58979   0.00000  Uiso   1.00
H256   H     0.89007   0.28951   0.60764   0.00000  Uiso   1.00
H257   H     0.87695   0.17679   0.41383   0.00000  Uiso   1.00
H258   H     0.81741   0.00072   0.63643   0.00000  Uiso   1.00
H259   H     0.89729   0.40978   0.67405   0.00000  Uiso   1.00
H260   H     0.86963   0.17209   0.26536   0.00000  Uiso   1.00
H261   H     0.75284   0.25873   0.41486   0.00000  Uiso   1.00
H262   H     0.72874   0.16889   0.46430   0.00000  Uiso   1.00
H263   H     0.76663   0.36289   0.48216   0.00000  Uiso   1.00
H264   H     0.75351   0.25017   0.28835   0.00000  Uiso   1.00
H265   H     0.71722   0.06028   0.53458   0.00000  Uiso   1.00
H266   H     0.79711   0.46934   0.57220   0.00000  Uiso   1.00
H267   H     0.76944   0.23165   0.16352   0.00000  Uiso   1.00
O268   O     0.75358   0.97016   0.62020   0.00000  Uiso   1.00
O269   O     0.85839   0.50683   0.66954   0.00000  Uiso   1.00
O270   O     0.82209   0.19499   0.13336   0.00000  Uiso   1.00
N271   N     0.79714   0.02706   0.60566   0.00000  Uiso   1.00
N272   N     0.87182   0.40950   0.64084   0.00000  Uiso   1.00
N273   N     0.84596   0.18730   0.25876   0.00000  Uiso   1.00
N274   N     0.74323   0.05911   0.55086   0.00000  Uiso   1.00
N275   N     0.81791   0.44155   0.58604   0.00000  Uiso   1.00
N276   N     0.79205   0.21935   0.20396   0.00000  Uiso   1.00
C277   C     0.84837   0.74993   0.01350   0.00000  Uiso   1.00
C278   C     0.81752   0.78329   0.01809   0.00000  Uiso   1.00
C279   C     0.31835   0.34157   0.04610   0.00000  Uiso   1.00
C280   C     0.28736   0.36398   0.04545   0.00000  Uiso   1.00
C281   C     0.24414   0.42103   0.05682   0.00000  Uiso   1.00
C282   C     0.85170   0.68935   0.05321   0.00000  Uiso   1.00
C283   C     0.88126   0.66865   0.11074   0.00000  Uiso   1.00
C284   C     0.87904   0.61198   0.13965   0.00000  Uiso   1.00
C285   C     0.38888   0.02317   0.20551   0.00000  Uiso   1.00
C286   C     0.83718   0.73340   0.93428   0.00000  Uiso   1.00
C287   C     0.85453   0.74973   0.89181   0.00000  Uiso   1.00
C288   C     0.84009   0.73013   0.82059   0.00000  Uiso   1.00
C289   C     0.82739   0.70972   0.70179   0.00000  Uiso   1.00
C290   C     0.79188   0.68608   0.96253   0.00000  Uiso   1.00
C291   C     0.78684   0.74860   0.99040   0.00000  Uiso   1.00
C292   C     0.25585   0.27093   0.98971   0.00000  Uiso   1.00
C293   C     0.25663   0.32924   0.01771   0.00000  Uiso   1.00
C294   C     0.82102   0.65467   0.02553   0.00000  Uiso   1.00
C295   C     0.31876   0.09801   0.05435   0.00000  Uiso   1.00
C296   C     0.34831   0.07723   0.11192   0.00000  Uiso   1.00
C297   C     0.80649   0.69872   0.90659   0.00000  Uiso   1.00
C298   C     0.79203   0.67909   0.83542   0.00000  Uiso   1.00
C299   C     0.80936   0.69538   0.79285   0.00000  Uiso   1.00
H300   H     0.87226   0.77693   0.03506   0.00000  Uiso   1.00
H301   H     0.34210   0.36839   0.06753   0.00000  Uiso   1.00
H302   H     0.90500   0.69550   0.13215   0.00000  Uiso   1.00
H303   H     0.87827   0.77656   0.91326   0.00000  Uiso   1.00
H304   H     0.29513   0.45449   0.09134   0.00000  Uiso   1.00
H305   H     0.92776   0.58993   0.22759   0.00000  Uiso   1.00
H306   H     0.87141   0.76087   0.76601   0.00000  Uiso   1.00
H307   H     0.26799   0.15908   0.94097   0.00000  Uiso   1.00
H308   H     0.23211   0.24408   0.96828   0.00000  Uiso   1.00
H309   H     0.29501   0.07118   0.03291   0.00000  Uiso   1.00
H310   H     0.26829   0.15225   0.81401   0.00000  Uiso   1.00
H311   H     0.20586   0.35360   0.01079   0.00000  Uiso   1.00
H312   H     0.33850   0.98902   0.14705   0.00000  Uiso   1.00
H313   H     0.28214   0.15997   0.68546   0.00000  Uiso   1.00
O314   O     0.22878   0.46208   0.07075   0.00000  Uiso   1.00
O315   O     0.40279   0.98377   0.24950   0.00000  Uiso   1.00
O316   O     0.82885   0.70805   0.64391   0.00000  Uiso   1.00
N317   N     0.27904   0.41909   0.06862   0.00000  Uiso   1.00
N318   N     0.90305   0.57824   0.19602   0.00000  Uiso   1.00
N319   N     0.85037   0.73805   0.76448   0.00000  Uiso   1.00
N320   N     0.23101   0.36480   0.02528   0.00000  Uiso   1.00
N321   N     0.35501   0.02395   0.15268   0.00000  Uiso   1.00
N322   N     0.80233   0.68375   0.72114   0.00000  Uiso   1.00
C323   C     0.05886   0.47174   0.05899   0.00000  Uiso   1.00
C324   C     0.55193   0.90343   0.06224   0.00000  Uiso   1.00
C325   C     0.53057   0.87766   0.09164   0.00000  Uiso   1.00
C326   C     0.52765   0.81421   0.08938   0.00000  Uiso   1.00
C327   C     0.51420   0.71367   0.09911   0.00000  Uiso   1.00
C328   C     0.09827   0.47959   0.09650   0.00000  Uiso   1.00
C329   C     0.11586   0.51785   0.15470   0.00000  Uiso   1.00
C330   C     0.15195   0.51851   0.18128   0.00000  Uiso   1.00
C331   C     0.21043   0.53623   0.24416   0.00000  Uiso   1.00
C332   C     0.04888   0.48641   0.97967   0.00000  Uiso   1.00
C333   C     0.02494   0.53042   0.93964   0.00000  Uiso   1.00
C334   C     0.01945   0.53684   0.86786   0.00000  Uiso   1.00
C335   C     0.00124   0.56515   0.74935   0.00000  Uiso   1.00
C336   C     0.09168   0.40491   0.00271   0.00000  Uiso   1.00
C337   C     0.56976   0.86713   0.03167   0.00000  Uiso   1.00
C338   C     0.56688   0.80371   0.02937   0.00000  Uiso   1.00
C339   C     0.54551   0.77785   0.05876   0.00000  Uiso   1.00
C340   C     0.11610   0.44329   0.06593   0.00000  Uiso   1.00
C341   C     0.15217   0.44390   0.09243   0.00000  Uiso   1.00
C342   C     0.16981   0.48215   0.15065   0.00000  Uiso   1.00
C343   C     0.06670   0.45011   0.94910   0.00000  Uiso   1.00
C344   C     0.06125   0.45647   0.87737   0.00000  Uiso   1.00
C345   C     0.03731   0.50047   0.83724   0.00000  Uiso   1.00
H346   H     0.04498   0.50001   0.08279   0.00000  Uiso   1.00
H347   H     0.51678   0.90577   0.11530   0.00000  Uiso   1.00
H348   H     0.10205   0.54594   0.17834   0.00000  Uiso   1.00
H349   H     0.01115   0.55850   0.96331   0.00000  Uiso   1.00
H350   H     0.49338   0.78527   0.13787   0.00000  Uiso   1.00
H351   H     0.17319   0.58085   0.27079   0.00000  Uiso   1.00
H352   H     0.98150   0.60734   0.81737   0.00000  Uiso   1.00
H353   H     0.10556   0.37665   0.97891   0.00000  Uiso   1.00
H354   H     0.58068   0.77563   0.00571   0.00000  Uiso   1.00
H355   H     0.16596   0.41581   0.06875   0.00000  Uiso   1.00
H356   H     0.07505   0.42837   0.85373   0.00000  Uiso   1.00
H357   H     0.54525   0.67965   0.04893   0.00000  Uiso   1.00
H358   H     0.22505   0.47523   0.18184   0.00000  Uiso   1.00
H359   H     0.03337   0.50172   0.72843   0.00000  Uiso   1.00
O360   O     0.50186   0.66823   0.11293   0.00000  Uiso   1.00
O361   O     0.23776   0.55603   0.28730   0.00000  Uiso   1.00
O362   O     0.98627   0.59078   0.69242   0.00000  Uiso   1.00
N363   N     0.50900   0.77428   0.11325   0.00000  Uiso   1.00
N364   N     0.17710   0.55061   0.23752   0.00000  Uiso   1.00
N365   N     0.99790   0.57540   0.81362   0.00000  Uiso   1.00
N366   N     0.53690   0.71744   0.06539   0.00000  Uiso   1.00
N367   N     0.20501   0.49378   0.18966   0.00000  Uiso   1.00
N368   N     0.02581   0.51856   0.76576   0.00000  Uiso   1.00
C369   C     0.10525   0.98769   0.09215   0.00000  Uiso   1.00
C370   C     0.14125   0.99733   0.09288   0.00000  Uiso   1.00
C371   C     0.16766   0.95396   0.11266   0.00000  Uiso   1.00
C372   C     0.19870   0.97173   0.10970   0.00000  Uiso   1.00
C373   C     0.25394   0.97774   0.11421   0.00000  Uiso   1.00
C374   C     0.10088   0.03770   0.14017   0.00000  Uiso   1.00
C375   C     0.09335   0.02827   0.19970   0.00000  Uiso   1.00
C376   C     0.09040   0.08002   0.23654   0.00000  Uiso   1.00
C377   C     0.58294   0.64870   0.31443   0.00000  Uiso   1.00
C378   C     0.07920   0.00251   0.01569   0.00000  Uiso   1.00
C379   C     0.05343   0.96351   0.97056   0.00000  Uiso   1.00
C380   C     0.03222   0.98565   0.90260   0.00000  Uiso   1.00
C381   C     0.49110   0.49969   0.78722   0.00000  Uiso   1.00
C382   C     0.11341   0.09637   0.05169   0.00000  Uiso   1.00
C383   C     0.14569   0.05636   0.07090   0.00000  Uiso   1.00
C384   C     0.17669   0.07420   0.06790   0.00000  Uiso   1.00
C385   C     0.20314   0.03087   0.08768   0.00000  Uiso   1.00
C386   C     0.10532   0.09672   0.11819   0.00000  Uiso   1.00
C387   C     0.60238   0.64851   0.15494   0.00000  Uiso   1.00
C388   C     0.59484   0.63916   0.21452   0.00000  Uiso   1.00
C389   C     0.08364   0.06154   0.99371   0.00000  Uiso   1.00
C390   C     0.56246   0.58375   0.92580   0.00000  Uiso   1.00
C391   C     0.53666   0.54478   0.88058   0.00000  Uiso   1.00
H392   H     0.10180   0.94173   0.10926   0.00000  Uiso   1.00
H393   H     0.16422   0.90829   0.12967   0.00000  Uiso   1.00
H394   H     0.08991   0.98258   0.21669   0.00000  Uiso   1.00
H395   H     0.05000   0.91783   0.98759   0.00000  Uiso   1.00
H396   H     0.23539   0.89725   0.14264   0.00000  Uiso   1.00
H397   H     0.07870   0.05390   0.32611   0.00000  Uiso   1.00
H398   H     0.99454   0.91736   0.84300   0.00000  Uiso   1.00
H399   H     0.61686   0.64233   0.03458   0.00000  Uiso   1.00
H400   H     0.18011   0.11989   0.05090   0.00000  Uiso   1.00
H401   H     0.60581   0.69418   0.13792   0.00000  Uiso   1.00
H402   H     0.56590   0.62943   0.90881   0.00000  Uiso   1.00
H403   H     0.24829   0.06899   0.07870   0.00000  Uiso   1.00
H404   H     0.59160   0.72564   0.26218   0.00000  Uiso   1.00
H405   H     0.50744   0.58911   0.77906   0.00000  Uiso   1.00
O406   O     0.28318   0.96475   0.12277   0.00000  Uiso   1.00
O407   O     0.57760   0.67027   0.36347   0.00000  Uiso   1.00
O408   O     0.46719   0.49113   0.72964   0.00000  Uiso   1.00
N409   N     0.22974   0.94074   0.12534   0.00000  Uiso   1.00
N410   N     0.58325   0.58720   0.29688   0.00000  Uiso   1.00
N411   N     0.00456   0.95956   0.84522   0.00000  Uiso   1.00
N412   N     0.23668   0.03316   0.09094   0.00000  Uiso   1.00
N413   N     0.59019   0.67962   0.26248   0.00000  Uiso   1.00
N414   N     0.51151   0.55197   0.81081   0.00000  Uiso   1.00
C415   C     0.06159   0.44269   0.55420   0.00000  Uiso   1.00
C416   C     0.05531   0.51129   0.55706   0.00000  Uiso   1.00
C417   C     0.03582   0.53847   0.59000   0.00000  Uiso   1.00
C418   C     0.03320   0.60195   0.58669   0.00000  Uiso   1.00
C419   C     0.02098   0.70316   0.59648   0.00000  Uiso   1.00
C420   C     0.10102   0.43429   0.58686   0.00000  Uiso   1.00
C421   C     0.11996   0.39673   0.64486   0.00000  Uiso   1.00
C422   C     0.15582   0.39538   0.66663   0.00000  Uiso   1.00
C423   C     0.21456   0.37701   0.72266   0.00000  Uiso   1.00
C424   C     0.04901   0.42660   0.47453   0.00000  Uiso   1.00
C425   C     0.52423   0.88256   0.43806   0.00000  Uiso   1.00
C426   C     0.51631   0.87472   0.36526   0.00000  Uiso   1.00
C427   C     0.49429   0.84441   0.24687   0.00000  Uiso   1.00
C428   C     0.09158   0.50708   0.48976   0.00000  Uiso   1.00
C429   C     0.07160   0.54626   0.52206   0.00000  Uiso   1.00
C430   C     0.06900   0.60972   0.51869   0.00000  Uiso   1.00
C431   C     0.04952   0.63699   0.55162   0.00000  Uiso   1.00
C432   C     0.11731   0.46927   0.55186   0.00000  Uiso   1.00
C433   C     0.15314   0.46797   0.57355   0.00000  Uiso   1.00
C434   C     0.17214   0.43042   0.63156   0.00000  Uiso   1.00
C435   C     0.06530   0.46158   0.43952   0.00000  Uiso   1.00
C436   C     0.05741   0.45380   0.36676   0.00000  Uiso   1.00
C437   C     0.53262   0.90976   0.33019   0.00000  Uiso   1.00
H438   H     0.04891   0.41545   0.58146   0.00000  Uiso   1.00
H439   H     0.02322   0.51139   0.61709   0.00000  Uiso   1.00
H440   H     0.10735   0.36966   0.67193   0.00000  Uiso   1.00
H441   H     0.51163   0.85550   0.46517   0.00000  Uiso   1.00
H442   H     0.00193   0.63318   0.64117   0.00000  Uiso   1.00
H443   H     0.17932   0.33433   0.75680   0.00000  Uiso   1.00
H444   H     0.47748   0.80446   0.32080   0.00000  Uiso   1.00
H445   H     0.10427   0.53431   0.46250   0.00000  Uiso   1.00
H446   H     0.08161   0.63677   0.49160   0.00000  Uiso   1.00
H447   H     0.16574   0.49504   0.54645   0.00000  Uiso   1.00
H448   H     0.07002   0.48088   0.33969   0.00000  Uiso   1.00
H449   H     0.04933   0.73494   0.53933   0.00000  Uiso   1.00
H450   H     0.22671   0.43608   0.65495   0.00000  Uiso   1.00
H451   H     0.52487   0.90622   0.21896   0.00000  Uiso   1.00
O452   O     0.00974   0.74932   0.61156   0.00000  Uiso   1.00
O453   O     0.24246   0.35722   0.76325   0.00000  Uiso   1.00
O454   O     0.47765   0.81804   0.19123   0.00000  Uiso   1.00
N455   N     0.01619   0.64307   0.61320   0.00000  Uiso   1.00
N456   N     0.18204   0.36366   0.72131   0.00000  Uiso   1.00
N457   N     0.49334   0.83573   0.31369   0.00000  Uiso   1.00
N458   N     0.04169   0.69782   0.55840   0.00000  Uiso   1.00
N459   N     0.20754   0.41842   0.66651   0.00000  Uiso   1.00
N460   N     0.51884   0.89048   0.25889   0.00000  Uiso   1.00
C461   C     0.09571   0.04561   0.60902   0.00000  Uiso   1.00
C462   C     0.12192   0.01548   0.58520   0.00000  Uiso   1.00
C463   C     0.15700   0.03015   0.61030   0.00000  Uiso   1.00
C464   C     0.17663   0.99728   0.58180   0.00000  Uiso   1.00
C465   C     0.21962   0.95745   0.55272   0.00000  Uiso   1.00
C466   C     0.07989   0.99381   0.63610   0.00000  Uiso   1.00
C467   C     0.07963   0.99027   0.70399   0.00000  Uiso   1.00
C468   C     0.06387   0.93916   0.71833   0.00000  Uiso   1.00
C469   C     0.04158   0.86571   0.76825   0.00000  Uiso   1.00
C470   C     0.56645   0.56965   0.54048   0.00000  Uiso   1.00
C471   C     0.55487   0.62987   0.52798   0.00000  Uiso   1.00
C472   C     0.52779   0.64260   0.46183   0.00000  Uiso   1.00
C473   C     0.48462   0.68690   0.36329   0.00000  Uiso   1.00
C474   C     0.06819   0.96113   0.51377   0.00000  Uiso   1.00
C475   C     0.10698   0.96959   0.53347   0.00000  Uiso   1.00
C476   C     0.12656   0.93669   0.50492   0.00000  Uiso   1.00
C477   C     0.16166   0.95131   0.52997   0.00000  Uiso   1.00
C478   C     0.06495   0.94793   0.58437   0.00000  Uiso   1.00
C479   C     0.04918   0.89681   0.59861   0.00000  Uiso   1.00
C480   C     0.04890   0.89319   0.66650   0.00000  Uiso   1.00
C481   C     0.05150   0.02376   0.48875   0.00000  Uiso   1.00
C482   C     0.52443   0.53640   0.42260   0.00000  Uiso   1.00
C483   C     0.51282   0.59663   0.41000   0.00000  Uiso   1.00
H484   H     0.10734   0.08133   0.64929   0.00000  Uiso   1.00
H485   H     0.16856   0.06566   0.65034   0.00000  Uiso   1.00
H486   H     0.09119   0.02579   0.74401   0.00000  Uiso   1.00
H487   H     0.56645   0.66536   0.56803   0.00000  Uiso   1.00
H488   H     0.22984   0.02804   0.62871   0.00000  Uiso   1.00
H489   H     0.06670   0.94398   0.82620   0.00000  Uiso   1.00
H490   H     0.51451   0.73830   0.45512   0.00000  Uiso   1.00
H491   H     0.05655   0.92541   0.47349   0.00000  Uiso   1.00
H492   H     0.11498   0.90118   0.46489   0.00000  Uiso   1.00
H493   H     0.03762   0.86131   0.55856   0.00000  Uiso   1.00
H494   H     0.01287   0.00088   0.38258   0.00000  Uiso   1.00
H495   H     0.18636   0.89454   0.47819   0.00000  Uiso   1.00
H496   H     0.02321   0.81048   0.67568   0.00000  Uiso   1.00
H497   H     0.47103   0.60480   0.30460   0.00000  Uiso   1.00
O498   O     0.24745   0.94815   0.55098   0.00000  Uiso   1.00
O499   O     0.03341   0.83787   0.81008   0.00000  Uiso   1.00
O500   O     0.46495   0.72401   0.32323   0.00000  Uiso   1.00
N501   N     0.21159   0.99995   0.59445   0.00000  Uiso   1.00
N502   N     0.05906   0.92136   0.77910   0.00000  Uiso   1.00
N503   N     0.51027   0.69652   0.43218   0.00000  Uiso   1.00
N504   N     0.18819   0.92812   0.51346   0.00000  Uiso   1.00
N505   N     0.03567   0.84952   0.69811   0.00000  Uiso   1.00
N506   N     0.48687   0.62468   0.35119   0.00000  Uiso   1.00
C507   C     0.34304   0.70510   0.50656   0.00000  Uiso   1.00
C508   C     0.31722   0.66386   0.52047   0.00000  Uiso   1.00
C509   C     0.32553   0.61134   0.56270   0.00000  Uiso   1.00
C510   C     0.29816   0.57997   0.56870   0.00000  Uiso   1.00
C511   C     0.26330   0.51284   0.59565   0.00000  Uiso   1.00
C512   C     0.33780   0.76926   0.53018   0.00000  Uiso   1.00
C513   C     0.36342   0.80536   0.58056   0.00000  Uiso   1.00
C514   C     0.35338   0.86272   0.59472   0.00000  Uiso   1.00
C515   C     0.35048   0.95925   0.63670   0.00000  Uiso   1.00
C516   C     0.33067   0.70801   0.42488   0.00000  Uiso   1.00
C517   C     0.35030   0.69263   0.38672   0.00000  Uiso   1.00
C518   C     0.33426   0.69844   0.31223   0.00000  Uiso   1.00
C519   C     0.32029   0.69986   0.19072   0.00000  Uiso   1.00
C520   C     0.27965   0.74279   0.44212   0.00000  Uiso   1.00
C521   C     0.28278   0.68434   0.48547   0.00000  Uiso   1.00
C522   C     0.25539   0.65304   0.49140   0.00000  Uiso   1.00
C523   C     0.26366   0.60048   0.53363   0.00000  Uiso   1.00
C524   C     0.30337   0.78973   0.49518   0.00000  Uiso   1.00
C525   C     0.29328   0.84706   0.50926   0.00000  Uiso   1.00
C526   C     0.31888   0.88324   0.55965   0.00000  Uiso   1.00
C527   C     0.29624   0.72848   0.38987   0.00000  Uiso   1.00
C528   C     0.28016   0.73433   0.31542   0.00000  Uiso   1.00
C529   C     0.29976   0.71895   0.27716   0.00000  Uiso   1.00
H530   H     0.36985   0.68916   0.53382   0.00000  Uiso   1.00
H531   H     0.35219   0.59551   0.58979   0.00000  Uiso   1.00
H532   H     0.39007   0.78951   0.60764   0.00000  Uiso   1.00
H533   H     0.37695   0.67679   0.41383   0.00000  Uiso   1.00
H534   H     0.31741   0.50072   0.63643   0.00000  Uiso   1.00
H535   H     0.39729   0.90978   0.67405   0.00000  Uiso   1.00
H536   H     0.36963   0.67209   0.26536   0.00000  Uiso   1.00
H537   H     0.25284   0.75873   0.41486   0.00000  Uiso   1.00
H538   H     0.22874   0.66889   0.46430   0.00000  Uiso   1.00
H539   H     0.26663   0.86289   0.48216   0.00000  Uiso   1.00
H540   H     0.25351   0.75017   0.28835   0.00000  Uiso   1.00
H541   H     0.21722   0.56028   0.53458   0.00000  Uiso   1.00
H542   H     0.29711   0.96934   0.57220   0.00000  Uiso   1.00
H543   H     0.26944   0.73165   0.16352   0.00000  Uiso   1.00
O544   O     0.25358   0.47016   0.62020   0.00000  Uiso   1.00
O545   O     0.35839   0.00683   0.66954   0.00000  Uiso   1.00
O546   O     0.32209   0.69499   0.13336   0.00000  Uiso   1.00
N547   N     0.29714   0.52706   0.60566   0.00000  Uiso   1.00
N548   N     0.37182   0.90950   0.64084   0.00000  Uiso   1.00
N549   N     0.34596   0.68730   0.25876   0.00000  Uiso   1.00
N550   N     0.24323   0.55911   0.55086   0.00000  Uiso   1.00
N551   N     0.31791   0.94155   0.58604   0.00000  Uiso   1.00
N552   N     0.29205   0.71935   0.20396   0.00000  Uiso   1.00
C553   C     0.65163   0.24993   0.98650   0.00000  Uiso   1.00
C554   C     0.68248   0.28329   0.98191   0.00000  Uiso   1.00
C555   C     0.18165   0.84157   0.95390   0.00000  Uiso   1.00
C556   C     0.21264   0.86398   0.95455   0.00000  Uiso   1.00
C557   C     0.25586   0.92103   0.94318   0.00000  Uiso   1.00
C558   C     0.64830   0.18935   0.94679   0.00000  Uiso   1.00
C559   C     0.61874   0.16865   0.88926   0.00000  Uiso   1.00
C560   C     0.62096   0.11198   0.86035   0.00000  Uiso   1.00
C561   C     0.11112   0.52317   0.79449   0.00000  Uiso   1.00
C562   C     0.66282   0.23340   0.06572   0.00000  Uiso   1.00
C563   C     0.64547   0.24973   0.10819   0.00000  Uiso   1.00
C564   C     0.65991   0.23013   0.17941   0.00000  Uiso   1.00
C565   C     0.67261   0.20972   0.29821   0.00000  Uiso   1.00
C566   C     0.70812   0.18608   0.03747   0.00000  Uiso   1.00
C567   C     0.71316   0.24860   0.00960   0.00000  Uiso   1.00
C568   C     0.24415   0.77093   0.01029   0.00000  Uiso   1.00
C569   C     0.24337   0.82924   0.98229   0.00000  Uiso   1.00
C570   C     0.67898   0.15467   0.97447   0.00000  Uiso   1.00
C571   C     0.18124   0.59801   0.94565   0.00000  Uiso   1.00
C572   C     0.15169   0.57723   0.88808   0.00000  Uiso   1.00
C573   C     0.69351   0.19872   0.09341   0.00000  Uiso   1.00
C574   C     0.70797   0.17909   0.16458   0.00000  Uiso   1.00
C575   C     0.69064   0.19538   0.20715   0.00000  Uiso   1.00
H576   H     0.62774   0.27693   0.96494   0.00000  Uiso   1.00
H577   H     0.15790   0.86839   0.93247   0.00000  Uiso   1.00
H578   H     0.59500   0.19550   0.86785   0.00000  Uiso   1.00
H579   H     0.62173   0.27656   0.08674   0.00000  Uiso   1.00
H580   H     0.20487   0.95449   0.90866   0.00000  Uiso   1.00
H581   H     0.57224   0.08993   0.77241   0.00000  Uiso   1.00
H582   H     0.62859   0.26087   0.23399   0.00000  Uiso   1.00
H583   H     0.23201   0.65908   0.05903   0.00000  Uiso   1.00
H584   H     0.26789   0.74408   0.03172   0.00000  Uiso   1.00
H585   H     0.20499   0.57118   0.96709   0.00000  Uiso   1.00
H586   H     0.23171   0.65225   0.18599   0.00000  Uiso   1.00
H587   H     0.29414   0.85360   0.98921   0.00000  Uiso   1.00
H588   H     0.16150   0.48902   0.85295   0.00000  Uiso   1.00
H589   H     0.21786   0.65997   0.31454   0.00000  Uiso   1.00
O590   O     0.27122   0.96208   0.92925   0.00000  Uiso   1.00
O591   O     0.09721   0.48377   0.75050   0.00000  Uiso   1.00
O592   O     0.67115   0.20805   0.35609   0.00000  Uiso   1.00
N593   N     0.22096   0.91909   0.93138   0.00000  Uiso   1.00
N594   N     0.59695   0.07824   0.80398   0.00000  Uiso   1.00
N595   N     0.64963   0.23805   0.23552   0.00000  Uiso   1.00
N596   N     0.26899   0.86480   0.97472   0.00000  Uiso   1.00
N597   N     0.14499   0.52395   0.84732   0.00000  Uiso   1.00
N598   N     0.69767   0.18375   0.27886   0.00000  Uiso   1.00
C599   C     0.44114   0.97174   0.94101   0.00000  Uiso   1.00
C600   C     0.94807   0.40343   0.93776   0.00000  Uiso   1.00
C601   C     0.96943   0.37766   0.90836   0.00000  Uiso   1.00
C602   C     0.97235   0.31421   0.91062   0.00000  Uiso   1.00
C603   C     0.98580   0.21367   0.90089   0.00000  Uiso   1.00
C604   C     0.40173   0.97959   0.90350   0.00000  Uiso   1.00
C605   C     0.38414   0.01785   0.84530   0.00000  Uiso   1.00
C606   C     0.34805   0.01851   0.81872   0.00000  Uiso   1.00
C607   C     0.28957   0.03623   0.75584   0.00000  Uiso   1.00
C608   C     0.45112   0.98641   0.02033   0.00000  Uiso   1.00
C609   C     0.47506   0.03042   0.06036   0.00000  Uiso   1.00
C610   C     0.48055   0.03684   0.13214   0.00000  Uiso   1.00
C611   C     0.49876   0.06515   0.25065   0.00000  Uiso   1.00
C612   C     0.40832   0.90491   0.99729   0.00000  Uiso   1.00
C613   C     0.93024   0.36713   0.96833   0.00000  Uiso   1.00
C614   C     0.93312   0.30371   0.97063   0.00000  Uiso   1.00
C615   C     0.95449   0.27785   0.94124   0.00000  Uiso   1.00
C616   C     0.38390   0.94329   0.93407   0.00000  Uiso   1.00
C617   C     0.34783   0.94390   0.90757   0.00000  Uiso   1.00
C618   C     0.33019   0.98215   0.84935   0.00000  Uiso   1.00
C619   C     0.43330   0.95011   0.05090   0.00000  Uiso   1.00
C620   C     0.43875   0.95647   0.12263   0.00000  Uiso   1.00
C621   C     0.46269   0.00047   0.16276   0.00000  Uiso   1.00
H622   H     0.45502   0.00001   0.91721   0.00000  Uiso   1.00
H623   H     0.98322   0.40577   0.88470   0.00000  Uiso   1.00
H624   H     0.39795   0.04594   0.82166   0.00000  Uiso   1.00
H625   H     0.48885   0.05850   0.03669   0.00000  Uiso   1.00
H626   H     0.00662   0.28527   0.86213   0.00000  Uiso   1.00
H627   H     0.32681   0.08085   0.72921   0.00000  Uiso   1.00
H628   H     0.51850   0.10734   0.18263   0.00000  Uiso   1.00
H629   H     0.39444   0.87665   0.02109   0.00000  Uiso   1.00
H630   H     0.91932   0.27563   0.99429   0.00000  Uiso   1.00
H631   H     0.33404   0.91581   0.93125   0.00000  Uiso   1.00
H632   H     0.42495   0.92837   0.14627   0.00000  Uiso   1.00
H633   H     0.95475   0.17965   0.95107   0.00000  Uiso   1.00
H634   H     0.27495   0.97523   0.81816   0.00000  Uiso   1.00
H635   H     0.46663   0.00172   0.27157   0.00000  Uiso   1.00
O636   O     0.99814   0.16823   0.88707   0.00000  Uiso   1.00
O637   O     0.26224   0.05603   0.71270   0.00000  Uiso   1.00
O638   O     0.51373   0.09078   0.30758   0.00000  Uiso   1.00
N639   N     0.99100   0.27428   0.88675   0.00000  Uiso   1.00
N640   N     0.32290   0.05061   0.76248   0.00000  Uiso   1.00
N641   N     0.50210   0.07540   0.18638   0.00000  Uiso   1.00
N642   N     0.96310   0.21744   0.93461   0.00000  Uiso   1.00
N643   N     0.29499   0.99378   0.81034   0.00000  Uiso   1.00
N644   N     0.47419   0.01856   0.23424   0.00000  Uiso   1.00
C645   C     0.39475   0.48769   0.90785   0.00000  Uiso   1.00
C646   C     0.35875   0.49733   0.90712   0.00000  Uiso   1.00
C647   C     0.33234   0.45396   0.88734   0.00000  Uiso   1.00
C648   C     0.30130   0.47173   0.89030   0.00000  Uiso   1.00
C649   C     0.24606   0.47774   0.88579   0.00000  Uiso   1.00
C650   C     0.39912   0.53770   0.85983   0.00000  Uiso   1.00
C651   C     0.40665   0.52827   0.80030   0.00000  Uiso   1.00
C652   C     0.40960   0.58002   0.76346   0.00000  Uiso   1.00
C653   C     0.91706   0.14870   0.68557   0.00000  Uiso   1.00
C654   C     0.42080   0.50251   0.98431   0.00000  Uiso   1.00
C655   C     0.44657   0.46351   0.02944   0.00000  Uiso   1.00
C656   C     0.46778   0.48565   0.09740   0.00000  Uiso   1.00
C657   C     0.00890   0.99969   0.21278   0.00000  Uiso   1.00
C658   C     0.38659   0.59637   0.94831   0.00000  Uiso   1.00
C659   C     0.35431   0.55636   0.92910   0.00000  Uiso   1.00
C660   C     0.32331   0.57420   0.93210   0.00000  Uiso   1.00
C661   C     0.29686   0.53087   0.91232   0.00000  Uiso   1.00
C662   C     0.39468   0.59672   0.88181   0.00000  Uiso   1.00
C663   C     0.89762   0.14851   0.84506   0.00000  Uiso   1.00
C664   C     0.90516   0.13916   0.78548   0.00000  Uiso   1.00
C665   C     0.41636   0.56154   0.00629   0.00000  Uiso   1.00
C666   C     0.93754   0.08375   0.07420   0.00000  Uiso   1.00
C667   C     0.96334   0.04478   0.11942   0.00000  Uiso   1.00
H668   H     0.39820   0.44173   0.89074   0.00000  Uiso   1.00
H669   H     0.33578   0.40829   0.87033   0.00000  Uiso   1.00
H670   H     0.41009   0.48258   0.78331   0.00000  Uiso   1.00
H671   H     0.45000   0.41783   0.01241   0.00000  Uiso   1.00
H672   H     0.26461   0.39725   0.85736   0.00000  Uiso   1.00
H673   H     0.42130   0.55390   0.67389   0.00000  Uiso   1.00
H674   H     0.50546   0.41736   0.15700   0.00000  Uiso   1.00
H675   H     0.88314   0.14233   0.96542   0.00000  Uiso   1.00
H676   H     0.31989   0.61989   0.94910   0.00000  Uiso   1.00
H677   H     0.89419   0.19418   0.86208   0.00000  Uiso   1.00
H678   H     0.93410   0.12943   0.09119   0.00000  Uiso   1.00
H679   H     0.25171   0.56899   0.92130   0.00000  Uiso   1.00
H680   H     0.90840   0.22564   0.73782   0.00000  Uiso   1.00
H681   H     0.99256   0.08911   0.22094   0.00000  Uiso   1.00
O682   O     0.21682   0.46475   0.87723   0.00000  Uiso   1.00
O683   O     0.92240   0.17027   0.63653   0.00000  Uiso   1.00
O684   O     0.03281   0.99113   0.27036   0.00000  Uiso   1.00
N685   N     0.27026   0.44074   0.87466   0.00000  Uiso   1.00
N686   N     0.91675   0.08720   0.70312   0.00000  Uiso   1.00
N687   N     0.49544   0.45956   0.15478   0.00000  Uiso   1.00
N688   N     0.26332   0.53316   0.90906   0.00000  Uiso   1.00
N689   N     0.90981   0.17962   0.73752   0.00000  Uiso   1.00
N690   N     0.98849   0.05197   0.18919   0.00000  Uiso   1.00
C691   C     0.43841   0.94269   0.44580   0.00000  Uiso   1.00
C692   C     0.44469   0.01129   0.44294   0.00000  Uiso   1.00
C693   C     0.46418   0.03847   0.41000   0.00000  Uiso   1.00
C694   C     0.46680   0.10195   0.41331   0.00000  Uiso   1.00
C695   C     0.47902   0.20316   0.40352   0.00000  Uiso   1.00
C696   C     0.39898   0.93429   0.41314   0.00000  Uiso   1.00
C697   C     0.38004   0.89673   0.35514   0.00000  Uiso   1.00
C698   C     0.34418   0.89538   0.33337   0.00000  Uiso   1.00
C699   C     0.28544   0.87701   0.27734   0.00000  Uiso   1.00
C700   C     0.45099   0.92660   0.52547   0.00000  Uiso   1.00
C701   C     0.97577   0.38256   0.56194   0.00000  Uiso   1.00
C702   C     0.98369   0.37472   0.63474   0.00000  Uiso   1.00
C703   C     0.00571   0.34441   0.75313   0.00000  Uiso   1.00
C704   C     0.40842   0.00708   0.51024   0.00000  Uiso   1.00
C705   C     0.42840   0.04626   0.47794   0.00000  Uiso   1.00
C706   C     0.43100   0.10972   0.48131   0.00000  Uiso   1.00
C707   C     0.45048   0.13699   0.44838   0.00000  Uiso   1.00
C708   C     0.38269   0.96927   0.44814   0.00000  Uiso   1.00
C709   C     0.34686   0.96797   0.42645   0.00000  Uiso   1.00
C710   C     0.32786   0.93042   0.36844   0.00000  Uiso   1.00
C711   C     0.43470   0.96158   0.56048   0.00000  Uiso   1.00
C712   C     0.44259   0.95380   0.63324   0.00000  Uiso   1.00
C713   C     0.96738   0.40976   0.66981   0.00000  Uiso   1.00
H714   H     0.45109   0.91545   0.41854   0.00000  Uiso   1.00
H715   H     0.47678   0.01139   0.38291   0.00000  Uiso   1.00
H716   H     0.39265   0.86966   0.32807   0.00000  Uiso   1.00
H717   H     0.98837   0.35550   0.53483   0.00000  Uiso   1.00
H718   H     0.49807   0.13318   0.35883   0.00000  Uiso   1.00
H719   H     0.32068   0.83433   0.24320   0.00000  Uiso   1.00
H720   H     0.02252   0.30446   0.67920   0.00000  Uiso   1.00
H721   H     0.39573   0.03431   0.53750   0.00000  Uiso   1.00
H722   H     0.41839   0.13677   0.50840   0.00000  Uiso   1.00
H723   H     0.33426   0.99504   0.45355   0.00000  Uiso   1.00
H724   H     0.42998   0.98088   0.66031   0.00000  Uiso   1.00
H725   H     0.45067   0.23494   0.46067   0.00000  Uiso   1.00
H726   H     0.27329   0.93608   0.34505   0.00000  Uiso   1.00
H727   H     0.97513   0.40622   0.78104   0.00000  Uiso   1.00
O728   O     0.49026   0.24932   0.38844   0.00000  Uiso   1.00
O729   O     0.25754   0.85722   0.23675   0.00000  Uiso   1.00
O730   O     0.02235   0.31804   0.80877   0.00000  Uiso   1.00
N731   N     0.48381   0.14307   0.38680   0.00000  Uiso   1.00
N732   N     0.31796   0.86366   0.27869   0.00000  Uiso   1.00
N733   N     0.00666   0.33573   0.68631   0.00000  Uiso   1.00
N734   N     0.45831   0.19782   0.44160   0.00000  Uiso   1.00
N735   N     0.29246   0.91842   0.33349   0.00000  Uiso   1.00
N736   N     0.98116   0.39048   0.74111   0.00000  Uiso   1.00
C737   C     0.40429   0.54561   0.39098   0.00000  Uiso   1.00
C738   C     0.37808   0.51548   0.41480   0.00000  Uiso   1.00
C739   C     0.34300   0.53015   0.38970   0.00000  Uiso   1.00
C740   C     0.32337   0.49728   0.41820   0.00000  Uiso   1.00
C741   C     0.28038   0.45745   0.44728   0.00000  Uiso   1.00
C742   C     0.42011   0.49381   0.36390   0.00000  Uiso   1.00
C743   C     0.42037   0.49027   0.29601   0.00000  Uiso   1.00
C744   C     0.43613   0.43916   0.28167   0.00000  Uiso   1.00
C745   C     0.45842   0.36571   0.23175   0.00000  Uiso   1.00
C746   C     0.93355   0.06965   0.45952   0.00000  Uiso   1.00
C747   C     0.94513   0.12987   0.47202   0.00000  Uiso   1.00
C748   C     0.97221   0.14260   0.53817   0.00000  Uiso   1.00
C749   C     0.01538   0.18690   0.63671   0.00000  Uiso   1.00
C750   C     0.43181   0.46113   0.48623   0.00000  Uiso   1.00
C751   C     0.39302   0.46959   0.46653   0.00000  Uiso   1.00
C752   C     0.37344   0.43669   0.49508   0.00000  Uiso   1.00
C753   C     0.33834   0.45131   0.47003   0.00000  Uiso   1.00
C754   C     0.43505   0.44793   0.41563   0.00000  Uiso   1.00
C755   C     0.45082   0.39681   0.40139   0.00000  Uiso   1.00
C756   C     0.45110   0.39319   0.33350   0.00000  Uiso   1.00
C757   C     0.44850   0.52376   0.51125   0.00000  Uiso   1.00
C758   C     0.97557   0.03640   0.57740   0.00000  Uiso   1.00
C759   C     0.98718   0.09663   0.59000   0.00000  Uiso   1.00
H760   H     0.39266   0.58133   0.35071   0.00000  Uiso   1.00
H761   H     0.33144   0.56566   0.34966   0.00000  Uiso   1.00
H762   H     0.40881   0.52579   0.25599   0.00000  Uiso   1.00
H763   H     0.93355   0.16536   0.43197   0.00000  Uiso   1.00
H764   H     0.27016   0.52804   0.37129   0.00000  Uiso   1.00
H765   H     0.43330   0.44398   0.17380   0.00000  Uiso   1.00
H766   H     0.98549   0.23830   0.54488   0.00000  Uiso   1.00
H767   H     0.44345   0.42541   0.52651   0.00000  Uiso   1.00
H768   H     0.38502   0.40118   0.53511   0.00000  Uiso   1.00
H769   H     0.46238   0.36131   0.44144   0.00000  Uiso   1.00
H770   H     0.48713   0.50088   0.61742   0.00000  Uiso   1.00
H771   H     0.31364   0.39454   0.52181   0.00000  Uiso   1.00
H772   H     0.47679   0.31048   0.32432   0.00000  Uiso   1.00
H773   H     0.02897   0.10480   0.69540   0.00000  Uiso   1.00
O774   O     0.25255   0.44815   0.44902   0.00000  Uiso   1.00
O775   O     0.46659   0.33787   0.18992   0.00000  Uiso   1.00
O776   O     0.03505   0.22401   0.67677   0.00000  Uiso   1.00
N777   N     0.28841   0.49995   0.40555   0.00000  Uiso   1.00
N778   N     0.44094   0.42136   0.22090   0.00000  Uiso   1.00
N779   N     0.98973   0.19652   0.56782   0.00000  Uiso   1.00
N780   N     0.31181   0.42812   0.48654   0.00000  Uiso   1.00
N781   N     0.46433   0.34952   0.30189   0.00000  Uiso   1.00
N782   N     0.01313   0.12468   0.64881   0.00000  Uiso   1.00
C783   C     0.15696   0.20510   0.49344   0.00000  Uiso   1.00
C784   C     0.18278   0.16386   0.47953   0.00000  Uiso   1.00
C785   C     0.17447   0.11134   0.43730   0.00000  Uiso   1.00
C786   C     0.20184   0.07997   0.43130   0.00000  Uiso   1.00
C787   C     0.23670   0.01284   0.40435   0.00000  Uiso   1.00
C788   C     0.16220   0.26926   0.46982   0.00000  Uiso   1.00
C789   C     0.13658   0.30536   0.41944   0.00000  Uiso   1.00
C790   C     0.14662   0.36272   0.40528   0.00000  Uiso   1.00
C791   C     0.14952   0.45925   0.36330   0.00000  Uiso   1.00
C792   C     0.16933   0.20801   0.57512   0.00000  Uiso   1.00
C793   C     0.14970   0.19263   0.61328   0.00000  Uiso   1.00
C794   C     0.16574   0.19844   0.68777   0.00000  Uiso   1.00
C795   C     0.17971   0.19986   0.80928   0.00000  Uiso   1.00
C796   C     0.22035   0.24279   0.55788   0.00000  Uiso   1.00
C797   C     0.21722   0.18434   0.51453   0.00000  Uiso   1.00
C798   C     0.24461   0.15304   0.50860   0.00000  Uiso   1.00
C799   C     0.23634   0.10048   0.46637   0.00000  Uiso   1.00
C800   C     0.19663   0.28973   0.50482   0.00000  Uiso   1.00
C801   C     0.20672   0.34706   0.49074   0.00000  Uiso   1.00
C802   C     0.18112   0.38324   0.44035   0.00000  Uiso   1.00
C803   C     0.20376   0.22848   0.61013   0.00000  Uiso   1.00
C804   C     0.21984   0.23433   0.68458   0.00000  Uiso   1.00
C805   C     0.20024   0.21895   0.72284   0.00000  Uiso   1.00
H806   H     0.13015   0.18916   0.46618   0.00000  Uiso   1.00
H807   H     0.14781   0.09551   0.41021   0.00000  Uiso   1.00
H808   H     0.10993   0.28951   0.39236   0.00000  Uiso   1.00
H809   H     0.12305   0.17679   0.58617   0.00000  Uiso   1.00
H810   H     0.18259   0.00072   0.36357   0.00000  Uiso   1.00
H811   H     0.10271   0.40978   0.32595   0.00000  Uiso   1.00
H812   H     0.13037   0.17209   0.73464   0.00000  Uiso   1.00
H813   H     0.24716   0.25873   0.58514   0.00000  Uiso   1.00
H814   H     0.27126   0.16889   0.53570   0.00000  Uiso   1.00
H815   H     0.23337   0.36289   0.51784   0.00000  Uiso   1.00
H816   H     0.24649   0.25017   0.71165   0.00000  Uiso   1.00
H817   H     0.28278   0.06028   0.46542   0.00000  Uiso   1.00
H818   H     0.20289   0.46934   0.42780   0.00000  Uiso   1.00
H819   H     0.23056   0.23165   0.83648   0.00000  Uiso   1.00
O820   O     0.24642   0.97016   0.37980   0.00000  Uiso   1.00
O821   O     0.14161   0.50683   0.33046   0.00000  Uiso   1.00
O822   O     0.17791   0.19499   0.86664   0.00000  Uiso   1.00
N823   N     0.20286   0.02706   0.39434   0.00000  Uiso   1.00
N824   N     0.12818   0.40950   0.35916   0.00000  Uiso   1.00
N825   N     0.15404   0.18730   0.74124   0.00000  Uiso   1.00
N826   N     0.25677   0.05911   0.44914   0.00000  Uiso   1.00
N827   N     0.18209   0.44155   0.41396   0.00000  Uiso   1.00
N828   N     0.20795   0.21935   0.79604   0.00000  Uiso   1.00
C829   C     0.15163   0.74993   0.98650   0.00000  Uiso   1.00
C830   C     0.18248   0.78329   0.98191   0.00000  Uiso   1.00
C831   C     0.68165   0.34157   0.95390   0.00000  Uiso   1.00
C832   C     0.71264   0.36398   0.95455   0.00000  Uiso   1.00
C833   C     0.75586   0.42103   0.94318   0.00000  Uiso   1.00
C834   C     0.14830   0.68935   0.94679   0.00000  Uiso   1.00
C835   C     0.11874   0.66865   0.88926   0.00000  Uiso   1.00
C836   C     0.12096   0.61198   0.86035   0.00000  Uiso   1.00
C837   C     0.61112   0.02317   0.79449   0.00000  Uiso   1.00
C838   C     0.16282   0.73340   0.06572   0.00000  Uiso   1.00
C839   C     0.14547   0.74973   0.10819   0.00000  Uiso   1.00
C840   C     0.15991   0.73013   0.17941   0.00000  Uiso   1.00
C841   C     0.17261   0.70972   0.29821   0.00000  Uiso   1.00
C842   C     0.20812   0.68608   0.03747   0.00000  Uiso   1.00
C843   C     0.21316   0.74860   0.00960   0.00000  Uiso   1.00
C844   C     0.74415   0.27093   0.01029   0.00000  Uiso   1.00
C845   C     0.74337   0.32924   0.98229   0.00000  Uiso   1.00
C846   C     0.17898   0.65467   0.97447   0.00000  Uiso   1.00
C847   C     0.68124   0.09801   0.94565   0.00000  Uiso   1.00
C848   C     0.65169   0.07723   0.88808   0.00000  Uiso   1.00
C849   C     0.19351   0.69872   0.09341   0.00000  Uiso   1.00
C850   C     0.20797   0.67909   0.16458   0.00000  Uiso   1.00
C851   C     0.19064   0.69538   0.20715   0.00000  Uiso   1.00
H852   H     0.12774   0.77693   0.96494   0.00000  Uiso   1.00
H853   H     0.65790   0.36839   0.93247   0.00000  Uiso   1.00
H854   H     0.09500   0.69550   0.86785   0.00000  Uiso   1.00
H855   H     0.12173   0.77656   0.08674   0.00000  Uiso   1.00
H856   H     0.70487   0.45449   0.90866   0.00000  Uiso   1.00
H857   H     0.07224   0.58993   0.77241   0.00000  Uiso   1.00
H858   H     0.12859   0.76087   0.23399   0.00000  Uiso   1.00
H859   H     0.73201   0.15908   0.05903   0.00000  Uiso   1.00
H860   H     0.76789   0.24408   0.03172   0.00000  Uiso   1.00
H861   H     0.70499   0.07118   0.96709   0.00000  Uiso   1.00
H862   H     0.73171   0.15225   0.18599   0.00000  Uiso   1.00
H863   H     0.79414   0.35360   0.98921   0.00000  Uiso   1.00
H864   H     0.66150   0.98902   0.85295   0.00000  Uiso   1.00
H865   H     0.71786   0.15997   0.31454   0.00000  Uiso   1.00
O866   O     0.77122   0.46208   0.92925   0.00000  Uiso   1.00
O867   O     0.59721   0.98377   0.75050   0.00000  Uiso   1.00
O868   O     0.17115   0.70805   0.35609   0.00000  Uiso   1.00
N869   N     0.72096   0.41909   0.93138   0.00000  Uiso   1.00
N870   N     0.09695   0.57824   0.80398   0.00000  Uiso   1.00
N871   N     0.14963   0.73805   0.23552   0.00000  Uiso   1.00
N872   N     0.76899   0.36480   0.97472   0.00000  Uiso   1.00
N873   N     0.64499   0.02395   0.84732   0.00000  Uiso   1.00
N874   N     0.19767   0.68375   0.27886   0.00000  Uiso   1.00
C875   C     0.94114   0.47174   0.94101   0.00000  Uiso   1.00
C876   C     0.44807   0.90343   0.93776   0.00000  Uiso   1.00
C877   C     0.46943   0.87766   0.90836   0.00000  Uiso   1.00
C878   C     0.47235   0.81421   0.91062   0.00000  Uiso   1.00
C879   C     0.48580   0.71367   0.90089   0.00000  Uiso   1.00
C880   C     0.90173   0.47959   0.90350   0.00000  Uiso   1.00
C881   C     0.88414   0.51785   0.84530   0.00000  Uiso   1.00
C882   C     0.84805   0.51851   0.81872   0.00000  Uiso   1.00
C883   C     0.78957   0.53623   0.75584   0.00000  Uiso   1.00
C884   C     0.95112   0.48641   0.02033   0.00000  Uiso   1.00
C885   C     0.97506   0.53042   0.06036   0.00000  Uiso   1.00
C886   C     0.98055   0.53684   0.13214   0.00000  Uiso   1.00
C887   C     0.99876   0.56515   0.25065   0.00000  Uiso   1.00
C888   C     0.90832   0.40491   0.99729   0.00000  Uiso   1.00
C889   C     0.43024   0.86713   0.96833   0.00000  Uiso   1.00
C890   C     0.43312   0.80371   0.97063   0.00000  Uiso   1.00
C891   C     0.45449   0.77785   0.94124   0.00000  Uiso   1.00
C892   C     0.88390   0.44329   0.93407   0.00000  Uiso   1.00
C893   C     0.84783   0.44390   0.90757   0.00000  Uiso   1.00
C894   C     0.83019   0.48215   0.84935   0.00000  Uiso   1.00
C895   C     0.93330   0.45011   0.05090   0.00000  Uiso   1.00
C896   C     0.93875   0.45647   0.12263   0.00000  Uiso   1.00
C897   C     0.96269   0.50047   0.16276   0.00000  Uiso   1.00
H898   H     0.95502   0.50001   0.91721   0.00000  Uiso   1.00
H899   H     0.48322   0.90577   0.88470   0.00000  Uiso   1.00
H900   H     0.89795   0.54594   0.82166   0.00000  Uiso   1.00
H901   H     0.98885   0.55850   0.03669   0.00000  Uiso   1.00
H902   H     0.50662   0.78527   0.86213   0.00000  Uiso   1.00
H903   H     0.82681   0.58085   0.72921   0.00000  Uiso   1.00
H904   H     0.01850   0.60734   0.18263   0.00000  Uiso   1.00
H905   H     0.89444   0.37665   0.02109   0.00000  Uiso   1.00
H906   H     0.41932   0.77563   0.99429   0.00000  Uiso   1.00
H907   H     0.83404   0.41581   0.93125   0.00000  Uiso   1.00
H908   H     0.92495   0.42837   0.14627   0.00000  Uiso   1.00
H909   H     0.45475   0.67965   0.95107   0.00000  Uiso   1.00
H910   H     0.77495   0.47523   0.81816   0.00000  Uiso   1.00
H911   H     0.96663   0.50172   0.27157   0.00000  Uiso   1.00
O912   O     0.49814   0.66823   0.88707   0.00000  Uiso   1.00
O913   O     0.76224   0.55603   0.71270   0.00000  Uiso   1.00
O914   O     0.01373   0.59078   0.30758   0.00000  Uiso   1.00
N915   N     0.49100   0.77428   0.88675   0.00000  Uiso   1.00
N916   N     0.82290   0.55061   0.76248   0.00000  Uiso   1.00
N917   N     0.00210   0.57540   0.18638   0.00000  Uiso   1.00
N918   N     0.46310   0.71744   0.93461   0.00000  Uiso   1.00
N919   N     0.79499   0.49378   0.81034   0.00000  Uiso   1.00
N920   N     0.97419   0.51856   0.23424   0.00000  Uiso   1.00
C921   C     0.89475   0.98769   0.90785   0.00000  Uiso   1.00
C922   C     0.85875   0.99733   0.90712   0.00000  Uiso   1.00
C923   C     0.83234   0.95396   0.88734   0.00000  Uiso   1.00
C924   C     0.80130   0.97173   0.89030   0.00000  Uiso   1.00
C925   C     0.74606   0.97774   0.88579   0.00000  Uiso   1.00
C926   C     0.89912   0.03770   0.85983   0.00000  Uiso   1.00
C927   C     0.90665   0.02827   0.80030   0.00000  Uiso   1.00
C928   C     0.90960   0.08002   0.76346   0.00000  Uiso   1.00
C929   C     0.41706   0.64870   0.68557   0.00000  Uiso   1.00
C930   C     0.92080   0.00251   0.98431   0.00000  Uiso   1.00
C931   C     0.94657   0.96351   0.02944   0.00000  Uiso   1.00
C932   C     0.96778   0.98565   0.09740   0.00000  Uiso   1.00
C933   C     0.50890   0.49969   0.21278   0.00000  Uiso   1.00
C934   C     0.88659   0.09637   0.94831   0.00000  Uiso   1.00
C935   C     0.85431   0.05636   0.92910   0.00000  Uiso   1.00
C936   C     0.82331   0.07420   0.93210   0.00000  Uiso   1.00
C937   C     0.79686   0.03087   0.91232   0.00000  Uiso   1.00
C938   C     0.89468   0.09672   0.88181   0.00000  Uiso   1.00
C939   C     0.39762   0.64851   0.84506   0.00000  Uiso   1.00
C940   C     0.40516   0.63916   0.78548   0.00000  Uiso   1.00
C941   C     0.91636   0.06154   0.00629   0.00000  Uiso   1.00
C942   C     0.43754   0.58375   0.07420   0.00000  Uiso   1.00
C943   C     0.46334   0.54478   0.11942   0.00000  Uiso   1.00
H944   H     0.89820   0.94173   0.89074   0.00000  Uiso   1.00
H945   H     0.83578   0.90829   0.87033   0.00000  Uiso   1.00
H946   H     0.91009   0.98258   0.78331   0.00000  Uiso   1.00
H947   H     0.95000   0.91783   0.01241   0.00000  Uiso   1.00
H948   H     0.76461   0.89725   0.85736   0.00000  Uiso   1.00
H949   H     0.92130   0.05390   0.67389   0.00000  Uiso   1.00
H950   H     0.00546   0.91736   0.15700   0.00000  Uiso   1.00
H951   H     0.38314   0.64233   0.96542   0.00000  Uiso   1.00
H952   H     0.81989   0.11989   0.94910   0.00000  Uiso   1.00
H953   H     0.39419   0.69418   0.86208   0.00000  Uiso   1.00
H954   H     0.43410   0.62943   0.09119   0.00000  Uiso   1.00
H955   H     0.75171   0.06899   0.92130   0.00000  Uiso   1.00
H956   H     0.40840   0.72564   0.73782   0.00000  Uiso   1.00
H957   H     0.49256   0.58911   0.22094   0.00000  Uiso   1.00
O958   O     0.71682   0.96475   0.87723   0.00000  Uiso   1.00
O959   O     0.42240   0.67027   0.63653   0.00000  Uiso   1.00
O960   O     0.53281   0.49113   0.27036   0.00000  Uiso   1.00
N961   N     0.77026   0.94074   0.87466   0.00000  Uiso   1.00
N962   N     0.41675   0.58720   0.70312   0.00000  Uiso   1.00
N963   N     0.99544   0.95956   0.15478   0.00000  Uiso   1.00
N964   N     0.76332   0.03316   0.90906   0.00000  Uiso   1.00
N965   N     0.40981   0.67962   0.73752   0.00000  Uiso   1.00
N966   N     0.48849   0.55197   0.18919   0.00000  Uiso   1.00
C967   C     0.93841   0.44269   0.44580   0.00000  Uiso   1.00
C968   C     0.94469   0.51129   0.44294   0.00000  Uiso   1.00
C969   C     0.96418   0.53847   0.41000   0.00000  Uiso   1.00
C970   C     0.96680   0.60195   0.41331   0.00000  Uiso   1.00
C971   C     0.97902   0.70316   0.40352   0.00000  Uiso   1.00
C972   C     0.89898   0.43429   0.41314   0.00000  Uiso   1.00
C973   C     0.88004   0.39673   0.35514   0.00000  Uiso   1.00
C974   C     0.84418   0.39538   0.33337   0.00000  Uiso   1.00
C975   C     0.78544   0.37701   0.27734   0.00000  Uiso   1.00
C976   C     0.95099   0.42660   0.52547   0.00000  Uiso   1.00
C977   C     0.47577   0.88256   0.56194   0.00000  Uiso   1.00
C978   C     0.48369   0.87472   0.63474   0.00000  Uiso   1.00
C979   C     0.50571   0.84441   0.75313   0.00000  Uiso   1.00
C980   C     0.90842   0.50708   0.51024   0.00000  Uiso   1.00
C981   C     0.92840   0.54626   0.47794   0.00000  Uiso   1.00
C982   C     0.93100   0.60972   0.48131   0.00000  Uiso   1.00
C983   C     0.95048   0.63699   0.44838   0.00000  Uiso   1.00
C984   C     0.88269   0.46927   0.44814   0.00000  Uiso   1.00
C985   C     0.84686   0.46797   0.42645   0.00000  Uiso   1.00
C986   C     0.82786   0.43042   0.36844   0.00000  Uiso   1.00
C987   C     0.93470   0.46158   0.56048   0.00000  Uiso   1.00
C988   C     0.94259   0.45380   0.63324   0.00000  Uiso   1.00
C989   C     0.46738   0.90976   0.66981   0.00000  Uiso   1.00
H990   H     0.95109   0.41545   0.41854   0.00000  Uiso   1.00
H991   H     0.97678   0.51139   0.38291   0.00000  Uiso   1.00
H992   H     0.89265   0.36966   0.32807   0.00000  Uiso   1.00
H993   H     0.48837   0.85550   0.53483   0.00000  Uiso   1.00
H994   H     0.99807   0.63318   0.35883   0.00000  Uiso   1.00
H995   H     0.82068   0.33433   0.24320   0.00000  Uiso   1.00
H996   H     0.52252   0.80446   0.67920   0.00000  Uiso   1.00
H997   H     0.89573   0.53431   0.53750   0.00000  Uiso   1.00
H998   H     0.91839   0.63677   0.50840   0.00000  Uiso   1.00
H999   H     0.83426   0.49504   0.45355   0.00000  Uiso   1.00
H1000  H     0.92998   0.48088   0.66031   0.00000  Uiso   1.00
H1001  H     0.95067   0.73494   0.46067   0.00000  Uiso   1.00
H1002  H     0.77329   0.43608   0.34505   0.00000  Uiso   1.00
H1003  H     0.47513   0.90622   0.78104   0.00000  Uiso   1.00
O1004  O     0.99026   0.74932   0.38844   0.00000  Uiso   1.00
O1005  O     0.75754   0.35722   0.23675   0.00000  Uiso   1.00
O1006  O     0.52235   0.81804   0.80877   0.00000  Uiso   1.00
N1007  N     0.98381   0.64307   0.38680   0.00000  Uiso   1.00
N1008  N     0.81796   0.36366   0.27869   0.00000  Uiso   1.00
N1009  N     0.50666   0.83573   0.68631   0.00000  Uiso   1.00
N1010  N     0.95831   0.69782   0.44160   0.00000  Uiso   1.00
N1011  N     0.79246   0.41842   0.33349   0.00000  Uiso   1.00
N1012  N     0.48116   0.89048   0.74111   0.00000  Uiso   1.00
C1013  C     0.90429   0.04561   0.39098   0.00000  Uiso   1.00
C1014  C     0.87808   0.01548   0.41480   0.00000  Uiso   1.00
C1015  C     0.84300   0.03015   0.38970   0.00000  Uiso   1.00
C1016  C     0.82337   0.99728   0.41820   0.00000  Uiso   1.00
C1017  C     0.78038   0.95745   0.44728   0.00000  Uiso   1.00
C1018  C     0.92011   0.99381   0.36390   0.00000  Uiso   1.00
C1019  C     0.92037   0.99027   0.29601   0.00000  Uiso   1.00
C1020  C     0.93613   0.93916   0.28167   0.00000  Uiso   1.00
C1021  C     0.95842   0.86571   0.23175   0.00000  Uiso   1.00
C1022  C     0.43355   0.56965   0.45952   0.00000  Uiso   1.00
C1023  C     0.44513   0.62987   0.47202   0.00000  Uiso   1.00
C1024  C     0.47221   0.64260   0.53817   0.00000  Uiso   1.00
C1025  C     0.51538   0.68690   0.63671   0.00000  Uiso   1.00
C1026  C     0.93181   0.96113   0.48623   0.00000  Uiso   1.00
C1027  C     0.89302   0.96959   0.46653   0.00000  Uiso   1.00
C1028  C     0.87344   0.93669   0.49508   0.00000  Uiso   1.00
C1029  C     0.83834   0.95131   0.47003   0.00000  Uiso   1.00
C1030  C     0.93505   0.94793   0.41563   0.00000  Uiso   1.00
C1031  C     0.95082   0.89681   0.40139   0.00000  Uiso   1.00
C1032  C     0.95110   0.89319   0.33350   0.00000  Uiso   1.00
C1033  C     0.94850   0.02376   0.51125   0.00000  Uiso   1.00
C1034  C     0.47557   0.53640   0.57740   0.00000  Uiso   1.00
C1035  C     0.48718   0.59663   0.59000   0.00000  Uiso   1.00
H1036  H     0.89266   0.08133   0.35071   0.00000  Uiso   1.00
H1037  H     0.83144   0.06566   0.34966   0.00000  Uiso   1.00
H1038  H     0.90881   0.02579   0.25599   0.00000  Uiso   1.00
H1039  H     0.43355   0.66536   0.43197   0.00000  Uiso   1.00
H1040  H     0.77016   0.02804   0.37129   0.00000  Uiso   1.00
H1041  H     0.93330   0.94398   0.17380   0.00000  Uiso   1.00
H1042  H     0.48549   0.73830   0.54488   0.00000  Uiso   1.00
H1043  H     0.94345   0.92541   0.52651   0.00000  Uiso   1.00
H1044  H     0.88502   0.90118   0.53511   0.00000  Uiso   1.00
H1045  H     0.96238   0.86131   0.44144   0.00000  Uiso   1.00
H1046  H     0.98713   0.00088   0.61742   0.00000  Uiso   1.00
H1047  H     0.81364   0.89454   0.52181   0.00000  Uiso   1.00
H1048  H     0.97679   0.81048   0.32432   0.00000  Uiso   1.00
H1049  H     0.52897   0.60480   0.69540   0.00000  Uiso   1.00
O1050  O     0.75255   0.94815   0.44902   0.00000  Uiso   1.00
O1051  O     0.96659   0.83787   0.18992   0.00000  Uiso   1.00
O1052  O     0.53505   0.72401   0.67677   0.00000  Uiso   1.00
N1053  N     0.78841   0.99995   0.40555   0.00000  Uiso   1.00
N1054  N     0.94094   0.92136   0.22090   0.00000  Uiso   1.00
N1055  N     0.48973   0.69652   0.56782   0.00000  Uiso   1.00
N1056  N     0.81181   0.92812   0.48654   0.00000  Uiso   1.00
N1057  N     0.96433   0.84952   0.30189   0.00000  Uiso   1.00
N1058  N     0.51313   0.62468   0.64881   0.00000  Uiso   1.00
C1059  C     0.65696   0.70510   0.49344   0.00000  Uiso   1.00
C1060  C     0.68278   0.66386   0.47953   0.00000  Uiso   1.00
C1061  C     0.67447   0.61134   0.43730   0.00000  Uiso   1.00
C1062  C     0.70184   0.57997   0.43130   0.00000  Uiso   1.00
C1063  C     0.73670   0.51284   0.40435   0.00000  Uiso   1.00
C1064  C     0.66220   0.76926   0.46982   0.00000  Uiso   1.00
C1065  C     0.63658   0.80536   0.41944   0.00000  Uiso   1.00
C1066  C     0.64662   0.86272   0.40528   0.00000  Uiso   1.00
C1067  C     0.64952   0.95925   0.36330   0.00000  Uiso   1.00
C1068  C     0.66933   0.70801   0.57512   0.00000  Uiso   1.00
C1069  C     0.64970   0.69263   0.61328   0.00000  Uiso   1.00
C1070  C     0.66574   0.69844   0.68777   0.00000  Uiso   1.00
C1071  C     0.67971   0.69986   0.80928   0.00000  Uiso   1.00
C1072  C     0.72035   0.74279   0.55788   0.00000  Uiso   1.00
C1073  C     0.71722   0.68434   0.51453   0.00000  Uiso   1.00
C1074  C     0.74461   0.65304   0.50860   0.00000  Uiso   1.00
C1075  C     0.73634   0.60048   0.46637   0.00000  Uiso   1.00
C1076  C     0.69663   0.78973   0.50482   0.00000  Uiso   1.00
C1077  C     0.70672   0.84706   0.49074   0.00000  Uiso   1.00
C1078  C     0.68112   0.88324   0.44035   0.00000  Uiso   1.00
C1079  C     0.70376   0.72848   0.61013   0.00000  Uiso   1.00
C1080  C     0.71984   0.73433   0.68458   0.00000  Uiso   1.00
C1081  C     0.70024   0.71895   0.72284   0.00000  Uiso   1.00
H1082  H     0.63015   0.68916   0.46618   0.00000  Uiso   1.00
H1083  H     0.64781   0.59551   0.41021   0.00000  Uiso   1.00
H1084  H     0.60993   0.78951   0.39236   0.00000  Uiso   1.00
H1085  H     0.62305   0.67679   0.58617   0.00000  Uiso   1.00
H1086  H     0.68259   0.50072   0.36357   0.00000  Uiso   1.00
H1087  H     0.60271   0.90978   0.32595   0.00000  Uiso   1.00
H1088  H     0.63037   0.67209   0.73464   0.00000  Uiso   1.00
H1089  H     0.74716   0.75873   0.58514   0.00000  Uiso   1.00
H1090  H     0.77126   0.66889   0.53570   0.00000  Uiso   1.00
H1091  H     0.73337   0.86289   0.51784   0.00000  Uiso   1.00
H1092  H     0.74649   0.75017   0.71165   0.00000  Uiso   1.00
H1093  H     0.78278   0.56028   0.46542   0.00000  Uiso   1.00
H1094  H     0.70289   0.96934   0.42780   0.00000  Uiso   1.00
H1095  H     0.73056   0.73165   0.83648   0.00000  Uiso   1.00
O1096  O     0.74642   0.47016   0.37980   0.00000  Uiso   1.00
O1097  O     0.64161   0.00683   0.33046   0.00000  Uiso   1.00
O1098  O     0.67791   0.69499   0.86664   0.00000  Uiso   1.00
N1099  N     0.70286   0.52706   0.39434   0.00000  Uiso   1.00
N1100  N     0.62818   0.90950   0.35916   0.00000  Uiso   1.00
N1101  N     0.65404   0.68730   0.74124   0.00000  Uiso   1.00
N1102  N     0.75677   0.55911   0.44914   0.00000  Uiso   1.00
N1103  N     0.68209   0.94155   0.41396   0.00000  Uiso   1.00
N1104  N     0.70795   0.71935   0.79604   0.00000  Uiso   1.00
