data_job_05153
_audit_creation_date              2018-12-19
_audit_creation_method            'Materials Studio'
_symmetry_space_group_name_H-M    'P1'
_symmetry_Int_Tables_number       1
_symmetry_cell_setting            triclinic
loop_
_symmetry_equiv_pos_as_xyz
  x,y,z
_cell_length_a                    21.0862
_cell_length_b                    33.5788
_cell_length_c                    12.7683
_cell_angle_alpha                 90.0000
_cell_angle_beta                  90.0000
_cell_angle_gamma                 90.0000
loop_
_atom_site_label
_atom_site_type_symbol
_atom_site_fract_x
_atom_site_fract_y
_atom_site_fract_z
_atom_site_U_iso_or_equiv
_atom_site_adp_type
_atom_site_occupancy
C1     C     0.33176   0.69112   0.36549   0.00000  Uiso   1.00
C2     C     0.36042   0.64946   0.36123   0.00000  Uiso   1.00
C3     C     0.35158   0.62193   0.28149   0.00000  Uiso   1.00
C4     C     0.38187   0.58544   0.29220   0.00000  Uiso   1.00
C5     C     0.42059   0.52205   0.27233   0.00000  Uiso   1.00
C6     C     0.29503   0.69331   0.46820   0.00000  Uiso   1.00
C7     C     0.23121   0.70267   0.47838   0.00000  Uiso   1.00
C8     C     0.20646   0.70311   0.57914   0.00000  Uiso   1.00
C9     C     0.14367   0.70784   0.72534   0.00000  Uiso   1.00
C10    C     0.38747   0.71973   0.37725   0.00000  Uiso   1.00
C11    C     0.40138   0.75131   0.31097   0.00000  Uiso   1.00
C12    C     0.45444   0.77399   0.33517   0.00000  Uiso   1.00
C13    C     0.53519   0.81974   0.34015   0.00000  Uiso   1.00
C14    C     0.40126   0.67527   0.52631   0.00000  Uiso   1.00
C15    C     0.39817   0.64085   0.44859   0.00000  Uiso   1.00
C16    C     0.42848   0.60440   0.45943   0.00000  Uiso   1.00
C17    C     0.41969   0.57682   0.37971   0.00000  Uiso   1.00
C18    C     0.33277   0.68471   0.55555   0.00000  Uiso   1.00
C19    C     0.30811   0.68514   0.65632   0.00000  Uiso   1.00
C20    C     0.24427   0.69449   0.66665   0.00000  Uiso   1.00
C21    C     0.42522   0.71113   0.46460   0.00000  Uiso   1.00
C22    C     0.47827   0.73377   0.48891   0.00000  Uiso   1.00
C23    C     0.49226   0.76537   0.42268   0.00000  Uiso   1.00
H24    H     0.30237   0.69782   0.29748   0.00000  Uiso   1.00
H25    H     0.32236   0.62860   0.21390   0.00000  Uiso   1.00
H26    H     0.20201   0.70933   0.41077   0.00000  Uiso   1.00
H27    H     0.37215   0.75796   0.24338   0.00000  Uiso   1.00
H28    H     0.36115   0.54805   0.15978   0.00000  Uiso   1.00
H29    H     0.10740   0.71829   0.57489   0.00000  Uiso   1.00
H30    H     0.46617   0.82083   0.22192   0.00000  Uiso   1.00
H31    H     0.43065   0.66857   0.59433   0.00000  Uiso   1.00
H32    H     0.45769   0.59774   0.52703   0.00000  Uiso   1.00
H33    H     0.33734   0.67848   0.72390   0.00000  Uiso   1.00
H34    H     0.50747   0.72710   0.55651   0.00000  Uiso   1.00
H35    H     0.47098   0.52301   0.41393   0.00000  Uiso   1.00
H36    H     0.21723   0.69325   0.82904   0.00000  Uiso   1.00
H37    H     0.57600   0.79579   0.47607   0.00000  Uiso   1.00
O38    O     0.43152   0.48946   0.23725   0.00000  Uiso   1.00
O39    O     0.09861   0.71282   0.78185   0.00000  Uiso   1.00
O40    O     0.56930   0.84734   0.31877   0.00000  Uiso   1.00
N41    N     0.38330   0.55188   0.22882   0.00000  Uiso   1.00
N42    N     0.14605   0.71104   0.61692   0.00000  Uiso   1.00
N43    N     0.48146   0.80691   0.28694   0.00000  Uiso   1.00
N44    N     0.44240   0.53840   0.36558   0.00000  Uiso   1.00
N45    N     0.20515   0.69756   0.75367   0.00000  Uiso   1.00
N46    N     0.54056   0.79344   0.42370   0.00000  Uiso   1.00
C47    C     0.33176   0.19112   0.86549   0.00000  Uiso   1.00
C48    C     0.36042   0.14946   0.86123   0.00000  Uiso   1.00
C49    C     0.35158   0.12193   0.78149   0.00000  Uiso   1.00
C50    C     0.38187   0.08544   0.79220   0.00000  Uiso   1.00
C51    C     0.42059   0.02205   0.77233   0.00000  Uiso   1.00
C52    C     0.29503   0.19331   0.96820   0.00000  Uiso   1.00
C53    C     0.23121   0.20267   0.97838   0.00000  Uiso   1.00
C54    C     0.20646   0.20311   0.07914   0.00000  Uiso   1.00
C55    C     0.14367   0.20784   0.22534   0.00000  Uiso   1.00
C56    C     0.38747   0.21973   0.87725   0.00000  Uiso   1.00
C57    C     0.40138   0.25131   0.81097   0.00000  Uiso   1.00
C58    C     0.45444   0.27399   0.83517   0.00000  Uiso   1.00
C59    C     0.53519   0.31974   0.84015   0.00000  Uiso   1.00
C60    C     0.40126   0.17527   0.02631   0.00000  Uiso   1.00
C61    C     0.39817   0.14085   0.94859   0.00000  Uiso   1.00
C62    C     0.42848   0.10440   0.95943   0.00000  Uiso   1.00
C63    C     0.41969   0.07682   0.87971   0.00000  Uiso   1.00
C64    C     0.33277   0.18471   0.05555   0.00000  Uiso   1.00
C65    C     0.30811   0.18514   0.15632   0.00000  Uiso   1.00
C66    C     0.24427   0.19449   0.16665   0.00000  Uiso   1.00
C67    C     0.42522   0.21113   0.96460   0.00000  Uiso   1.00
C68    C     0.47827   0.23377   0.98891   0.00000  Uiso   1.00
C69    C     0.49226   0.26537   0.92268   0.00000  Uiso   1.00
H70    H     0.30237   0.19782   0.79748   0.00000  Uiso   1.00
H71    H     0.32236   0.12860   0.71390   0.00000  Uiso   1.00
H72    H     0.20201   0.20933   0.91077   0.00000  Uiso   1.00
H73    H     0.37215   0.25796   0.74338   0.00000  Uiso   1.00
H74    H     0.36115   0.04805   0.65978   0.00000  Uiso   1.00
H75    H     0.10740   0.21829   0.07489   0.00000  Uiso   1.00
H76    H     0.46617   0.32083   0.72192   0.00000  Uiso   1.00
H77    H     0.43065   0.16857   0.09433   0.00000  Uiso   1.00
H78    H     0.45769   0.09774   0.02703   0.00000  Uiso   1.00
H79    H     0.33734   0.17848   0.22390   0.00000  Uiso   1.00
H80    H     0.50747   0.22710   0.05651   0.00000  Uiso   1.00
H81    H     0.47098   0.02301   0.91393   0.00000  Uiso   1.00
H82    H     0.21723   0.19325   0.32904   0.00000  Uiso   1.00
H83    H     0.57600   0.29579   0.97607   0.00000  Uiso   1.00
O84    O     0.43152   0.98946   0.73725   0.00000  Uiso   1.00
O85    O     0.09861   0.21282   0.28185   0.00000  Uiso   1.00
O86    O     0.56930   0.34734   0.81877   0.00000  Uiso   1.00
N87    N     0.38330   0.05188   0.72882   0.00000  Uiso   1.00
N88    N     0.14605   0.21104   0.11692   0.00000  Uiso   1.00
N89    N     0.48146   0.30691   0.78694   0.00000  Uiso   1.00
N90    N     0.44240   0.03840   0.86558   0.00000  Uiso   1.00
N91    N     0.20515   0.19756   0.25367   0.00000  Uiso   1.00
N92    N     0.54056   0.29344   0.92370   0.00000  Uiso   1.00
C93    C     0.83176   0.69112   0.86549   0.00000  Uiso   1.00
C94    C     0.86042   0.64946   0.86123   0.00000  Uiso   1.00
C95    C     0.85158   0.62193   0.78149   0.00000  Uiso   1.00
C96    C     0.88187   0.58544   0.79220   0.00000  Uiso   1.00
C97    C     0.92059   0.52205   0.77233   0.00000  Uiso   1.00
C98    C     0.79503   0.69331   0.96820   0.00000  Uiso   1.00
C99    C     0.73121   0.70267   0.97838   0.00000  Uiso   1.00
C100   C     0.70646   0.70311   0.07914   0.00000  Uiso   1.00
C101   C     0.64367   0.70784   0.22534   0.00000  Uiso   1.00
C102   C     0.88747   0.71973   0.87725   0.00000  Uiso   1.00
C103   C     0.90138   0.75131   0.81097   0.00000  Uiso   1.00
C104   C     0.95444   0.77399   0.83517   0.00000  Uiso   1.00
C105   C     0.03519   0.81974   0.84015   0.00000  Uiso   1.00
C106   C     0.90126   0.67527   0.02631   0.00000  Uiso   1.00
C107   C     0.89817   0.64085   0.94859   0.00000  Uiso   1.00
C108   C     0.92848   0.60440   0.95943   0.00000  Uiso   1.00
C109   C     0.91969   0.57682   0.87971   0.00000  Uiso   1.00
C110   C     0.83277   0.68471   0.05555   0.00000  Uiso   1.00
C111   C     0.80811   0.68514   0.15632   0.00000  Uiso   1.00
C112   C     0.74427   0.69449   0.16665   0.00000  Uiso   1.00
C113   C     0.92522   0.71113   0.96460   0.00000  Uiso   1.00
C114   C     0.97827   0.73377   0.98891   0.00000  Uiso   1.00
C115   C     0.99226   0.76537   0.92268   0.00000  Uiso   1.00
H116   H     0.80237   0.69782   0.79748   0.00000  Uiso   1.00
H117   H     0.82236   0.62860   0.71390   0.00000  Uiso   1.00
H118   H     0.70201   0.70933   0.91077   0.00000  Uiso   1.00
H119   H     0.87215   0.75796   0.74338   0.00000  Uiso   1.00
H120   H     0.86115   0.54805   0.65978   0.00000  Uiso   1.00
H121   H     0.60740   0.71829   0.07489   0.00000  Uiso   1.00
H122   H     0.96617   0.82083   0.72192   0.00000  Uiso   1.00
H123   H     0.93065   0.66857   0.09433   0.00000  Uiso   1.00
H124   H     0.95769   0.59774   0.02703   0.00000  Uiso   1.00
H125   H     0.83734   0.67848   0.22390   0.00000  Uiso   1.00
H126   H     0.00747   0.72710   0.05651   0.00000  Uiso   1.00
H127   H     0.97098   0.52301   0.91393   0.00000  Uiso   1.00
H128   H     0.71723   0.69325   0.32904   0.00000  Uiso   1.00
H129   H     0.07600   0.79579   0.97607   0.00000  Uiso   1.00
O130   O     0.93152   0.48946   0.73725   0.00000  Uiso   1.00
O131   O     0.59861   0.71282   0.28185   0.00000  Uiso   1.00
O132   O     0.06930   0.84734   0.81877   0.00000  Uiso   1.00
N133   N     0.88330   0.55188   0.72882   0.00000  Uiso   1.00
N134   N     0.64605   0.71104   0.11692   0.00000  Uiso   1.00
N135   N     0.98146   0.80691   0.78694   0.00000  Uiso   1.00
N136   N     0.94240   0.53840   0.86558   0.00000  Uiso   1.00
N137   N     0.70515   0.69756   0.25367   0.00000  Uiso   1.00
N138   N     0.04056   0.79344   0.92370   0.00000  Uiso   1.00
C139   C     0.83176   0.19112   0.36549   0.00000  Uiso   1.00
C140   C     0.86042   0.14946   0.36123   0.00000  Uiso   1.00
C141   C     0.85158   0.12193   0.28149   0.00000  Uiso   1.00
C142   C     0.88187   0.08544   0.29220   0.00000  Uiso   1.00
C143   C     0.92059   0.02205   0.27233   0.00000  Uiso   1.00
C144   C     0.79503   0.19331   0.46820   0.00000  Uiso   1.00
C145   C     0.73121   0.20267   0.47838   0.00000  Uiso   1.00
C146   C     0.70646   0.20311   0.57914   0.00000  Uiso   1.00
C147   C     0.64367   0.20784   0.72534   0.00000  Uiso   1.00
C148   C     0.88747   0.21973   0.37725   0.00000  Uiso   1.00
C149   C     0.90138   0.25131   0.31097   0.00000  Uiso   1.00
C150   C     0.95444   0.27399   0.33517   0.00000  Uiso   1.00
C151   C     0.03519   0.31974   0.34015   0.00000  Uiso   1.00
C152   C     0.90126   0.17527   0.52631   0.00000  Uiso   1.00
C153   C     0.89817   0.14085   0.44859   0.00000  Uiso   1.00
C154   C     0.92848   0.10440   0.45943   0.00000  Uiso   1.00
C155   C     0.91969   0.07682   0.37971   0.00000  Uiso   1.00
C156   C     0.83277   0.18471   0.55555   0.00000  Uiso   1.00
C157   C     0.80811   0.18514   0.65632   0.00000  Uiso   1.00
C158   C     0.74427   0.19449   0.66665   0.00000  Uiso   1.00
C159   C     0.92522   0.21113   0.46460   0.00000  Uiso   1.00
C160   C     0.97827   0.23377   0.48891   0.00000  Uiso   1.00
C161   C     0.99226   0.26537   0.42268   0.00000  Uiso   1.00
H162   H     0.80237   0.19782   0.29748   0.00000  Uiso   1.00
H163   H     0.82236   0.12860   0.21390   0.00000  Uiso   1.00
H164   H     0.70201   0.20933   0.41077   0.00000  Uiso   1.00
H165   H     0.87215   0.25796   0.24338   0.00000  Uiso   1.00
H166   H     0.86115   0.04805   0.15978   0.00000  Uiso   1.00
H167   H     0.60740   0.21829   0.57489   0.00000  Uiso   1.00
H168   H     0.96617   0.32083   0.22192   0.00000  Uiso   1.00
H169   H     0.93065   0.16857   0.59433   0.00000  Uiso   1.00
H170   H     0.95769   0.09774   0.52703   0.00000  Uiso   1.00
H171   H     0.83734   0.17848   0.72390   0.00000  Uiso   1.00
H172   H     0.00747   0.22710   0.55651   0.00000  Uiso   1.00
H173   H     0.97098   0.02301   0.41393   0.00000  Uiso   1.00
H174   H     0.71723   0.19325   0.82904   0.00000  Uiso   1.00
H175   H     0.07600   0.29579   0.47607   0.00000  Uiso   1.00
O176   O     0.93152   0.98946   0.23725   0.00000  Uiso   1.00
O177   O     0.59861   0.21282   0.78185   0.00000  Uiso   1.00
O178   O     0.06930   0.34734   0.31877   0.00000  Uiso   1.00
N179   N     0.88330   0.05188   0.22882   0.00000  Uiso   1.00
N180   N     0.64605   0.21104   0.61692   0.00000  Uiso   1.00
N181   N     0.98146   0.30691   0.28694   0.00000  Uiso   1.00
N182   N     0.94240   0.03840   0.36558   0.00000  Uiso   1.00
N183   N     0.70515   0.19756   0.75367   0.00000  Uiso   1.00
N184   N     0.04056   0.29344   0.42370   0.00000  Uiso   1.00
C185   C     0.66824   0.30888   0.36549   0.00000  Uiso   1.00
C186   C     0.63958   0.35054   0.36123   0.00000  Uiso   1.00
C187   C     0.64842   0.37807   0.28149   0.00000  Uiso   1.00
C188   C     0.61813   0.41456   0.29220   0.00000  Uiso   1.00
C189   C     0.57941   0.47795   0.27233   0.00000  Uiso   1.00
C190   C     0.70497   0.30669   0.46820   0.00000  Uiso   1.00
C191   C     0.76879   0.29733   0.47838   0.00000  Uiso   1.00
C192   C     0.79354   0.29689   0.57914   0.00000  Uiso   1.00
C193   C     0.85633   0.29216   0.72534   0.00000  Uiso   1.00
C194   C     0.61253   0.28027   0.37725   0.00000  Uiso   1.00
C195   C     0.59862   0.24869   0.31097   0.00000  Uiso   1.00
C196   C     0.54556   0.22601   0.33517   0.00000  Uiso   1.00
C197   C     0.46481   0.18026   0.34015   0.00000  Uiso   1.00
C198   C     0.59874   0.32473   0.52631   0.00000  Uiso   1.00
C199   C     0.60183   0.35915   0.44859   0.00000  Uiso   1.00
C200   C     0.57152   0.39560   0.45943   0.00000  Uiso   1.00
C201   C     0.58031   0.42318   0.37971   0.00000  Uiso   1.00
C202   C     0.66723   0.31529   0.55555   0.00000  Uiso   1.00
C203   C     0.69189   0.31486   0.65632   0.00000  Uiso   1.00
C204   C     0.75573   0.30551   0.66665   0.00000  Uiso   1.00
C205   C     0.57478   0.28887   0.46460   0.00000  Uiso   1.00
C206   C     0.52173   0.26623   0.48891   0.00000  Uiso   1.00
C207   C     0.50774   0.23463   0.42268   0.00000  Uiso   1.00
H208   H     0.69763   0.30218   0.29748   0.00000  Uiso   1.00
H209   H     0.67764   0.37140   0.21390   0.00000  Uiso   1.00
H210   H     0.79799   0.29067   0.41077   0.00000  Uiso   1.00
H211   H     0.62785   0.24204   0.24338   0.00000  Uiso   1.00
H212   H     0.63885   0.45195   0.15978   0.00000  Uiso   1.00
H213   H     0.89260   0.28171   0.57489   0.00000  Uiso   1.00
H214   H     0.53383   0.17917   0.22192   0.00000  Uiso   1.00
H215   H     0.56935   0.33143   0.59433   0.00000  Uiso   1.00
H216   H     0.54231   0.40226   0.52703   0.00000  Uiso   1.00
H217   H     0.66266   0.32152   0.72390   0.00000  Uiso   1.00
H218   H     0.49253   0.27290   0.55651   0.00000  Uiso   1.00
H219   H     0.52902   0.47699   0.41393   0.00000  Uiso   1.00
H220   H     0.78277   0.30675   0.82904   0.00000  Uiso   1.00
H221   H     0.42400   0.20421   0.47607   0.00000  Uiso   1.00
O222   O     0.56848   0.51054   0.23725   0.00000  Uiso   1.00
O223   O     0.90139   0.28718   0.78185   0.00000  Uiso   1.00
O224   O     0.43070   0.15266   0.31877   0.00000  Uiso   1.00
N225   N     0.61670   0.44812   0.22882   0.00000  Uiso   1.00
N226   N     0.85395   0.28896   0.61692   0.00000  Uiso   1.00
N227   N     0.51854   0.19309   0.28694   0.00000  Uiso   1.00
N228   N     0.55760   0.46160   0.36558   0.00000  Uiso   1.00
N229   N     0.79485   0.30244   0.75367   0.00000  Uiso   1.00
N230   N     0.45944   0.20656   0.42370   0.00000  Uiso   1.00
C231   C     0.66824   0.80888   0.86549   0.00000  Uiso   1.00
C232   C     0.63958   0.85054   0.86123   0.00000  Uiso   1.00
C233   C     0.64842   0.87807   0.78149   0.00000  Uiso   1.00
C234   C     0.61813   0.91456   0.79220   0.00000  Uiso   1.00
C235   C     0.57941   0.97795   0.77233   0.00000  Uiso   1.00
C236   C     0.70497   0.80669   0.96820   0.00000  Uiso   1.00
C237   C     0.76879   0.79733   0.97838   0.00000  Uiso   1.00
C238   C     0.79354   0.79689   0.07914   0.00000  Uiso   1.00
C239   C     0.85633   0.79216   0.22534   0.00000  Uiso   1.00
C240   C     0.61253   0.78027   0.87725   0.00000  Uiso   1.00
C241   C     0.59862   0.74869   0.81097   0.00000  Uiso   1.00
C242   C     0.54556   0.72601   0.83517   0.00000  Uiso   1.00
C243   C     0.46481   0.68026   0.84015   0.00000  Uiso   1.00
C244   C     0.59874   0.82473   0.02631   0.00000  Uiso   1.00
C245   C     0.60183   0.85915   0.94859   0.00000  Uiso   1.00
C246   C     0.57152   0.89560   0.95943   0.00000  Uiso   1.00
C247   C     0.58031   0.92318   0.87971   0.00000  Uiso   1.00
C248   C     0.66723   0.81529   0.05555   0.00000  Uiso   1.00
C249   C     0.69189   0.81486   0.15632   0.00000  Uiso   1.00
C250   C     0.75573   0.80551   0.16665   0.00000  Uiso   1.00
C251   C     0.57478   0.78887   0.96460   0.00000  Uiso   1.00
C252   C     0.52173   0.76623   0.98891   0.00000  Uiso   1.00
C253   C     0.50774   0.73463   0.92268   0.00000  Uiso   1.00
H254   H     0.69763   0.80218   0.79748   0.00000  Uiso   1.00
H255   H     0.67764   0.87140   0.71390   0.00000  Uiso   1.00
H256   H     0.79799   0.79067   0.91077   0.00000  Uiso   1.00
H257   H     0.62785   0.74204   0.74338   0.00000  Uiso   1.00
H258   H     0.63885   0.95195   0.65978   0.00000  Uiso   1.00
H259   H     0.89260   0.78171   0.07489   0.00000  Uiso   1.00
H260   H     0.53383   0.67917   0.72192   0.00000  Uiso   1.00
H261   H     0.56935   0.83143   0.09433   0.00000  Uiso   1.00
H262   H     0.54231   0.90226   0.02703   0.00000  Uiso   1.00
H263   H     0.66266   0.82152   0.22390   0.00000  Uiso   1.00
H264   H     0.49253   0.77290   0.05651   0.00000  Uiso   1.00
H265   H     0.52902   0.97699   0.91393   0.00000  Uiso   1.00
H266   H     0.78277   0.80675   0.32904   0.00000  Uiso   1.00
H267   H     0.42400   0.70421   0.97607   0.00000  Uiso   1.00
O268   O     0.56848   0.01054   0.73725   0.00000  Uiso   1.00
O269   O     0.90139   0.78718   0.28185   0.00000  Uiso   1.00
O270   O     0.43070   0.65266   0.81877   0.00000  Uiso   1.00
N271   N     0.61670   0.94812   0.72882   0.00000  Uiso   1.00
N272   N     0.85395   0.78896   0.11692   0.00000  Uiso   1.00
N273   N     0.51854   0.69309   0.78694   0.00000  Uiso   1.00
N274   N     0.55760   0.96160   0.86558   0.00000  Uiso   1.00
N275   N     0.79485   0.80244   0.25367   0.00000  Uiso   1.00
N276   N     0.45944   0.70656   0.92370   0.00000  Uiso   1.00
C277   C     0.16824   0.30888   0.86549   0.00000  Uiso   1.00
C278   C     0.13958   0.35054   0.86123   0.00000  Uiso   1.00
C279   C     0.14842   0.37807   0.78149   0.00000  Uiso   1.00
C280   C     0.11813   0.41456   0.79220   0.00000  Uiso   1.00
C281   C     0.07941   0.47795   0.77233   0.00000  Uiso   1.00
C282   C     0.20497   0.30669   0.96820   0.00000  Uiso   1.00
C283   C     0.26879   0.29733   0.97838   0.00000  Uiso   1.00
C284   C     0.29354   0.29689   0.07914   0.00000  Uiso   1.00
C285   C     0.35633   0.29216   0.22534   0.00000  Uiso   1.00
C286   C     0.11253   0.28027   0.87725   0.00000  Uiso   1.00
C287   C     0.09862   0.24869   0.81097   0.00000  Uiso   1.00
C288   C     0.04556   0.22601   0.83517   0.00000  Uiso   1.00
C289   C     0.96481   0.18026   0.84015   0.00000  Uiso   1.00
C290   C     0.09874   0.32473   0.02631   0.00000  Uiso   1.00
C291   C     0.10183   0.35915   0.94859   0.00000  Uiso   1.00
C292   C     0.07152   0.39560   0.95943   0.00000  Uiso   1.00
C293   C     0.08031   0.42318   0.87971   0.00000  Uiso   1.00
C294   C     0.16723   0.31529   0.05555   0.00000  Uiso   1.00
C295   C     0.19189   0.31486   0.15632   0.00000  Uiso   1.00
C296   C     0.25573   0.30551   0.16665   0.00000  Uiso   1.00
C297   C     0.07478   0.28887   0.96460   0.00000  Uiso   1.00
C298   C     0.02173   0.26623   0.98891   0.00000  Uiso   1.00
C299   C     0.00774   0.23463   0.92268   0.00000  Uiso   1.00
H300   H     0.19763   0.30218   0.79748   0.00000  Uiso   1.00
H301   H     0.17764   0.37140   0.71390   0.00000  Uiso   1.00
H302   H     0.29799   0.29067   0.91077   0.00000  Uiso   1.00
H303   H     0.12785   0.24204   0.74338   0.00000  Uiso   1.00
H304   H     0.13885   0.45195   0.65978   0.00000  Uiso   1.00
H305   H     0.39260   0.28171   0.07489   0.00000  Uiso   1.00
H306   H     0.03383   0.17917   0.72192   0.00000  Uiso   1.00
H307   H     0.06935   0.33143   0.09433   0.00000  Uiso   1.00
H308   H     0.04231   0.40226   0.02703   0.00000  Uiso   1.00
H309   H     0.16266   0.32152   0.22390   0.00000  Uiso   1.00
H310   H     0.99253   0.27290   0.05651   0.00000  Uiso   1.00
H311   H     0.02902   0.47699   0.91393   0.00000  Uiso   1.00
H312   H     0.28277   0.30675   0.32904   0.00000  Uiso   1.00
H313   H     0.92400   0.20421   0.97607   0.00000  Uiso   1.00
O314   O     0.06848   0.51054   0.73725   0.00000  Uiso   1.00
O315   O     0.40139   0.28718   0.28185   0.00000  Uiso   1.00
O316   O     0.93070   0.15266   0.81877   0.00000  Uiso   1.00
N317   N     0.11670   0.44812   0.72882   0.00000  Uiso   1.00
N318   N     0.35395   0.28896   0.11692   0.00000  Uiso   1.00
N319   N     0.01854   0.19309   0.78694   0.00000  Uiso   1.00
N320   N     0.05760   0.46160   0.86558   0.00000  Uiso   1.00
N321   N     0.29485   0.30244   0.25367   0.00000  Uiso   1.00
N322   N     0.95944   0.20656   0.92370   0.00000  Uiso   1.00
C323   C     0.16824   0.80888   0.36549   0.00000  Uiso   1.00
C324   C     0.13958   0.85054   0.36123   0.00000  Uiso   1.00
C325   C     0.14842   0.87807   0.28149   0.00000  Uiso   1.00
C326   C     0.11813   0.91456   0.29220   0.00000  Uiso   1.00
C327   C     0.07941   0.97795   0.27233   0.00000  Uiso   1.00
C328   C     0.20497   0.80669   0.46820   0.00000  Uiso   1.00
C329   C     0.26879   0.79733   0.47838   0.00000  Uiso   1.00
C330   C     0.29354   0.79689   0.57914   0.00000  Uiso   1.00
C331   C     0.35633   0.79216   0.72534   0.00000  Uiso   1.00
C332   C     0.11253   0.78027   0.37725   0.00000  Uiso   1.00
C333   C     0.09862   0.74869   0.31097   0.00000  Uiso   1.00
C334   C     0.04556   0.72601   0.33517   0.00000  Uiso   1.00
C335   C     0.96481   0.68026   0.34015   0.00000  Uiso   1.00
C336   C     0.09874   0.82473   0.52631   0.00000  Uiso   1.00
C337   C     0.10183   0.85915   0.44859   0.00000  Uiso   1.00
C338   C     0.07152   0.89560   0.45943   0.00000  Uiso   1.00
C339   C     0.08031   0.92318   0.37971   0.00000  Uiso   1.00
C340   C     0.16723   0.81529   0.55555   0.00000  Uiso   1.00
C341   C     0.19189   0.81486   0.65632   0.00000  Uiso   1.00
C342   C     0.25573   0.80551   0.66665   0.00000  Uiso   1.00
C343   C     0.07478   0.78887   0.46460   0.00000  Uiso   1.00
C344   C     0.02173   0.76623   0.48891   0.00000  Uiso   1.00
C345   C     0.00774   0.73463   0.42268   0.00000  Uiso   1.00
H346   H     0.19763   0.80218   0.29748   0.00000  Uiso   1.00
H347   H     0.17764   0.87140   0.21390   0.00000  Uiso   1.00
H348   H     0.29799   0.79067   0.41077   0.00000  Uiso   1.00
H349   H     0.12785   0.74204   0.24338   0.00000  Uiso   1.00
H350   H     0.13885   0.95195   0.15978   0.00000  Uiso   1.00
H351   H     0.39260   0.78171   0.57489   0.00000  Uiso   1.00
H352   H     0.03383   0.67917   0.22192   0.00000  Uiso   1.00
H353   H     0.06935   0.83143   0.59433   0.00000  Uiso   1.00
H354   H     0.04231   0.90226   0.52703   0.00000  Uiso   1.00
H355   H     0.16266   0.82152   0.72390   0.00000  Uiso   1.00
H356   H     0.99253   0.77290   0.55651   0.00000  Uiso   1.00
H357   H     0.02902   0.97699   0.41393   0.00000  Uiso   1.00
H358   H     0.28277   0.80675   0.82904   0.00000  Uiso   1.00
H359   H     0.92400   0.70421   0.47607   0.00000  Uiso   1.00
O360   O     0.06848   0.01054   0.23725   0.00000  Uiso   1.00
O361   O     0.40139   0.78718   0.78185   0.00000  Uiso   1.00
O362   O     0.93070   0.65266   0.31877   0.00000  Uiso   1.00
N363   N     0.11670   0.94812   0.22882   0.00000  Uiso   1.00
N364   N     0.35395   0.78896   0.61692   0.00000  Uiso   1.00
N365   N     0.01854   0.69309   0.28694   0.00000  Uiso   1.00
N366   N     0.05760   0.96160   0.36558   0.00000  Uiso   1.00
N367   N     0.29485   0.80244   0.75367   0.00000  Uiso   1.00
N368   N     0.95944   0.70656   0.42370   0.00000  Uiso   1.00
C369   C     0.58176   0.55888   0.61549   0.00000  Uiso   1.00
C370   C     0.61042   0.60054   0.61123   0.00000  Uiso   1.00
C371   C     0.60158   0.62807   0.53149   0.00000  Uiso   1.00
C372   C     0.63187   0.66456   0.54220   0.00000  Uiso   1.00
C373   C     0.67059   0.72795   0.52233   0.00000  Uiso   1.00
C374   C     0.54503   0.55669   0.71820   0.00000  Uiso   1.00
C375   C     0.48121   0.54733   0.72838   0.00000  Uiso   1.00
C376   C     0.45646   0.54689   0.82914   0.00000  Uiso   1.00
C377   C     0.39367   0.54216   0.97534   0.00000  Uiso   1.00
C378   C     0.63747   0.53027   0.62725   0.00000  Uiso   1.00
C379   C     0.65138   0.49869   0.56097   0.00000  Uiso   1.00
C380   C     0.70444   0.47601   0.58517   0.00000  Uiso   1.00
C381   C     0.78519   0.43026   0.59015   0.00000  Uiso   1.00
C382   C     0.65126   0.57473   0.77631   0.00000  Uiso   1.00
C383   C     0.64817   0.60915   0.69859   0.00000  Uiso   1.00
C384   C     0.67848   0.64560   0.70943   0.00000  Uiso   1.00
C385   C     0.66969   0.67318   0.62971   0.00000  Uiso   1.00
C386   C     0.58277   0.56529   0.80555   0.00000  Uiso   1.00
C387   C     0.55811   0.56486   0.90632   0.00000  Uiso   1.00
C388   C     0.49427   0.55551   0.91665   0.00000  Uiso   1.00
C389   C     0.67522   0.53887   0.71460   0.00000  Uiso   1.00
C390   C     0.72827   0.51623   0.73891   0.00000  Uiso   1.00
C391   C     0.74226   0.48463   0.67268   0.00000  Uiso   1.00
H392   H     0.55237   0.55218   0.54748   0.00000  Uiso   1.00
H393   H     0.57236   0.62140   0.46390   0.00000  Uiso   1.00
H394   H     0.45201   0.54067   0.66077   0.00000  Uiso   1.00
H395   H     0.62215   0.49204   0.49338   0.00000  Uiso   1.00
H396   H     0.61115   0.70195   0.40978   0.00000  Uiso   1.00
H397   H     0.35740   0.53171   0.82489   0.00000  Uiso   1.00
H398   H     0.71617   0.42917   0.47192   0.00000  Uiso   1.00
H399   H     0.68065   0.58143   0.84433   0.00000  Uiso   1.00
H400   H     0.70769   0.65226   0.77703   0.00000  Uiso   1.00
H401   H     0.58734   0.57152   0.97390   0.00000  Uiso   1.00
H402   H     0.75747   0.52290   0.80651   0.00000  Uiso   1.00
H403   H     0.72098   0.72699   0.66393   0.00000  Uiso   1.00
H404   H     0.46723   0.55675   0.07904   0.00000  Uiso   1.00
H405   H     0.82600   0.45421   0.72607   0.00000  Uiso   1.00
O406   O     0.68152   0.76054   0.48725   0.00000  Uiso   1.00
O407   O     0.34861   0.53718   0.03185   0.00000  Uiso   1.00
O408   O     0.81930   0.40266   0.56877   0.00000  Uiso   1.00
N409   N     0.63330   0.69812   0.47882   0.00000  Uiso   1.00
N410   N     0.39605   0.53896   0.86692   0.00000  Uiso   1.00
N411   N     0.73146   0.44309   0.53694   0.00000  Uiso   1.00
N412   N     0.69240   0.71160   0.61558   0.00000  Uiso   1.00
N413   N     0.45515   0.55244   0.00367   0.00000  Uiso   1.00
N414   N     0.79056   0.45656   0.67370   0.00000  Uiso   1.00
C415   C     0.58176   0.05888   0.11549   0.00000  Uiso   1.00
C416   C     0.61042   0.10054   0.11123   0.00000  Uiso   1.00
C417   C     0.60158   0.12807   0.03149   0.00000  Uiso   1.00
C418   C     0.63187   0.16456   0.04220   0.00000  Uiso   1.00
C419   C     0.67059   0.22795   0.02233   0.00000  Uiso   1.00
C420   C     0.54503   0.05669   0.21820   0.00000  Uiso   1.00
C421   C     0.48121   0.04733   0.22838   0.00000  Uiso   1.00
C422   C     0.45646   0.04689   0.32914   0.00000  Uiso   1.00
C423   C     0.39367   0.04216   0.47534   0.00000  Uiso   1.00
C424   C     0.63747   0.03027   0.12725   0.00000  Uiso   1.00
C425   C     0.65138   0.99869   0.06097   0.00000  Uiso   1.00
C426   C     0.70444   0.97601   0.08517   0.00000  Uiso   1.00
C427   C     0.78519   0.93026   0.09015   0.00000  Uiso   1.00
C428   C     0.65126   0.07473   0.27631   0.00000  Uiso   1.00
C429   C     0.64817   0.10915   0.19859   0.00000  Uiso   1.00
C430   C     0.67848   0.14560   0.20943   0.00000  Uiso   1.00
C431   C     0.66969   0.17318   0.12971   0.00000  Uiso   1.00
C432   C     0.58277   0.06529   0.30555   0.00000  Uiso   1.00
C433   C     0.55811   0.06486   0.40632   0.00000  Uiso   1.00
C434   C     0.49427   0.05551   0.41665   0.00000  Uiso   1.00
C435   C     0.67522   0.03887   0.21460   0.00000  Uiso   1.00
C436   C     0.72827   0.01623   0.23891   0.00000  Uiso   1.00
C437   C     0.74226   0.98463   0.17268   0.00000  Uiso   1.00
H438   H     0.55237   0.05218   0.04748   0.00000  Uiso   1.00
H439   H     0.57236   0.12140   0.96390   0.00000  Uiso   1.00
H440   H     0.45201   0.04067   0.16077   0.00000  Uiso   1.00
H441   H     0.62215   0.99204   0.99338   0.00000  Uiso   1.00
H442   H     0.61115   0.20195   0.90978   0.00000  Uiso   1.00
H443   H     0.35740   0.03171   0.32489   0.00000  Uiso   1.00
H444   H     0.71617   0.92917   0.97192   0.00000  Uiso   1.00
H445   H     0.68065   0.08143   0.34433   0.00000  Uiso   1.00
H446   H     0.70769   0.15226   0.27703   0.00000  Uiso   1.00
H447   H     0.58734   0.07152   0.47390   0.00000  Uiso   1.00
H448   H     0.75747   0.02290   0.30651   0.00000  Uiso   1.00
H449   H     0.72098   0.22699   0.16393   0.00000  Uiso   1.00
H450   H     0.46723   0.05675   0.57904   0.00000  Uiso   1.00
H451   H     0.82600   0.95421   0.22607   0.00000  Uiso   1.00
O452   O     0.68152   0.26054   0.98725   0.00000  Uiso   1.00
O453   O     0.34861   0.03718   0.53185   0.00000  Uiso   1.00
O454   O     0.81930   0.90266   0.06877   0.00000  Uiso   1.00
N455   N     0.63330   0.19812   0.97882   0.00000  Uiso   1.00
N456   N     0.39605   0.03896   0.36692   0.00000  Uiso   1.00
N457   N     0.73146   0.94309   0.03694   0.00000  Uiso   1.00
N458   N     0.69240   0.21160   0.11558   0.00000  Uiso   1.00
N459   N     0.45515   0.05244   0.50367   0.00000  Uiso   1.00
N460   N     0.79056   0.95656   0.17370   0.00000  Uiso   1.00
C461   C     0.08176   0.55888   0.11549   0.00000  Uiso   1.00
C462   C     0.11042   0.60054   0.11123   0.00000  Uiso   1.00
C463   C     0.10158   0.62807   0.03149   0.00000  Uiso   1.00
C464   C     0.13187   0.66456   0.04220   0.00000  Uiso   1.00
C465   C     0.17059   0.72795   0.02233   0.00000  Uiso   1.00
C466   C     0.04503   0.55669   0.21820   0.00000  Uiso   1.00
C467   C     0.98121   0.54733   0.22838   0.00000  Uiso   1.00
C468   C     0.95646   0.54689   0.32914   0.00000  Uiso   1.00
C469   C     0.89367   0.54216   0.47534   0.00000  Uiso   1.00
C470   C     0.13747   0.53027   0.12725   0.00000  Uiso   1.00
C471   C     0.15138   0.49869   0.06097   0.00000  Uiso   1.00
C472   C     0.20444   0.47601   0.08517   0.00000  Uiso   1.00
C473   C     0.28519   0.43026   0.09015   0.00000  Uiso   1.00
C474   C     0.15126   0.57473   0.27631   0.00000  Uiso   1.00
C475   C     0.14817   0.60915   0.19859   0.00000  Uiso   1.00
C476   C     0.17848   0.64560   0.20943   0.00000  Uiso   1.00
C477   C     0.16969   0.67318   0.12971   0.00000  Uiso   1.00
C478   C     0.08277   0.56529   0.30555   0.00000  Uiso   1.00
C479   C     0.05811   0.56486   0.40632   0.00000  Uiso   1.00
C480   C     0.99427   0.55551   0.41665   0.00000  Uiso   1.00
C481   C     0.17522   0.53887   0.21460   0.00000  Uiso   1.00
C482   C     0.22827   0.51623   0.23891   0.00000  Uiso   1.00
C483   C     0.24226   0.48463   0.17268   0.00000  Uiso   1.00
H484   H     0.05237   0.55218   0.04748   0.00000  Uiso   1.00
H485   H     0.07236   0.62140   0.96390   0.00000  Uiso   1.00
H486   H     0.95201   0.54067   0.16077   0.00000  Uiso   1.00
H487   H     0.12215   0.49204   0.99338   0.00000  Uiso   1.00
H488   H     0.11115   0.70195   0.90978   0.00000  Uiso   1.00
H489   H     0.85740   0.53171   0.32489   0.00000  Uiso   1.00
H490   H     0.21617   0.42917   0.97192   0.00000  Uiso   1.00
H491   H     0.18065   0.58143   0.34433   0.00000  Uiso   1.00
H492   H     0.20769   0.65226   0.27703   0.00000  Uiso   1.00
H493   H     0.08734   0.57152   0.47390   0.00000  Uiso   1.00
H494   H     0.25747   0.52290   0.30651   0.00000  Uiso   1.00
H495   H     0.22098   0.72699   0.16393   0.00000  Uiso   1.00
H496   H     0.96723   0.55675   0.57904   0.00000  Uiso   1.00
H497   H     0.32600   0.45421   0.22607   0.00000  Uiso   1.00
O498   O     0.18152   0.76054   0.98725   0.00000  Uiso   1.00
O499   O     0.84861   0.53718   0.53185   0.00000  Uiso   1.00
O500   O     0.31930   0.40266   0.06877   0.00000  Uiso   1.00
N501   N     0.13330   0.69812   0.97882   0.00000  Uiso   1.00
N502   N     0.89605   0.53896   0.36692   0.00000  Uiso   1.00
N503   N     0.23146   0.44309   0.03694   0.00000  Uiso   1.00
N504   N     0.19240   0.71160   0.11558   0.00000  Uiso   1.00
N505   N     0.95515   0.55244   0.50367   0.00000  Uiso   1.00
N506   N     0.29056   0.45656   0.17370   0.00000  Uiso   1.00
C507   C     0.08176   0.05888   0.61549   0.00000  Uiso   1.00
C508   C     0.11042   0.10054   0.61123   0.00000  Uiso   1.00
C509   C     0.10158   0.12807   0.53149   0.00000  Uiso   1.00
C510   C     0.13187   0.16456   0.54220   0.00000  Uiso   1.00
C511   C     0.17059   0.22795   0.52233   0.00000  Uiso   1.00
C512   C     0.04503   0.05669   0.71820   0.00000  Uiso   1.00
C513   C     0.98121   0.04733   0.72838   0.00000  Uiso   1.00
C514   C     0.95646   0.04689   0.82914   0.00000  Uiso   1.00
C515   C     0.89367   0.04216   0.97534   0.00000  Uiso   1.00
C516   C     0.13747   0.03027   0.62725   0.00000  Uiso   1.00
C517   C     0.15138   0.99869   0.56097   0.00000  Uiso   1.00
C518   C     0.20444   0.97601   0.58517   0.00000  Uiso   1.00
C519   C     0.28519   0.93026   0.59015   0.00000  Uiso   1.00
C520   C     0.15126   0.07473   0.77631   0.00000  Uiso   1.00
C521   C     0.14817   0.10915   0.69859   0.00000  Uiso   1.00
C522   C     0.17848   0.14560   0.70943   0.00000  Uiso   1.00
C523   C     0.16969   0.17318   0.62971   0.00000  Uiso   1.00
C524   C     0.08277   0.06529   0.80555   0.00000  Uiso   1.00
C525   C     0.05811   0.06486   0.90632   0.00000  Uiso   1.00
C526   C     0.99427   0.05551   0.91665   0.00000  Uiso   1.00
C527   C     0.17522   0.03887   0.71460   0.00000  Uiso   1.00
C528   C     0.22827   0.01623   0.73891   0.00000  Uiso   1.00
C529   C     0.24226   0.98463   0.67268   0.00000  Uiso   1.00
H530   H     0.05237   0.05218   0.54748   0.00000  Uiso   1.00
H531   H     0.07236   0.12140   0.46390   0.00000  Uiso   1.00
H532   H     0.95201   0.04067   0.66077   0.00000  Uiso   1.00
H533   H     0.12215   0.99204   0.49338   0.00000  Uiso   1.00
H534   H     0.11115   0.20195   0.40978   0.00000  Uiso   1.00
H535   H     0.85740   0.03171   0.82489   0.00000  Uiso   1.00
H536   H     0.21617   0.92917   0.47192   0.00000  Uiso   1.00
H537   H     0.18065   0.08143   0.84433   0.00000  Uiso   1.00
H538   H     0.20769   0.15226   0.77703   0.00000  Uiso   1.00
H539   H     0.08734   0.07152   0.97390   0.00000  Uiso   1.00
H540   H     0.25747   0.02290   0.80651   0.00000  Uiso   1.00
H541   H     0.22098   0.22699   0.66393   0.00000  Uiso   1.00
H542   H     0.96723   0.05675   0.07904   0.00000  Uiso   1.00
H543   H     0.32600   0.95421   0.72607   0.00000  Uiso   1.00
O544   O     0.18152   0.26054   0.48725   0.00000  Uiso   1.00
O545   O     0.84861   0.03718   0.03185   0.00000  Uiso   1.00
O546   O     0.31930   0.90266   0.56877   0.00000  Uiso   1.00
N547   N     0.13330   0.19812   0.47882   0.00000  Uiso   1.00
N548   N     0.89605   0.03896   0.86692   0.00000  Uiso   1.00
N549   N     0.23146   0.94309   0.53694   0.00000  Uiso   1.00
N550   N     0.19240   0.21160   0.61558   0.00000  Uiso   1.00
N551   N     0.95515   0.05244   0.00367   0.00000  Uiso   1.00
N552   N     0.29056   0.95656   0.67370   0.00000  Uiso   1.00
C553   C     0.91824   0.94112   0.61549   0.00000  Uiso   1.00
C554   C     0.88958   0.89946   0.61123   0.00000  Uiso   1.00
C555   C     0.89842   0.87193   0.53149   0.00000  Uiso   1.00
C556   C     0.86813   0.83544   0.54220   0.00000  Uiso   1.00
C557   C     0.82941   0.77205   0.52233   0.00000  Uiso   1.00
C558   C     0.95497   0.94331   0.71820   0.00000  Uiso   1.00
C559   C     0.01879   0.95267   0.72838   0.00000  Uiso   1.00
C560   C     0.04354   0.95311   0.82914   0.00000  Uiso   1.00
C561   C     0.10633   0.95784   0.97534   0.00000  Uiso   1.00
C562   C     0.86253   0.96973   0.62725   0.00000  Uiso   1.00
C563   C     0.84862   0.00131   0.56097   0.00000  Uiso   1.00
C564   C     0.79556   0.02399   0.58517   0.00000  Uiso   1.00
C565   C     0.71481   0.06974   0.59015   0.00000  Uiso   1.00
C566   C     0.84874   0.92527   0.77631   0.00000  Uiso   1.00
C567   C     0.85183   0.89085   0.69859   0.00000  Uiso   1.00
C568   C     0.82152   0.85440   0.70943   0.00000  Uiso   1.00
C569   C     0.83031   0.82682   0.62971   0.00000  Uiso   1.00
C570   C     0.91723   0.93471   0.80555   0.00000  Uiso   1.00
C571   C     0.94189   0.93514   0.90632   0.00000  Uiso   1.00
C572   C     0.00573   0.94449   0.91665   0.00000  Uiso   1.00
C573   C     0.82478   0.96113   0.71460   0.00000  Uiso   1.00
C574   C     0.77173   0.98377   0.73891   0.00000  Uiso   1.00
C575   C     0.75774   0.01537   0.67268   0.00000  Uiso   1.00
H576   H     0.94763   0.94782   0.54748   0.00000  Uiso   1.00
H577   H     0.92764   0.87860   0.46390   0.00000  Uiso   1.00
H578   H     0.04799   0.95933   0.66077   0.00000  Uiso   1.00
H579   H     0.87785   0.00796   0.49338   0.00000  Uiso   1.00
H580   H     0.88885   0.79805   0.40978   0.00000  Uiso   1.00
H581   H     0.14260   0.96829   0.82489   0.00000  Uiso   1.00
H582   H     0.78383   0.07083   0.47192   0.00000  Uiso   1.00
H583   H     0.81935   0.91857   0.84433   0.00000  Uiso   1.00
H584   H     0.79231   0.84774   0.77703   0.00000  Uiso   1.00
H585   H     0.91266   0.92848   0.97390   0.00000  Uiso   1.00
H586   H     0.74253   0.97710   0.80651   0.00000  Uiso   1.00
H587   H     0.77902   0.77301   0.66393   0.00000  Uiso   1.00
H588   H     0.03277   0.94325   0.07904   0.00000  Uiso   1.00
H589   H     0.67400   0.04579   0.72607   0.00000  Uiso   1.00
O590   O     0.81848   0.73946   0.48725   0.00000  Uiso   1.00
O591   O     0.15139   0.96282   0.03185   0.00000  Uiso   1.00
O592   O     0.68070   0.09734   0.56877   0.00000  Uiso   1.00
N593   N     0.86670   0.80188   0.47882   0.00000  Uiso   1.00
N594   N     0.10395   0.96104   0.86692   0.00000  Uiso   1.00
N595   N     0.76854   0.05691   0.53694   0.00000  Uiso   1.00
N596   N     0.80760   0.78840   0.61558   0.00000  Uiso   1.00
N597   N     0.04485   0.94756   0.00367   0.00000  Uiso   1.00
N598   N     0.70944   0.04344   0.67370   0.00000  Uiso   1.00
C599   C     0.91824   0.44112   0.11549   0.00000  Uiso   1.00
C600   C     0.88958   0.39946   0.11123   0.00000  Uiso   1.00
C601   C     0.89842   0.37193   0.03149   0.00000  Uiso   1.00
C602   C     0.86813   0.33544   0.04220   0.00000  Uiso   1.00
C603   C     0.82941   0.27205   0.02233   0.00000  Uiso   1.00
C604   C     0.95497   0.44331   0.21820   0.00000  Uiso   1.00
C605   C     0.01879   0.45267   0.22838   0.00000  Uiso   1.00
C606   C     0.04354   0.45311   0.32914   0.00000  Uiso   1.00
C607   C     0.10633   0.45784   0.47534   0.00000  Uiso   1.00
C608   C     0.86253   0.46973   0.12725   0.00000  Uiso   1.00
C609   C     0.84862   0.50131   0.06097   0.00000  Uiso   1.00
C610   C     0.79556   0.52399   0.08517   0.00000  Uiso   1.00
C611   C     0.71481   0.56974   0.09015   0.00000  Uiso   1.00
C612   C     0.84874   0.42527   0.27631   0.00000  Uiso   1.00
C613   C     0.85183   0.39085   0.19859   0.00000  Uiso   1.00
C614   C     0.82152   0.35440   0.20943   0.00000  Uiso   1.00
C615   C     0.83031   0.32682   0.12971   0.00000  Uiso   1.00
C616   C     0.91723   0.43471   0.30555   0.00000  Uiso   1.00
C617   C     0.94189   0.43514   0.40632   0.00000  Uiso   1.00
C618   C     0.00573   0.44449   0.41665   0.00000  Uiso   1.00
C619   C     0.82478   0.46113   0.21460   0.00000  Uiso   1.00
C620   C     0.77173   0.48377   0.23891   0.00000  Uiso   1.00
C621   C     0.75774   0.51537   0.17268   0.00000  Uiso   1.00
H622   H     0.94763   0.44782   0.04748   0.00000  Uiso   1.00
H623   H     0.92764   0.37860   0.96390   0.00000  Uiso   1.00
H624   H     0.04799   0.45933   0.16077   0.00000  Uiso   1.00
H625   H     0.87785   0.50796   0.99338   0.00000  Uiso   1.00
H626   H     0.88885   0.29805   0.90978   0.00000  Uiso   1.00
H627   H     0.14260   0.46829   0.32489   0.00000  Uiso   1.00
H628   H     0.78383   0.57083   0.97192   0.00000  Uiso   1.00
H629   H     0.81935   0.41857   0.34433   0.00000  Uiso   1.00
H630   H     0.79231   0.34774   0.27703   0.00000  Uiso   1.00
H631   H     0.91266   0.42848   0.47390   0.00000  Uiso   1.00
H632   H     0.74253   0.47710   0.30651   0.00000  Uiso   1.00
H633   H     0.77902   0.27301   0.16393   0.00000  Uiso   1.00
H634   H     0.03277   0.44325   0.57904   0.00000  Uiso   1.00
H635   H     0.67400   0.54579   0.22607   0.00000  Uiso   1.00
O636   O     0.81848   0.23946   0.98725   0.00000  Uiso   1.00
O637   O     0.15139   0.46282   0.53185   0.00000  Uiso   1.00
O638   O     0.68070   0.59734   0.06877   0.00000  Uiso   1.00
N639   N     0.86670   0.30188   0.97882   0.00000  Uiso   1.00
N640   N     0.10395   0.46104   0.36692   0.00000  Uiso   1.00
N641   N     0.76854   0.55691   0.03694   0.00000  Uiso   1.00
N642   N     0.80760   0.28840   0.11558   0.00000  Uiso   1.00
N643   N     0.04485   0.44756   0.50367   0.00000  Uiso   1.00
N644   N     0.70944   0.54344   0.17370   0.00000  Uiso   1.00
C645   C     0.41824   0.94112   0.11549   0.00000  Uiso   1.00
C646   C     0.38958   0.89946   0.11123   0.00000  Uiso   1.00
C647   C     0.39842   0.87193   0.03149   0.00000  Uiso   1.00
C648   C     0.36813   0.83544   0.04220   0.00000  Uiso   1.00
C649   C     0.32941   0.77205   0.02233   0.00000  Uiso   1.00
C650   C     0.45497   0.94331   0.21820   0.00000  Uiso   1.00
C651   C     0.51879   0.95267   0.22838   0.00000  Uiso   1.00
C652   C     0.54354   0.95311   0.32914   0.00000  Uiso   1.00
C653   C     0.60633   0.95784   0.47534   0.00000  Uiso   1.00
C654   C     0.36253   0.96973   0.12725   0.00000  Uiso   1.00
C655   C     0.34862   0.00131   0.06097   0.00000  Uiso   1.00
C656   C     0.29556   0.02399   0.08517   0.00000  Uiso   1.00
C657   C     0.21481   0.06974   0.09015   0.00000  Uiso   1.00
C658   C     0.34874   0.92527   0.27631   0.00000  Uiso   1.00
C659   C     0.35183   0.89085   0.19859   0.00000  Uiso   1.00
C660   C     0.32152   0.85440   0.20943   0.00000  Uiso   1.00
C661   C     0.33031   0.82682   0.12971   0.00000  Uiso   1.00
C662   C     0.41723   0.93471   0.30555   0.00000  Uiso   1.00
C663   C     0.44189   0.93514   0.40632   0.00000  Uiso   1.00
C664   C     0.50573   0.94449   0.41665   0.00000  Uiso   1.00
C665   C     0.32478   0.96113   0.21460   0.00000  Uiso   1.00
C666   C     0.27173   0.98377   0.23891   0.00000  Uiso   1.00
C667   C     0.25774   0.01537   0.17268   0.00000  Uiso   1.00
H668   H     0.44763   0.94782   0.04748   0.00000  Uiso   1.00
H669   H     0.42764   0.87860   0.96390   0.00000  Uiso   1.00
H670   H     0.54799   0.95933   0.16077   0.00000  Uiso   1.00
H671   H     0.37785   0.00796   0.99338   0.00000  Uiso   1.00
H672   H     0.38885   0.79805   0.90978   0.00000  Uiso   1.00
H673   H     0.64260   0.96829   0.32489   0.00000  Uiso   1.00
H674   H     0.28383   0.07083   0.97192   0.00000  Uiso   1.00
H675   H     0.31935   0.91857   0.34433   0.00000  Uiso   1.00
H676   H     0.29231   0.84774   0.27703   0.00000  Uiso   1.00
H677   H     0.41266   0.92848   0.47390   0.00000  Uiso   1.00
H678   H     0.24253   0.97710   0.30651   0.00000  Uiso   1.00
H679   H     0.27902   0.77301   0.16393   0.00000  Uiso   1.00
H680   H     0.53277   0.94325   0.57904   0.00000  Uiso   1.00
H681   H     0.17400   0.04579   0.22607   0.00000  Uiso   1.00
O682   O     0.31848   0.73946   0.98725   0.00000  Uiso   1.00
O683   O     0.65139   0.96282   0.53185   0.00000  Uiso   1.00
O684   O     0.18070   0.09734   0.06877   0.00000  Uiso   1.00
N685   N     0.36670   0.80188   0.97882   0.00000  Uiso   1.00
N686   N     0.60395   0.96104   0.36692   0.00000  Uiso   1.00
N687   N     0.26854   0.05691   0.03694   0.00000  Uiso   1.00
N688   N     0.30760   0.78840   0.11558   0.00000  Uiso   1.00
N689   N     0.54485   0.94756   0.50367   0.00000  Uiso   1.00
N690   N     0.20944   0.04344   0.17370   0.00000  Uiso   1.00
C691   C     0.41824   0.44112   0.61549   0.00000  Uiso   1.00
C692   C     0.38958   0.39946   0.61123   0.00000  Uiso   1.00
C693   C     0.39842   0.37193   0.53149   0.00000  Uiso   1.00
C694   C     0.36813   0.33544   0.54220   0.00000  Uiso   1.00
C695   C     0.32941   0.27205   0.52233   0.00000  Uiso   1.00
C696   C     0.45497   0.44331   0.71820   0.00000  Uiso   1.00
C697   C     0.51879   0.45267   0.72838   0.00000  Uiso   1.00
C698   C     0.54354   0.45311   0.82914   0.00000  Uiso   1.00
C699   C     0.60633   0.45784   0.97534   0.00000  Uiso   1.00
C700   C     0.36253   0.46973   0.62725   0.00000  Uiso   1.00
C701   C     0.34862   0.50131   0.56097   0.00000  Uiso   1.00
C702   C     0.29556   0.52399   0.58517   0.00000  Uiso   1.00
C703   C     0.21481   0.56974   0.59015   0.00000  Uiso   1.00
C704   C     0.34874   0.42527   0.77631   0.00000  Uiso   1.00
C705   C     0.35183   0.39085   0.69859   0.00000  Uiso   1.00
C706   C     0.32152   0.35440   0.70943   0.00000  Uiso   1.00
C707   C     0.33031   0.32682   0.62971   0.00000  Uiso   1.00
C708   C     0.41723   0.43471   0.80555   0.00000  Uiso   1.00
C709   C     0.44189   0.43514   0.90632   0.00000  Uiso   1.00
C710   C     0.50573   0.44449   0.91665   0.00000  Uiso   1.00
C711   C     0.32478   0.46113   0.71460   0.00000  Uiso   1.00
C712   C     0.27173   0.48377   0.73891   0.00000  Uiso   1.00
C713   C     0.25774   0.51537   0.67268   0.00000  Uiso   1.00
H714   H     0.44763   0.44782   0.54748   0.00000  Uiso   1.00
H715   H     0.42764   0.37860   0.46390   0.00000  Uiso   1.00
H716   H     0.54799   0.45933   0.66077   0.00000  Uiso   1.00
H717   H     0.37785   0.50796   0.49338   0.00000  Uiso   1.00
H718   H     0.38885   0.29805   0.40978   0.00000  Uiso   1.00
H719   H     0.64260   0.46829   0.82489   0.00000  Uiso   1.00
H720   H     0.28383   0.57083   0.47192   0.00000  Uiso   1.00
H721   H     0.31935   0.41857   0.84433   0.00000  Uiso   1.00
H722   H     0.29231   0.34774   0.77703   0.00000  Uiso   1.00
H723   H     0.41266   0.42848   0.97390   0.00000  Uiso   1.00
H724   H     0.24253   0.47710   0.80651   0.00000  Uiso   1.00
H725   H     0.27902   0.27301   0.66393   0.00000  Uiso   1.00
H726   H     0.53277   0.44325   0.07904   0.00000  Uiso   1.00
H727   H     0.17400   0.54579   0.72607   0.00000  Uiso   1.00
O728   O     0.31848   0.23946   0.48725   0.00000  Uiso   1.00
O729   O     0.65139   0.46282   0.03185   0.00000  Uiso   1.00
O730   O     0.18070   0.59734   0.56877   0.00000  Uiso   1.00
N731   N     0.36670   0.30188   0.47882   0.00000  Uiso   1.00
N732   N     0.60395   0.46104   0.86692   0.00000  Uiso   1.00
N733   N     0.26854   0.55691   0.53694   0.00000  Uiso   1.00
N734   N     0.30760   0.28840   0.61558   0.00000  Uiso   1.00
N735   N     0.54485   0.44756   0.00367   0.00000  Uiso   1.00
N736   N     0.20944   0.54344   0.67370   0.00000  Uiso   1.00
