data_job_04744
_audit_creation_date              2018-12-19
_audit_creation_method            'Materials Studio'
_symmetry_space_group_name_H-M    'P1'
_symmetry_Int_Tables_number       1
_symmetry_cell_setting            triclinic
loop_
_symmetry_equiv_pos_as_xyz
  x,y,z
_cell_length_a                    13.6660
_cell_length_b                    13.6650
_cell_length_c                    62.6674
_cell_angle_alpha                 89.9935
_cell_angle_beta                  90.0119
_cell_angle_gamma                 90.0000
loop_
_atom_site_label
_atom_site_type_symbol
_atom_site_fract_x
_atom_site_fract_y
_atom_site_fract_z
_atom_site_U_iso_or_equiv
_atom_site_adp_type
_atom_site_occupancy
C1     C     0.21477   0.51792   0.03265   0.00000  Uiso   1.00
C2     C     0.19013   0.45087   0.05135   0.00000  Uiso   1.00
C3     C     0.21309   0.35217   0.05279   0.00000  Uiso   1.00
C4     C     0.18414   0.30365   0.07121   0.00000  Uiso   1.00
C5     C     0.15345   0.19214   0.09774   0.00000  Uiso   1.00
C6     C     0.11779   0.56140   0.02523   0.00000  Uiso   1.00
C7     C     0.07993   0.55563   0.00472   0.00000  Uiso   1.00
C8     C     0.99009   0.60017   0.00115   0.00000  Uiso   1.00
C9     C     0.84713   0.66032   0.98714   0.00000  Uiso   1.00
C10    C     0.27318   0.60273   0.04203   0.00000  Uiso   1.00
C11    C     0.36597   0.63174   0.03563   0.00000  Uiso   1.00
C12    C     0.40694   0.71110   0.04619   0.00000  Uiso   1.00
C13    C     0.50525   0.83542   0.05825   0.00000  Uiso   1.00
C14    C     0.12253   0.60729   0.06279   0.00000  Uiso   1.00
C15    C     0.14003   0.49941   0.06772   0.00000  Uiso   1.00
C16    C     0.11104   0.45103   0.08613   0.00000  Uiso   1.00
C17    C     0.13395   0.35227   0.08760   0.00000  Uiso   1.00
C18    C     0.06769   0.60994   0.04160   0.00000  Uiso   1.00
C19    C     0.97789   0.65450   0.03806   0.00000  Uiso   1.00
C20    C     0.93990   0.64880   0.01755   0.00000  Uiso   1.00
C21    C     0.22308   0.65127   0.05839   0.00000  Uiso   1.00
C22    C     0.26392   0.73060   0.06897   0.00000  Uiso   1.00
C23    C     0.35675   0.75972   0.06259   0.00000  Uiso   1.00
H24    H     0.25377   0.48014   0.01991   0.00000  Uiso   1.00
H25    H     0.25185   0.31463   0.04012   0.00000  Uiso   1.00
H26    H     0.11872   0.51807   0.99206   0.00000  Uiso   1.00
H27    H     0.40471   0.59416   0.02296   0.00000  Uiso   1.00
H28    H     0.22760   0.15253   0.06974   0.00000  Uiso   1.00
H29    H     0.94691   0.58153   0.96840   0.00000  Uiso   1.00
H30    H     0.54997   0.74199   0.03356   0.00000  Uiso   1.00
H31    H     0.08353   0.64508   0.07553   0.00000  Uiso   1.00
H32    H     0.07227   0.48862   0.09880   0.00000  Uiso   1.00
H33    H     0.93914   0.69206   0.05073   0.00000  Uiso   1.00
H34    H     0.22513   0.76815   0.08163   0.00000  Uiso   1.00
H35    H     0.08184   0.29374   0.11737   0.00000  Uiso   1.00
H36    H     0.80115   0.72275   0.01602   0.00000  Uiso   1.00
H37    H     0.40421   0.88320   0.08119   0.00000  Uiso   1.00
O38    O     0.15035   0.11723   0.10785   0.00000  Uiso   1.00
O39    O     0.78211   0.68008   0.97489   0.00000  Uiso   1.00
O40    O     0.57331   0.89058   0.06039   0.00000  Uiso   1.00
N41    N     0.19485   0.20724   0.07776   0.00000  Uiso   1.00
N42    N     0.93242   0.60832   0.98301   0.00000  Uiso   1.00
N43    N     0.49622   0.75835   0.04393   0.00000  Uiso   1.00
N44    N     0.11642   0.28323   0.10339   0.00000  Uiso   1.00
N45    N     0.85399   0.68430   0.00863   0.00000  Uiso   1.00
N46    N     0.41779   0.83433   0.06955   0.00000  Uiso   1.00
C47    C     0.52241   0.71668   0.28206   0.00000  Uiso   1.00
C48    C     0.59265   0.69221   0.30020   0.00000  Uiso   1.00
C49    C     0.69138   0.71576   0.30089   0.00000  Uiso   1.00
C50    C     0.74309   0.68687   0.31889   0.00000  Uiso   1.00
C51    C     0.85908   0.65653   0.34451   0.00000  Uiso   1.00
C52    C     0.47833   0.61952   0.27493   0.00000  Uiso   1.00
C53    C     0.48093   0.58197   0.25436   0.00000  Uiso   1.00
C54    C     0.43638   0.49189   0.25109   0.00000  Uiso   1.00
C55    C     0.37483   0.34873   0.23747   0.00000  Uiso   1.00
C56    C     0.43886   0.77445   0.29213   0.00000  Uiso   1.00
C57    C     0.40825   0.86714   0.28602   0.00000  Uiso   1.00
C58    C     0.33045   0.90750   0.29722   0.00000  Uiso   1.00
C59    C     0.20761   0.00488   0.31031   0.00000  Uiso   1.00
C60    C     0.43866   0.62350   0.31282   0.00000  Uiso   1.00
C61    C     0.54716   0.64160   0.31691   0.00000  Uiso   1.00
C62    C     0.59872   0.61267   0.33492   0.00000  Uiso   1.00
C63    C     0.69752   0.63617   0.33563   0.00000  Uiso   1.00
C64    C     0.43284   0.56891   0.29164   0.00000  Uiso   1.00
C65    C     0.38827   0.47887   0.28839   0.00000  Uiso   1.00
C66    C     0.39081   0.44118   0.26783   0.00000  Uiso   1.00
C67    C     0.39337   0.72384   0.30884   0.00000  Uiso   1.00
C68    C     0.31560   0.76405   0.32005   0.00000  Uiso   1.00
C69    C     0.28488   0.85679   0.31396   0.00000  Uiso   1.00
H70    H     0.55782   0.75608   0.26905   0.00000  Uiso   1.00
H71    H     0.72656   0.75492   0.28795   0.00000  Uiso   1.00
H72    H     0.51613   0.62116   0.24144   0.00000  Uiso   1.00
H73    H     0.44347   0.90629   0.27309   0.00000  Uiso   1.00
H74    H     0.89359   0.73129   0.31627   0.00000  Uiso   1.00
H75    H     0.44985   0.44924   0.21819   0.00000  Uiso   1.00
H76    H     0.29662   0.05050   0.28493   0.00000  Uiso   1.00
H77    H     0.40324   0.58409   0.32583   0.00000  Uiso   1.00
H78    H     0.56350   0.57350   0.34785   0.00000  Uiso   1.00
H79    H     0.35307   0.43973   0.30133   0.00000  Uiso   1.00
H80    H     0.28041   0.72486   0.33298   0.00000  Uiso   1.00
H81    H     0.76125   0.58403   0.36488   0.00000  Uiso   1.00
H82    H     0.31750   0.30199   0.26680   0.00000  Uiso   1.00
H83    H     0.16428   0.90325   0.33354   0.00000  Uiso   1.00
O84    O     0.93564   0.65377   0.35403   0.00000  Uiso   1.00
O85    O     0.35346   0.28375   0.22535   0.00000  Uiso   1.00
O86    O     0.15243   0.07258   0.31291   0.00000  Uiso   1.00
N87    N     0.84044   0.69810   0.32469   0.00000  Uiso   1.00
N88    N     0.42559   0.43440   0.23299   0.00000  Uiso   1.00
N89    N     0.28232   0.99652   0.29538   0.00000  Uiso   1.00
N90    N     0.76923   0.61887   0.35085   0.00000  Uiso   1.00
N91    N     0.35438   0.35516   0.25915   0.00000  Uiso   1.00
N92    N     0.21111   0.91728   0.32154   0.00000  Uiso   1.00
C93    C     0.71618   0.41269   0.03175   0.00000  Uiso   1.00
C94    C     0.74098   0.48369   0.04973   0.00000  Uiso   1.00
C95    C     0.71757   0.58248   0.05022   0.00000  Uiso   1.00
C96    C     0.74676   0.63493   0.06809   0.00000  Uiso   1.00
C97    C     0.77758   0.75200   0.09345   0.00000  Uiso   1.00
C98    C     0.81319   0.36816   0.02466   0.00000  Uiso   1.00
C99    C     0.85048   0.36981   0.00407   0.00000  Uiso   1.00
C100   C     0.94045   0.32500   0.00084   0.00000  Uiso   1.00
C101   C     0.08334   0.26265   0.98727   0.00000  Uiso   1.00
C102   C     0.65844   0.32965   0.04203   0.00000  Uiso   1.00
C103   C     0.56563   0.29890   0.03604   0.00000  Uiso   1.00
C104   C     0.52532   0.22165   0.04743   0.00000  Uiso   1.00
C105   C     0.42794   0.09951   0.06084   0.00000  Uiso   1.00
C106   C     0.80963   0.33014   0.06264   0.00000  Uiso   1.00
C107   C     0.79174   0.43885   0.06651   0.00000  Uiso   1.00
C108   C     0.82096   0.49116   0.08439   0.00000  Uiso   1.00
C109   C     0.79760   0.59001   0.08490   0.00000  Uiso   1.00
C110   C     0.86395   0.32333   0.04144   0.00000  Uiso   1.00
C111   C     0.95387   0.27849   0.03824   0.00000  Uiso   1.00
C112   C     0.99130   0.28008   0.01765   0.00000  Uiso   1.00
C113   C     0.70919   0.28481   0.05881   0.00000  Uiso   1.00
C114   C     0.66902   0.20758   0.07021   0.00000  Uiso   1.00
C115   C     0.57617   0.17673   0.06424   0.00000  Uiso   1.00
H116   H     0.67667   0.44759   0.01869   0.00000  Uiso   1.00
H117   H     0.67830   0.61715   0.03723   0.00000  Uiso   1.00
H118   H     0.81118   0.40451   0.99109   0.00000  Uiso   1.00
H119   H     0.52637   0.33362   0.02306   0.00000  Uiso   1.00
H120   H     0.70252   0.78538   0.06518   0.00000  Uiso   1.00
H121   H     0.98269   0.33698   0.96788   0.00000  Uiso   1.00
H122   H     0.38212   0.18749   0.03530   0.00000  Uiso   1.00
H123   H     0.84915   0.29523   0.07570   0.00000  Uiso   1.00
H124   H     0.86024   0.45644   0.09737   0.00000  Uiso   1.00
H125   H     0.99313   0.24380   0.05122   0.00000  Uiso   1.00
H126   H     0.70832   0.17290   0.08319   0.00000  Uiso   1.00
H127   H     0.85019   0.65494   0.11399   0.00000  Uiso   1.00
H128   H     0.13037   0.20654   0.01669   0.00000  Uiso   1.00
H129   H     0.52980   0.05705   0.08410   0.00000  Uiso   1.00
O130   O     0.78057   0.82896   0.10280   0.00000  Uiso   1.00
O131   O     0.14814   0.24066   0.97516   0.00000  Uiso   1.00
O132   O     0.36020   0.04454   0.06360   0.00000  Uiso   1.00
N133   N     0.73573   0.73255   0.07369   0.00000  Uiso   1.00
N134   N     0.99769   0.31334   0.98273   0.00000  Uiso   1.00
N135   N     0.43621   0.17356   0.04575   0.00000  Uiso   1.00
N136   N     0.81520   0.66237   0.09996   0.00000  Uiso   1.00
N137   N     0.07715   0.24315   0.00899   0.00000  Uiso   1.00
N138   N     0.51568   0.10337   0.07201   0.00000  Uiso   1.00
C139   C     0.62785   0.21843   0.28207   0.00000  Uiso   1.00
C140   C     0.56020   0.24333   0.30064   0.00000  Uiso   1.00
C141   C     0.46144   0.22045   0.30193   0.00000  Uiso   1.00
C142   C     0.41233   0.24965   0.32025   0.00000  Uiso   1.00
C143   C     0.29996   0.28071   0.34658   0.00000  Uiso   1.00
C144   C     0.67163   0.31530   0.27467   0.00000  Uiso   1.00
C145   C     0.66658   0.35292   0.25413   0.00000  Uiso   1.00
C146   C     0.71129   0.44270   0.25059   0.00000  Uiso   1.00
C147   C     0.77199   0.58547   0.23660   0.00000  Uiso   1.00
C148   C     0.71230   0.16007   0.29162   0.00000  Uiso   1.00
C149   C     0.74146   0.06718   0.28532   0.00000  Uiso   1.00
C150   C     0.82043   0.02628   0.29604   0.00000  Uiso   1.00
C151   C     0.94428   0.92803   0.30835   0.00000  Uiso   1.00
C152   C     0.71625   0.31097   0.31230   0.00000  Uiso   1.00
C153   C     0.60822   0.29360   0.31706   0.00000  Uiso   1.00
C154   C     0.55924   0.32283   0.33538   0.00000  Uiso   1.00
C155   C     0.46043   0.30000   0.33670   0.00000  Uiso   1.00
C156   C     0.71965   0.36557   0.29109   0.00000  Uiso   1.00
C157   C     0.76438   0.45531   0.28758   0.00000  Uiso   1.00
C158   C     0.75939   0.49306   0.26704   0.00000  Uiso   1.00
C159   C     0.76032   0.21034   0.30804   0.00000  Uiso   1.00
C160   C     0.83926   0.16957   0.31877   0.00000  Uiso   1.00
C161   C     0.86853   0.07664   0.31249   0.00000  Uiso   1.00
H162   H     0.59047   0.17930   0.26929   0.00000  Uiso   1.00
H163   H     0.42430   0.18156   0.28922   0.00000  Uiso   1.00
H164   H     0.62942   0.31400   0.24143   0.00000  Uiso   1.00
H165   H     0.70429   0.02831   0.27261   0.00000  Uiso   1.00
H166   H     0.26124   0.20626   0.31856   0.00000  Uiso   1.00
H167   H     0.69378   0.48551   0.21778   0.00000  Uiso   1.00
H168   H     0.85165   0.88307   0.28353   0.00000  Uiso   1.00
H169   H     0.75364   0.35010   0.32509   0.00000  Uiso   1.00
H170   H     0.59642   0.36173   0.34809   0.00000  Uiso   1.00
H171   H     0.80154   0.49418   0.30029   0.00000  Uiso   1.00
H172   H     0.87640   0.20849   0.33147   0.00000  Uiso   1.00
H173   H     0.40094   0.35250   0.36634   0.00000  Uiso   1.00
H174   H     0.83347   0.63176   0.26556   0.00000  Uiso   1.00
H175   H     0.99134   0.02932   0.33131   0.00000  Uiso   1.00
O176   O     0.22472   0.28398   0.35657   0.00000  Uiso   1.00
O177   O     0.79220   0.65034   0.22435   0.00000  Uiso   1.00
O178   O     0.99932   0.85995   0.31062   0.00000  Uiso   1.00
N179   N     0.31570   0.23906   0.32665   0.00000  Uiso   1.00
N180   N     0.72008   0.50016   0.23243   0.00000  Uiso   1.00
N181   N     0.86769   0.93694   0.29390   0.00000  Uiso   1.00
N182   N     0.39087   0.31775   0.35236   0.00000  Uiso   1.00
N183   N     0.79525   0.57885   0.25814   0.00000  Uiso   1.00
N184   N     0.94286   0.01563   0.31961   0.00000  Uiso   1.00
C185   C     0.51997   0.21664   0.96553   0.00000  Uiso   1.00
C186   C     0.44979   0.19218   0.94737   0.00000  Uiso   1.00
C187   C     0.35106   0.21573   0.94667   0.00000  Uiso   1.00
C188   C     0.29942   0.18686   0.92866   0.00000  Uiso   1.00
C189   C     0.18350   0.15654   0.90302   0.00000  Uiso   1.00
C190   C     0.56403   0.11947   0.97266   0.00000  Uiso   1.00
C191   C     0.56136   0.08189   0.99323   0.00000  Uiso   1.00
C192   C     0.60590   0.99182   0.99651   0.00000  Uiso   1.00
C193   C     0.66741   0.84865   0.01014   0.00000  Uiso   1.00
C194   C     0.60355   0.27441   0.95547   0.00000  Uiso   1.00
C195   C     0.63414   0.36711   0.96159   0.00000  Uiso   1.00
C196   C     0.71197   0.40747   0.95040   0.00000  Uiso   1.00
C197   C     0.83485   0.50487   0.93733   0.00000  Uiso   1.00
C198   C     0.60382   0.12349   0.93478   0.00000  Uiso   1.00
C199   C     0.49534   0.14158   0.93067   0.00000  Uiso   1.00
C200   C     0.44383   0.11267   0.91266   0.00000  Uiso   1.00
C201   C     0.34504   0.13618   0.91193   0.00000  Uiso   1.00
C202   C     0.60957   0.06887   0.95596   0.00000  Uiso   1.00
C203   C     0.65414   0.97883   0.95921   0.00000  Uiso   1.00
C204   C     0.65153   0.94113   0.97978   0.00000  Uiso   1.00
C205   C     0.64910   0.22382   0.93877   0.00000  Uiso   1.00
C206   C     0.72691   0.26404   0.92757   0.00000  Uiso   1.00
C207   C     0.75760   0.35678   0.93367   0.00000  Uiso   1.00
H208   H     0.48451   0.25602   0.97853   0.00000  Uiso   1.00
H209   H     0.31584   0.25488   0.95960   0.00000  Uiso   1.00
H210   H     0.52612   0.12107   0.00615   0.00000  Uiso   1.00
H211   H     0.59888   0.40624   0.97451   0.00000  Uiso   1.00
H212   H     0.14890   0.23127   0.93126   0.00000  Uiso   1.00
H213   H     0.59233   0.94914   0.02941   0.00000  Uiso   1.00
H214   H     0.74576   0.55047   0.96269   0.00000  Uiso   1.00
H215   H     0.63928   0.08409   0.92178   0.00000  Uiso   1.00
H216   H     0.47910   0.07352   0.89974   0.00000  Uiso   1.00
H217   H     0.68938   0.93970   0.94629   0.00000  Uiso   1.00
H218   H     0.76214   0.22487   0.91465   0.00000  Uiso   1.00
H219   H     0.28141   0.08406   0.88267   0.00000  Uiso   1.00
H220   H     0.72484   0.80193   0.98082   0.00000  Uiso   1.00
H221   H     0.87826   0.40326   0.91410   0.00000  Uiso   1.00
O222   O     0.10698   0.15378   0.89349   0.00000  Uiso   1.00
O223   O     0.68875   0.78365   0.02227   0.00000  Uiso   1.00
O224   O     0.89004   0.57258   0.93473   0.00000  Uiso   1.00
N225   N     0.20208   0.19809   0.92285   0.00000  Uiso   1.00
N226   N     0.61664   0.93431   0.01461   0.00000  Uiso   1.00
N227   N     0.76010   0.49649   0.95224   0.00000  Uiso   1.00
N228   N     0.27338   0.11888   0.89670   0.00000  Uiso   1.00
N229   N     0.68794   0.85510   0.98847   0.00000  Uiso   1.00
N230   N     0.83140   0.41728   0.92610   0.00000  Uiso   1.00
C231   C     0.32622   0.91270   0.21581   0.00000  Uiso   1.00
C232   C     0.30140   0.98368   0.19783   0.00000  Uiso   1.00
C233   C     0.32479   0.08248   0.19733   0.00000  Uiso   1.00
C234   C     0.29559   0.13490   0.17945   0.00000  Uiso   1.00
C235   C     0.26473   0.25194   0.15408   0.00000  Uiso   1.00
C236   C     0.22923   0.86816   0.22291   0.00000  Uiso   1.00
C237   C     0.19194   0.86983   0.24350   0.00000  Uiso   1.00
C238   C     0.10198   0.82500   0.24674   0.00000  Uiso   1.00
C239   C     0.95911   0.76265   0.26031   0.00000  Uiso   1.00
C240   C     0.38398   0.82967   0.20554   0.00000  Uiso   1.00
C241   C     0.47679   0.79894   0.21153   0.00000  Uiso   1.00
C242   C     0.51712   0.72168   0.20015   0.00000  Uiso   1.00
C243   C     0.61452   0.59955   0.18676   0.00000  Uiso   1.00
C244   C     0.23277   0.83010   0.18494   0.00000  Uiso   1.00
C245   C     0.25064   0.93881   0.18106   0.00000  Uiso   1.00
C246   C     0.22140   0.99109   0.16317   0.00000  Uiso   1.00
C247   C     0.24474   0.08995   0.16265   0.00000  Uiso   1.00
C248   C     0.17847   0.82330   0.20614   0.00000  Uiso   1.00
C249   C     0.08855   0.77845   0.20935   0.00000  Uiso   1.00
C250   C     0.05113   0.78006   0.22994   0.00000  Uiso   1.00
C251   C     0.33322   0.78480   0.18877   0.00000  Uiso   1.00
C252   C     0.37341   0.70757   0.17737   0.00000  Uiso   1.00
C253   C     0.46627   0.67674   0.18335   0.00000  Uiso   1.00
H254   H     0.36573   0.94763   0.22887   0.00000  Uiso   1.00
H255   H     0.36406   0.11717   0.21031   0.00000  Uiso   1.00
H256   H     0.23124   0.90455   0.25648   0.00000  Uiso   1.00
H257   H     0.51605   0.83368   0.22451   0.00000  Uiso   1.00
H258   H     0.33980   0.28536   0.18235   0.00000  Uiso   1.00
H259   H     0.05974   0.83701   0.27969   0.00000  Uiso   1.00
H260   H     0.66033   0.68756   0.21229   0.00000  Uiso   1.00
H261   H     0.19325   0.79517   0.17188   0.00000  Uiso   1.00
H262   H     0.18213   0.95635   0.15020   0.00000  Uiso   1.00
H263   H     0.04930   0.74374   0.19636   0.00000  Uiso   1.00
H264   H     0.33411   0.67286   0.16440   0.00000  Uiso   1.00
H265   H     0.19213   0.15484   0.13356   0.00000  Uiso   1.00
H266   H     0.91208   0.70649   0.23090   0.00000  Uiso   1.00
H267   H     0.51266   0.55704   0.16350   0.00000  Uiso   1.00
O268   O     0.26173   0.32889   0.14472   0.00000  Uiso   1.00
O269   O     0.89432   0.74066   0.27243   0.00000  Uiso   1.00
O270   O     0.68227   0.54459   0.18400   0.00000  Uiso   1.00
N271   N     0.30659   0.23252   0.17384   0.00000  Uiso   1.00
N272   N     0.04475   0.81335   0.26485   0.00000  Uiso   1.00
N273   N     0.60623   0.67361   0.20184   0.00000  Uiso   1.00
N274   N     0.22713   0.16229   0.14759   0.00000  Uiso   1.00
N275   N     0.96529   0.74312   0.23860   0.00000  Uiso   1.00
N276   N     0.52677   0.60338   0.17558   0.00000  Uiso   1.00
C277   C     0.41457   0.71840   0.96550   0.00000  Uiso   1.00
C278   C     0.48218   0.74333   0.94693   0.00000  Uiso   1.00
C279   C     0.58094   0.72047   0.94562   0.00000  Uiso   1.00
C280   C     0.63001   0.74970   0.92730   0.00000  Uiso   1.00
C281   C     0.74231   0.78081   0.90096   0.00000  Uiso   1.00
C282   C     0.37079   0.81526   0.97290   0.00000  Uiso   1.00
C283   C     0.37587   0.85287   0.99344   0.00000  Uiso   1.00
C284   C     0.33115   0.94263   0.99699   0.00000  Uiso   1.00
C285   C     0.27045   0.08538   0.01098   0.00000  Uiso   1.00
C286   C     0.33012   0.66004   0.95597   0.00000  Uiso   1.00
C287   C     0.30099   0.56714   0.96227   0.00000  Uiso   1.00
C288   C     0.22201   0.52622   0.95156   0.00000  Uiso   1.00
C289   C     0.09816   0.42796   0.93925   0.00000  Uiso   1.00
C290   C     0.32609   0.81094   0.93528   0.00000  Uiso   1.00
C291   C     0.43412   0.79360   0.93051   0.00000  Uiso   1.00
C292   C     0.48305   0.82286   0.91218   0.00000  Uiso   1.00
C293   C     0.58186   0.80005   0.91086   0.00000  Uiso   1.00
C294   C     0.32273   0.86553   0.95649   0.00000  Uiso   1.00
C295   C     0.27798   0.95526   0.96000   0.00000  Uiso   1.00
C296   C     0.28301   0.99299   0.98055   0.00000  Uiso   1.00
C297   C     0.28205   0.71030   0.93955   0.00000  Uiso   1.00
C298   C     0.20310   0.66953   0.92883   0.00000  Uiso   1.00
C299   C     0.17386   0.57658   0.93511   0.00000  Uiso   1.00
H300   H     0.45199   0.67927   0.97828   0.00000  Uiso   1.00
H301   H     0.61811   0.68158   0.95833   0.00000  Uiso   1.00
H302   H     0.41306   0.81395   0.00615   0.00000  Uiso   1.00
H303   H     0.33820   0.52826   0.97497   0.00000  Uiso   1.00
H304   H     0.78111   0.70634   0.92898   0.00000  Uiso   1.00
H305   H     0.34872   0.98543   0.02980   0.00000  Uiso   1.00
H306   H     0.19084   0.38300   0.96407   0.00000  Uiso   1.00
H307   H     0.28867   0.85008   0.92250   0.00000  Uiso   1.00
H308   H     0.44584   0.86176   0.89948   0.00000  Uiso   1.00
H309   H     0.24079   0.99413   0.94730   0.00000  Uiso   1.00
H310   H     0.16592   0.70845   0.91612   0.00000  Uiso   1.00
H311   H     0.64128   0.85259   0.88121   0.00000  Uiso   1.00
H312   H     0.20890   0.13167   0.98203   0.00000  Uiso   1.00
H313   H     0.05102   0.52925   0.91630   0.00000  Uiso   1.00
O314   O     0.81754   0.78409   0.89097   0.00000  Uiso   1.00
O315   O     0.25025   0.15023   0.02324   0.00000  Uiso   1.00
O316   O     0.04313   0.35987   0.93700   0.00000  Uiso   1.00
N317   N     0.72663   0.73914   0.92089   0.00000  Uiso   1.00
N318   N     0.32239   0.00007   0.01515   0.00000  Uiso   1.00
N319   N     0.17477   0.43687   0.95370   0.00000  Uiso   1.00
N320   N     0.65139   0.81783   0.89519   0.00000  Uiso   1.00
N321   N     0.24715   0.07877   0.98945   0.00000  Uiso   1.00
N322   N     0.09953   0.51556   0.92800   0.00000  Uiso   1.00
C323   C     0.82767   0.01788   0.21493   0.00000  Uiso   1.00
C324   C     0.85232   0.95086   0.19623   0.00000  Uiso   1.00
C325   C     0.82937   0.85216   0.19478   0.00000  Uiso   1.00
C326   C     0.85833   0.80367   0.17637   0.00000  Uiso   1.00
C327   C     0.88904   0.69221   0.14983   0.00000  Uiso   1.00
C328   C     0.92464   0.06135   0.22235   0.00000  Uiso   1.00
C329   C     0.96248   0.05555   0.24287   0.00000  Uiso   1.00
C330   C     0.05232   0.10008   0.24644   0.00000  Uiso   1.00
C331   C     0.19527   0.16020   0.26046   0.00000  Uiso   1.00
C332   C     0.76927   0.10271   0.20556   0.00000  Uiso   1.00
C333   C     0.67648   0.13171   0.21195   0.00000  Uiso   1.00
C334   C     0.63551   0.21108   0.20139   0.00000  Uiso   1.00
C335   C     0.53722   0.33543   0.18933   0.00000  Uiso   1.00
C336   C     0.91993   0.10729   0.18480   0.00000  Uiso   1.00
C337   C     0.90244   0.99943   0.17987   0.00000  Uiso   1.00
C338   C     0.93144   0.95108   0.16145   0.00000  Uiso   1.00
C339   C     0.90853   0.85232   0.15998   0.00000  Uiso   1.00
C340   C     0.97476   0.10991   0.20599   0.00000  Uiso   1.00
C341   C     0.06456   0.15447   0.20953   0.00000  Uiso   1.00
C342   C     0.10253   0.14873   0.23005   0.00000  Uiso   1.00
C343   C     0.81938   0.15127   0.18919   0.00000  Uiso   1.00
C344   C     0.77855   0.23062   0.17862   0.00000  Uiso   1.00
C345   C     0.68571   0.25974   0.18499   0.00000  Uiso   1.00
H346   H     0.78866   0.98008   0.22767   0.00000  Uiso   1.00
H347   H     0.79059   0.81460   0.20745   0.00000  Uiso   1.00
H348   H     0.92368   0.01797   0.25553   0.00000  Uiso   1.00
H349   H     0.63772   0.09411   0.22461   0.00000  Uiso   1.00
H350   H     0.81487   0.65255   0.17783   0.00000  Uiso   1.00
H351   H     0.09548   0.08138   0.27920   0.00000  Uiso   1.00
H352   H     0.49247   0.24195   0.21401   0.00000  Uiso   1.00
H353   H     0.95895   0.14511   0.17206   0.00000  Uiso   1.00
H354   H     0.97022   0.98868   0.14879   0.00000  Uiso   1.00
H355   H     0.10332   0.19204   0.19687   0.00000  Uiso   1.00
H356   H     0.81735   0.26819   0.16595   0.00000  Uiso   1.00
H357   H     0.96067   0.79384   0.13021   0.00000  Uiso   1.00
H358   H     0.24128   0.22267   0.23159   0.00000  Uiso   1.00
H359   H     0.63827   0.38324   0.16640   0.00000  Uiso   1.00
O360   O     0.89214   0.61731   0.13972   0.00000  Uiso   1.00
O361   O     0.26028   0.17993   0.27271   0.00000  Uiso   1.00
O362   O     0.46915   0.39059   0.18719   0.00000  Uiso   1.00
N363   N     0.84761   0.70727   0.16981   0.00000  Uiso   1.00
N364   N     0.10998   0.10819   0.26459   0.00000  Uiso   1.00
N365   N     0.54623   0.25833   0.20365   0.00000  Uiso   1.00
N366   N     0.92607   0.78330   0.14419   0.00000  Uiso   1.00
N367   N     0.18843   0.18422   0.23897   0.00000  Uiso   1.00
N368   N     0.62468   0.33436   0.17803   0.00000  Uiso   1.00
C369   C     0.82621   0.13182   0.53170   0.00000  Uiso   1.00
C370   C     0.80144   0.06075   0.54967   0.00000  Uiso   1.00
C371   C     0.82487   0.96195   0.55015   0.00000  Uiso   1.00
C372   C     0.79571   0.90944   0.56801   0.00000  Uiso   1.00
C373   C     0.76493   0.79227   0.59336   0.00000  Uiso   1.00
C374   C     0.72919   0.17635   0.52461   0.00000  Uiso   1.00
C375   C     0.69188   0.17476   0.50402   0.00000  Uiso   1.00
C376   C     0.60190   0.21957   0.50079   0.00000  Uiso   1.00
C377   C     0.45899   0.28193   0.48722   0.00000  Uiso   1.00
C378   C     0.88394   0.21483   0.54200   0.00000  Uiso   1.00
C379   C     0.97674   0.24562   0.53601   0.00000  Uiso   1.00
C380   C     0.01705   0.32284   0.54742   0.00000  Uiso   1.00
C381   C     0.11441   0.44495   0.56084   0.00000  Uiso   1.00
C382   C     0.73276   0.21423   0.56259   0.00000  Uiso   1.00
C383   C     0.75069   0.10551   0.56645   0.00000  Uiso   1.00
C384   C     0.72149   0.05313   0.58432   0.00000  Uiso   1.00
C385   C     0.74487   0.95428   0.58482   0.00000  Uiso   1.00
C386   C     0.67844   0.22111   0.54139   0.00000  Uiso   1.00
C387   C     0.58850   0.26594   0.53819   0.00000  Uiso   1.00
C388   C     0.55105   0.26442   0.51760   0.00000  Uiso   1.00
C389   C     0.83319   0.25959   0.55877   0.00000  Uiso   1.00
C390   C     0.87336   0.33679   0.57019   0.00000  Uiso   1.00
C391   C     0.96620   0.36769   0.56422   0.00000  Uiso   1.00
H392   H     0.86572   0.09697   0.51864   0.00000  Uiso   1.00
H393   H     0.86414   0.92734   0.53716   0.00000  Uiso   1.00
H394   H     0.73118   0.14012   0.49104   0.00000  Uiso   1.00
H395   H     0.01600   0.21096   0.52303   0.00000  Uiso   1.00
H396   H     0.83998   0.75900   0.56508   0.00000  Uiso   1.00
H397   H     0.55963   0.20770   0.46783   0.00000  Uiso   1.00
H398   H     0.16023   0.35707   0.53529   0.00000  Uiso   1.00
H399   H     0.69325   0.24908   0.57566   0.00000  Uiso   1.00
H400   H     0.68221   0.08780   0.59730   0.00000  Uiso   1.00
H401   H     0.54924   0.30058   0.55118   0.00000  Uiso   1.00
H402   H     0.83406   0.37141   0.58317   0.00000  Uiso   1.00
H403   H     0.69231   0.88924   0.61390   0.00000  Uiso   1.00
H404   H     0.41197   0.33793   0.51664   0.00000  Uiso   1.00
H405   H     0.01256   0.48731   0.58410   0.00000  Uiso   1.00
O406   O     0.76197   0.71527   0.60270   0.00000  Uiso   1.00
O407   O     0.39417   0.30395   0.47510   0.00000  Uiso   1.00
O408   O     0.18214   0.49992   0.56361   0.00000  Uiso   1.00
N409   N     0.80676   0.81179   0.57360   0.00000  Uiso   1.00
N410   N     0.54464   0.23128   0.48268   0.00000  Uiso   1.00
N411   N     0.10614   0.37095   0.54574   0.00000  Uiso   1.00
N412   N     0.72730   0.88187   0.59987   0.00000  Uiso   1.00
N413   N     0.46518   0.30136   0.50894   0.00000  Uiso   1.00
N414   N     0.02668   0.44103   0.57201   0.00000  Uiso   1.00
C415   C     0.91459   0.32605   0.78234   0.00000  Uiso   1.00
C416   C     0.98214   0.30109   0.80093   0.00000  Uiso   1.00
C417   C     0.08090   0.32391   0.80226   0.00000  Uiso   1.00
C418   C     0.12991   0.29467   0.82059   0.00000  Uiso   1.00
C419   C     0.24214   0.26351   0.84696   0.00000  Uiso   1.00
C420   C     0.87079   0.22921   0.77493   0.00000  Uiso   1.00
C421   C     0.87592   0.19161   0.75439   0.00000  Uiso   1.00
C422   C     0.83118   0.10186   0.75083   0.00000  Uiso   1.00
C423   C     0.77046   0.95914   0.73682   0.00000  Uiso   1.00
C424   C     0.83013   0.38444   0.79186   0.00000  Uiso   1.00
C425   C     0.80104   0.47735   0.78555   0.00000  Uiso   1.00
C426   C     0.72205   0.51829   0.79625   0.00000  Uiso   1.00
C427   C     0.59820   0.61659   0.80853   0.00000  Uiso   1.00
C428   C     0.82599   0.23352   0.81255   0.00000  Uiso   1.00
C429   C     0.93402   0.25083   0.81734   0.00000  Uiso   1.00
C430   C     0.98289   0.22154   0.83567   0.00000  Uiso   1.00
C431   C     0.08171   0.24432   0.83702   0.00000  Uiso   1.00
C432   C     0.82267   0.17895   0.79133   0.00000  Uiso   1.00
C433   C     0.77790   0.08924   0.78781   0.00000  Uiso   1.00
C434   C     0.78297   0.05151   0.76726   0.00000  Uiso   1.00
C435   C     0.78200   0.33418   0.80827   0.00000  Uiso   1.00
C436   C     0.70303   0.37498   0.81897   0.00000  Uiso   1.00
C437   C     0.67384   0.46794   0.81268   0.00000  Uiso   1.00
H438   H     0.95205   0.36517   0.76957   0.00000  Uiso   1.00
H439   H     0.11812   0.36280   0.78956   0.00000  Uiso   1.00
H440   H     0.91316   0.23052   0.74170   0.00000  Uiso   1.00
H441   H     0.83830   0.51622   0.77286   0.00000  Uiso   1.00
H442   H     0.28103   0.33797   0.81895   0.00000  Uiso   1.00
H443   H     0.84882   0.05907   0.71803   0.00000  Uiso   1.00
H444   H     0.69097   0.66153   0.78374   0.00000  Uiso   1.00
H445   H     0.78853   0.19439   0.82532   0.00000  Uiso   1.00
H446   H     0.94563   0.18265   0.84837   0.00000  Uiso   1.00
H447   H     0.74066   0.05037   0.80050   0.00000  Uiso   1.00
H448   H     0.66581   0.33607   0.83167   0.00000  Uiso   1.00
H449   H     0.14103   0.19175   0.86668   0.00000  Uiso   1.00
H450   H     0.70882   0.91286   0.76576   0.00000  Uiso   1.00
H451   H     0.55097   0.51531   0.83147   0.00000  Uiso   1.00
O452   O     0.31733   0.26019   0.85697   0.00000  Uiso   1.00
O453   O     0.75028   0.89430   0.72456   0.00000  Uiso   1.00
O454   O     0.54319   0.68470   0.81077   0.00000  Uiso   1.00
N455   N     0.22651   0.30519   0.82702   0.00000  Uiso   1.00
N456   N     0.82244   0.04443   0.73267   0.00000  Uiso   1.00
N457   N     0.67485   0.60766   0.79410   0.00000  Uiso   1.00
N458   N     0.15118   0.22651   0.85270   0.00000  Uiso   1.00
N459   N     0.74711   0.96575   0.75835   0.00000  Uiso   1.00
N460   N     0.59951   0.52898   0.81978   0.00000  Uiso   1.00
C461   C     0.32763   0.02657   0.53262   0.00000  Uiso   1.00
C462   C     0.35232   0.09365   0.55131   0.00000  Uiso   1.00
C463   C     0.32937   0.19236   0.55274   0.00000  Uiso   1.00
C464   C     0.35836   0.24091   0.57114   0.00000  Uiso   1.00
C465   C     0.38911   0.35246   0.59766   0.00000  Uiso   1.00
C466   C     0.42459   0.98307   0.52521   0.00000  Uiso   1.00
C467   C     0.46240   0.98880   0.50469   0.00000  Uiso   1.00
C468   C     0.55223   0.94426   0.50113   0.00000  Uiso   1.00
C469   C     0.69516   0.88408   0.48712   0.00000  Uiso   1.00
C470   C     0.26924   0.94178   0.54201   0.00000  Uiso   1.00
C471   C     0.17644   0.91276   0.53562   0.00000  Uiso   1.00
C472   C     0.13548   0.83342   0.54619   0.00000  Uiso   1.00
C473   C     0.03721   0.70912   0.55827   0.00000  Uiso   1.00
C474   C     0.41994   0.93726   0.56277   0.00000  Uiso   1.00
C475   C     0.40246   0.04514   0.56768   0.00000  Uiso   1.00
C476   C     0.43149   0.09355   0.58609   0.00000  Uiso   1.00
C477   C     0.40858   0.19232   0.58755   0.00000  Uiso   1.00
C478   C     0.47473   0.93457   0.54158   0.00000  Uiso   1.00
C479   C     0.56452   0.88999   0.53804   0.00000  Uiso   1.00
C480   C     0.60246   0.89566   0.51753   0.00000  Uiso   1.00
C481   C     0.31938   0.89327   0.55838   0.00000  Uiso   1.00
C482   C     0.27856   0.81395   0.56897   0.00000  Uiso   1.00
C483   C     0.18571   0.78483   0.56259   0.00000  Uiso   1.00
H484   H     0.28860   0.06433   0.51987   0.00000  Uiso   1.00
H485   H     0.29057   0.22988   0.54006   0.00000  Uiso   1.00
H486   H     0.42358   0.02634   0.49202   0.00000  Uiso   1.00
H487   H     0.13766   0.95031   0.52295   0.00000  Uiso   1.00
H488   H     0.31490   0.39203   0.56966   0.00000  Uiso   1.00
H489   H     0.59534   0.96283   0.46837   0.00000  Uiso   1.00
H490   H     0.99243   0.80251   0.53357   0.00000  Uiso   1.00
H491   H     0.45897   0.89949   0.57551   0.00000  Uiso   1.00
H492   H     0.47029   0.05599   0.59876   0.00000  Uiso   1.00
H493   H     0.60330   0.85246   0.55072   0.00000  Uiso   1.00
H494   H     0.31738   0.77643   0.58164   0.00000  Uiso   1.00
H495   H     0.46077   0.25090   0.61730   0.00000  Uiso   1.00
H496   H     0.74120   0.82170   0.51600   0.00000  Uiso   1.00
H497   H     0.13830   0.66139   0.58121   0.00000  Uiso   1.00
O498   O     0.39224   0.42740   0.60776   0.00000  Uiso   1.00
O499   O     0.76014   0.86430   0.47487   0.00000  Uiso   1.00
O500   O     0.96914   0.65397   0.56041   0.00000  Uiso   1.00
N501   N     0.34766   0.33733   0.57769   0.00000  Uiso   1.00
N502   N     0.60986   0.93607   0.48298   0.00000  Uiso   1.00
N503   N     0.04620   0.78617   0.54394   0.00000  Uiso   1.00
N504   N     0.42615   0.26139   0.60332   0.00000  Uiso   1.00
N505   N     0.68835   0.86013   0.50862   0.00000  Uiso   1.00
N506   N     0.12469   0.71023   0.56957   0.00000  Uiso   1.00
C507   C     0.01990   0.82788   0.78227   0.00000  Uiso   1.00
C508   C     0.94974   0.85236   0.80042   0.00000  Uiso   1.00
C509   C     0.85102   0.82880   0.80112   0.00000  Uiso   1.00
C510   C     0.79940   0.85770   0.81913   0.00000  Uiso   1.00
C511   C     0.68352   0.88805   0.84477   0.00000  Uiso   1.00
C512   C     0.06395   0.92504   0.77513   0.00000  Uiso   1.00
C513   C     0.06125   0.96259   0.75456   0.00000  Uiso   1.00
C514   C     0.10578   0.05266   0.75127   0.00000  Uiso   1.00
C515   C     0.16726   0.19582   0.73764   0.00000  Uiso   1.00
C516   C     0.10350   0.77012   0.79233   0.00000  Uiso   1.00
C517   C     0.13409   0.67742   0.78622   0.00000  Uiso   1.00
C518   C     0.21194   0.63708   0.79742   0.00000  Uiso   1.00
C519   C     0.33484   0.53970   0.81050   0.00000  Uiso   1.00
C520   C     0.10379   0.92108   0.81301   0.00000  Uiso   1.00
C521   C     0.99531   0.90298   0.81712   0.00000  Uiso   1.00
C522   C     0.94383   0.93192   0.83513   0.00000  Uiso   1.00
C523   C     0.84504   0.90841   0.83586   0.00000  Uiso   1.00
C524   C     0.10951   0.97566   0.79183   0.00000  Uiso   1.00
C525   C     0.15406   0.06570   0.78857   0.00000  Uiso   1.00
C526   C     0.15143   0.10338   0.76800   0.00000  Uiso   1.00
C527   C     0.14907   0.82074   0.80903   0.00000  Uiso   1.00
C528   C     0.22689   0.78054   0.82024   0.00000  Uiso   1.00
C529   C     0.25759   0.68779   0.81415   0.00000  Uiso   1.00
H530   H     0.98443   0.78848   0.76927   0.00000  Uiso   1.00
H531   H     0.81578   0.78964   0.78819   0.00000  Uiso   1.00
H532   H     0.02599   0.92339   0.74164   0.00000  Uiso   1.00
H533   H     0.09881   0.63827   0.77330   0.00000  Uiso   1.00
H534   H     0.64888   0.81328   0.81653   0.00000  Uiso   1.00
H535   H     0.09215   0.09529   0.71837   0.00000  Uiso   1.00
H536   H     0.24571   0.49407   0.78513   0.00000  Uiso   1.00
H537   H     0.13927   0.96049   0.82601   0.00000  Uiso   1.00
H538   H     0.97911   0.97109   0.84805   0.00000  Uiso   1.00
H539   H     0.18932   0.10485   0.80150   0.00000  Uiso   1.00
H540   H     0.26214   0.81973   0.83316   0.00000  Uiso   1.00
H541   H     0.78145   0.96056   0.86511   0.00000  Uiso   1.00
H542   H     0.22472   0.24257   0.76695   0.00000  Uiso   1.00
H543   H     0.37827   0.64135   0.83371   0.00000  Uiso   1.00
O544   O     0.60701   0.89082   0.85429   0.00000  Uiso   1.00
O545   O     0.18858   0.26080   0.72551   0.00000  Uiso   1.00
O546   O     0.39003   0.47200   0.81310   0.00000  Uiso   1.00
N547   N     0.70207   0.84647   0.82494   0.00000  Uiso   1.00
N548   N     0.11648   0.11014   0.73317   0.00000  Uiso   1.00
N549   N     0.26006   0.54806   0.79558   0.00000  Uiso   1.00
N550   N     0.77340   0.92572   0.85109   0.00000  Uiso   1.00
N551   N     0.18782   0.18939   0.75931   0.00000  Uiso   1.00
N552   N     0.33139   0.62731   0.82172   0.00000  Uiso   1.00
C553   C     0.12784   0.82602   0.46543   0.00000  Uiso   1.00
C554   C     0.06025   0.80108   0.44684   0.00000  Uiso   1.00
C555   C     0.96148   0.82393   0.44553   0.00000  Uiso   1.00
C556   C     0.91243   0.79471   0.42720   0.00000  Uiso   1.00
C557   C     0.80015   0.76360   0.40084   0.00000  Uiso   1.00
C558   C     0.17163   0.72916   0.47284   0.00000  Uiso   1.00
C559   C     0.16653   0.69155   0.49338   0.00000  Uiso   1.00
C560   C     0.21126   0.60178   0.49693   0.00000  Uiso   1.00
C561   C     0.27197   0.45904   0.51094   0.00000  Uiso   1.00
C562   C     0.21230   0.88440   0.45590   0.00000  Uiso   1.00
C563   C     0.24141   0.97730   0.46220   0.00000  Uiso   1.00
C564   C     0.32039   0.01822   0.45150   0.00000  Uiso   1.00
C565   C     0.44424   0.11651   0.43921   0.00000  Uiso   1.00
C566   C     0.21636   0.73350   0.43522   0.00000  Uiso   1.00
C567   C     0.10833   0.75083   0.43043   0.00000  Uiso   1.00
C568   C     0.05942   0.72157   0.41210   0.00000  Uiso   1.00
C569   C     0.96060   0.74437   0.41076   0.00000  Uiso   1.00
C570   C     0.21971   0.67890   0.45643   0.00000  Uiso   1.00
C571   C     0.26447   0.58918   0.45995   0.00000  Uiso   1.00
C572   C     0.25943   0.55144   0.48049   0.00000  Uiso   1.00
C573   C     0.26038   0.83414   0.43949   0.00000  Uiso   1.00
C574   C     0.33934   0.87493   0.42878   0.00000  Uiso   1.00
C575   C     0.36856   0.96788   0.43506   0.00000  Uiso   1.00
H576   H     0.09041   0.86514   0.47820   0.00000  Uiso   1.00
H577   H     0.92430   0.86282   0.45823   0.00000  Uiso   1.00
H578   H     0.12933   0.73046   0.50607   0.00000  Uiso   1.00
H579   H     0.20419   0.01616   0.47490   0.00000  Uiso   1.00
H580   H     0.76133   0.83805   0.42885   0.00000  Uiso   1.00
H581   H     0.19367   0.55898   0.52974   0.00000  Uiso   1.00
H582   H     0.35153   0.16145   0.46401   0.00000  Uiso   1.00
H583   H     0.25379   0.69437   0.42244   0.00000  Uiso   1.00
H584   H     0.09664   0.68268   0.39941   0.00000  Uiso   1.00
H585   H     0.30167   0.55031   0.44725   0.00000  Uiso   1.00
H586   H     0.37653   0.83602   0.41608   0.00000  Uiso   1.00
H587   H     0.90121   0.69183   0.38111   0.00000  Uiso   1.00
H588   H     0.33355   0.41276   0.48200   0.00000  Uiso   1.00
H589   H     0.49141   0.01523   0.41626   0.00000  Uiso   1.00
O590   O     0.72494   0.76030   0.39084   0.00000  Uiso   1.00
O591   O     0.29217   0.39419   0.52320   0.00000  Uiso   1.00
O592   O     0.49926   0.18461   0.43696   0.00000  Uiso   1.00
N593   N     0.81582   0.80526   0.42078   0.00000  Uiso   1.00
N594   N     0.22002   0.54434   0.51510   0.00000  Uiso   1.00
N595   N     0.36762   0.10758   0.45365   0.00000  Uiso   1.00
N596   N     0.89109   0.72658   0.39509   0.00000  Uiso   1.00
N597   N     0.29529   0.46566   0.48941   0.00000  Uiso   1.00
N598   N     0.44289   0.02891   0.42796   0.00000  Uiso   1.00
C599   C     0.71481   0.52653   0.71514   0.00000  Uiso   1.00
C600   C     0.69014   0.59365   0.69646   0.00000  Uiso   1.00
C601   C     0.71309   0.69236   0.69503   0.00000  Uiso   1.00
C602   C     0.68411   0.74094   0.67663   0.00000  Uiso   1.00
C603   C     0.65338   0.85255   0.65011   0.00000  Uiso   1.00
C604   C     0.61784   0.48302   0.72255   0.00000  Uiso   1.00
C605   C     0.58002   0.48871   0.74307   0.00000  Uiso   1.00
C606   C     0.49019   0.44416   0.74663   0.00000  Uiso   1.00
C607   C     0.34725   0.38395   0.76063   0.00000  Uiso   1.00
C608   C     0.77321   0.44176   0.70575   0.00000  Uiso   1.00
C609   C     0.86601   0.41273   0.71215   0.00000  Uiso   1.00
C610   C     0.90697   0.33341   0.70157   0.00000  Uiso   1.00
C611   C     0.00526   0.20913   0.68949   0.00000  Uiso   1.00
C612   C     0.62253   0.43727   0.68499   0.00000  Uiso   1.00
C613   C     0.64001   0.54517   0.68008   0.00000  Uiso   1.00
C614   C     0.61099   0.59361   0.66167   0.00000  Uiso   1.00
C615   C     0.63390   0.69238   0.66022   0.00000  Uiso   1.00
C616   C     0.56772   0.43454   0.70618   0.00000  Uiso   1.00
C617   C     0.47793   0.38996   0.70971   0.00000  Uiso   1.00
C618   C     0.43997   0.39559   0.73022   0.00000  Uiso   1.00
C619   C     0.72309   0.39328   0.68938   0.00000  Uiso   1.00
C620   C     0.76391   0.31398   0.67879   0.00000  Uiso   1.00
C621   C     0.85676   0.28484   0.68516   0.00000  Uiso   1.00
H622   H     0.75383   0.56427   0.72789   0.00000  Uiso   1.00
H623   H     0.75187   0.72985   0.70771   0.00000  Uiso   1.00
H624   H     0.61883   0.52622   0.75574   0.00000  Uiso   1.00
H625   H     0.90477   0.45026   0.72482   0.00000  Uiso   1.00
H626   H     0.72757   0.89206   0.67811   0.00000  Uiso   1.00
H627   H     0.44706   0.46268   0.77938   0.00000  Uiso   1.00
H628   H     0.05002   0.30248   0.71420   0.00000  Uiso   1.00
H629   H     0.58351   0.39953   0.67224   0.00000  Uiso   1.00
H630   H     0.57221   0.55608   0.64900   0.00000  Uiso   1.00
H631   H     0.43916   0.35245   0.69703   0.00000  Uiso   1.00
H632   H     0.72510   0.27648   0.66612   0.00000  Uiso   1.00
H633   H     0.58174   0.75102   0.63047   0.00000  Uiso   1.00
H634   H     0.30123   0.32163   0.73174   0.00000  Uiso   1.00
H635   H     0.90419   0.16144   0.66655   0.00000  Uiso   1.00
O636   O     0.65026   0.92750   0.64001   0.00000  Uiso   1.00
O637   O     0.28226   0.36415   0.77287   0.00000  Uiso   1.00
O638   O     0.07333   0.15398   0.68735   0.00000  Uiso   1.00
N639   N     0.69482   0.83738   0.67009   0.00000  Uiso   1.00
N640   N     0.43255   0.43594   0.76477   0.00000  Uiso   1.00
N641   N     0.99626   0.28616   0.70383   0.00000  Uiso   1.00
N642   N     0.61635   0.76148   0.64445   0.00000  Uiso   1.00
N643   N     0.35408   0.36005   0.73913   0.00000  Uiso   1.00
N644   N     0.91779   0.21026   0.67819   0.00000  Uiso   1.00
C645   C     0.02248   0.32783   0.46549   0.00000  Uiso   1.00
C646   C     0.09270   0.35232   0.44735   0.00000  Uiso   1.00
C647   C     0.19143   0.32877   0.44667   0.00000  Uiso   1.00
C648   C     0.24311   0.35768   0.42867   0.00000  Uiso   1.00
C649   C     0.35908   0.38805   0.40305   0.00000  Uiso   1.00
C650   C     0.97841   0.42498   0.47262   0.00000  Uiso   1.00
C651   C     0.98104   0.46251   0.49319   0.00000  Uiso   1.00
C652   C     0.93650   0.55258   0.49647   0.00000  Uiso   1.00
C653   C     0.87497   0.69572   0.51009   0.00000  Uiso   1.00
C654   C     0.93891   0.27008   0.45541   0.00000  Uiso   1.00
C655   C     0.90830   0.17738   0.46152   0.00000  Uiso   1.00
C656   C     0.83049   0.13705   0.45031   0.00000  Uiso   1.00
C657   C     0.70763   0.03969   0.43721   0.00000  Uiso   1.00
C658   C     0.93870   0.42106   0.43473   0.00000  Uiso   1.00
C659   C     0.04719   0.40296   0.43064   0.00000  Uiso   1.00
C660   C     0.09874   0.43192   0.41264   0.00000  Uiso   1.00
C661   C     0.19752   0.40840   0.41193   0.00000  Uiso   1.00
C662   C     0.93291   0.47562   0.45592   0.00000  Uiso   1.00
C663   C     0.88835   0.56566   0.45916   0.00000  Uiso   1.00
C664   C     0.89091   0.60331   0.47973   0.00000  Uiso   1.00
C665   C     0.89340   0.32072   0.43871   0.00000  Uiso   1.00
C666   C     0.81562   0.28053   0.42749   0.00000  Uiso   1.00
C667   C     0.78490   0.18778   0.43357   0.00000  Uiso   1.00
H668   H     0.05790   0.28841   0.47849   0.00000  Uiso   1.00
H669   H     0.22662   0.28958   0.45960   0.00000  Uiso   1.00
H670   H     0.01625   0.42330   0.50612   0.00000  Uiso   1.00
H671   H     0.94354   0.13822   0.47445   0.00000  Uiso   1.00
H672   H     0.39361   0.31325   0.43129   0.00000  Uiso   1.00
H673   H     0.95001   0.59518   0.52938   0.00000  Uiso   1.00
H674   H     0.79667   0.99403   0.46259   0.00000  Uiso   1.00
H675   H     0.90327   0.46049   0.42172   0.00000  Uiso   1.00
H676   H     0.06350   0.47110   0.39971   0.00000  Uiso   1.00
H677   H     0.85313   0.60482   0.44623   0.00000  Uiso   1.00
H678   H     0.78042   0.31974   0.41456   0.00000  Uiso   1.00
H679   H     0.26122   0.46058   0.38268   0.00000  Uiso   1.00
H680   H     0.81762   0.74251   0.48077   0.00000  Uiso   1.00
H681   H     0.66428   0.14136   0.41399   0.00000  Uiso   1.00
O682   O     0.43562   0.39082   0.39353   0.00000  Uiso   1.00
O683   O     0.85362   0.76069   0.52222   0.00000  Uiso   1.00
O684   O     0.65245   0.97199   0.43460   0.00000  Uiso   1.00
N685   N     0.34046   0.34645   0.42287   0.00000  Uiso   1.00
N686   N     0.92573   0.61005   0.51457   0.00000  Uiso   1.00
N687   N     0.78236   0.04803   0.45214   0.00000  Uiso   1.00
N688   N     0.26922   0.42573   0.39671   0.00000  Uiso   1.00
N689   N     0.85450   0.68932   0.48842   0.00000  Uiso   1.00
N690   N     0.71112   0.12731   0.42598   0.00000  Uiso   1.00
C691   C     0.21620   0.63183   0.71607   0.00000  Uiso   1.00
C692   C     0.24094   0.56074   0.69811   0.00000  Uiso   1.00
C693   C     0.21750   0.46196   0.69765   0.00000  Uiso   1.00
C694   C     0.24664   0.40942   0.67978   0.00000  Uiso   1.00
C695   C     0.27739   0.29221   0.65445   0.00000  Uiso   1.00
C696   C     0.31323   0.67635   0.72316   0.00000  Uiso   1.00
C697   C     0.35055   0.67478   0.74375   0.00000  Uiso   1.00
C698   C     0.44054   0.71958   0.74697   0.00000  Uiso   1.00
C699   C     0.58347   0.78192   0.76053   0.00000  Uiso   1.00
C700   C     0.15848   0.71485   0.70577   0.00000  Uiso   1.00
C701   C     0.06569   0.74566   0.71176   0.00000  Uiso   1.00
C702   C     0.02539   0.82288   0.70034   0.00000  Uiso   1.00
C703   C     0.92805   0.94499   0.68691   0.00000  Uiso   1.00
C704   C     0.30965   0.71420   0.68517   0.00000  Uiso   1.00
C705   C     0.29170   0.60548   0.68133   0.00000  Uiso   1.00
C706   C     0.32089   0.55308   0.66346   0.00000  Uiso   1.00
C707   C     0.29749   0.45423   0.66297   0.00000  Uiso   1.00
C708   C     0.36399   0.72109   0.70638   0.00000  Uiso   1.00
C709   C     0.45394   0.76591   0.70957   0.00000  Uiso   1.00
C710   C     0.49139   0.76439   0.73016   0.00000  Uiso   1.00
C711   C     0.20923   0.75959   0.68899   0.00000  Uiso   1.00
C712   C     0.16908   0.83678   0.67757   0.00000  Uiso   1.00
C713   C     0.07624   0.86770   0.68353   0.00000  Uiso   1.00
H714   H     0.17669   0.59701   0.72914   0.00000  Uiso   1.00
H715   H     0.17823   0.42736   0.71064   0.00000  Uiso   1.00
H716   H     0.31125   0.64016   0.75674   0.00000  Uiso   1.00
H717   H     0.02643   0.71102   0.72474   0.00000  Uiso   1.00
H718   H     0.20235   0.25899   0.68273   0.00000  Uiso   1.00
H719   H     0.48282   0.70773   0.77993   0.00000  Uiso   1.00
H720   H     0.88222   0.85715   0.71247   0.00000  Uiso   1.00
H721   H     0.34917   0.74903   0.67211   0.00000  Uiso   1.00
H722   H     0.36017   0.58772   0.65047   0.00000  Uiso   1.00
H723   H     0.49319   0.80052   0.69658   0.00000  Uiso   1.00
H724   H     0.20837   0.87138   0.66458   0.00000  Uiso   1.00
H725   H     0.35002   0.38915   0.63390   0.00000  Uiso   1.00
H726   H     0.63049   0.83789   0.73111   0.00000  Uiso   1.00
H727   H     0.02990   0.98731   0.66364   0.00000  Uiso   1.00
O728   O     0.28033   0.21521   0.64512   0.00000  Uiso   1.00
O729   O     0.64829   0.80394   0.77265   0.00000  Uiso   1.00
O730   O     0.86033   0.99998   0.68413   0.00000  Uiso   1.00
N731   N     0.23557   0.31177   0.67420   0.00000  Uiso   1.00
N732   N     0.49781   0.73129   0.76508   0.00000  Uiso   1.00
N733   N     0.93631   0.87101   0.70201   0.00000  Uiso   1.00
N734   N     0.31503   0.38180   0.64793   0.00000  Uiso   1.00
N735   N     0.57727   0.80133   0.73881   0.00000  Uiso   1.00
N736   N     0.01577   0.94105   0.67574   0.00000  Uiso   1.00
