data_job_05521
_audit_creation_date              2018-12-19
_audit_creation_method            'Materials Studio'
_symmetry_space_group_name_H-M    'P1'
_symmetry_Int_Tables_number       1
_symmetry_cell_setting            triclinic
loop_
_symmetry_equiv_pos_as_xyz
  x,y,z
_cell_length_a                    22.9353
_cell_length_b                    14.0502
_cell_length_c                    33.4661
_cell_angle_alpha                 90.0000
_cell_angle_beta                  89.5556
_cell_angle_gamma                 90.0000
loop_
_atom_site_label
_atom_site_type_symbol
_atom_site_fract_x
_atom_site_fract_y
_atom_site_fract_z
_atom_site_U_iso_or_equiv
_atom_site_adp_type
_atom_site_occupancy
C1     C     0.41475   0.06758   0.85097   0.00000  Uiso   1.00
C2     C     0.39751   0.98021   0.82675   0.00000  Uiso   1.00
C3     C     0.36754   0.98118   0.79088   0.00000  Uiso   1.00
C4     C     0.35591   0.89367   0.77340   0.00000  Uiso   1.00
C5     C     0.32641   0.77098   0.73310   0.00000  Uiso   1.00
C6     C     0.38845   0.05327   0.89252   0.00000  Uiso   1.00
C7     C     0.35087   0.11567   0.91197   0.00000  Uiso   1.00
C8     C     0.33163   0.08966   0.94986   0.00000  Uiso   1.00
C9     C     0.28811   0.08043   0.01169   0.00000  Uiso   1.00
C10    C     0.48066   0.06159   0.85606   0.00000  Uiso   1.00
C11    C     0.52061   0.13099   0.84485   0.00000  Uiso   1.00
C12    C     0.57900   0.11200   0.85206   0.00000  Uiso   1.00
C13    C     0.67865   0.11568   0.85727   0.00000  Uiso   1.00
C14    C     0.44740   0.91044   0.88369   0.00000  Uiso   1.00
C15    C     0.41524   0.89486   0.84452   0.00000  Uiso   1.00
C16    C     0.40366   0.80732   0.82709   0.00000  Uiso   1.00
C17    C     0.37368   0.80816   0.79121   0.00000  Uiso   1.00
C18    C     0.40618   0.96792   0.91030   0.00000  Uiso   1.00
C19    C     0.38700   0.94181   0.94817   0.00000  Uiso   1.00
C20    C     0.34940   0.00415   0.96767   0.00000  Uiso   1.00
C21    C     0.49839   0.97623   0.87384   0.00000  Uiso   1.00
C22    C     0.55673   0.95713   0.88106   0.00000  Uiso   1.00
C23    C     0.59677   0.02649   0.86987   0.00000  Uiso   1.00
H24    H     0.40094   0.13403   0.83713   0.00000  Uiso   1.00
H25    H     0.35382   0.04725   0.77714   0.00000  Uiso   1.00
H26    H     0.33716   0.18172   0.89820   0.00000  Uiso   1.00
H27    H     0.50687   0.19703   0.83110   0.00000  Uiso   1.00
H28    H     0.30937   0.91338   0.71847   0.00000  Uiso   1.00
H29    H     0.27427   0.19694   0.97375   0.00000  Uiso   1.00
H30    H     0.63214   0.22924   0.83225   0.00000  Uiso   1.00
H31    H     0.46120   0.84399   0.89753   0.00000  Uiso   1.00
H32    H     0.41739   0.74128   0.84085   0.00000  Uiso   1.00
H33    H     0.40073   0.87576   0.96192   0.00000  Uiso   1.00
H34    H     0.57044   0.89107   0.89482   0.00000  Uiso   1.00
H35    H     0.36096   0.66505   0.77019   0.00000  Uiso   1.00
H36    H     0.32586   0.94861   0.02547   0.00000  Uiso   1.00
H37    H     0.68373   0.98091   0.88397   0.00000  Uiso   1.00
O38    O     0.30524   0.72689   0.70596   0.00000  Uiso   1.00
O39    O     0.25920   0.09891   0.04088   0.00000  Uiso   1.00
O40    O     0.72871   0.14129   0.85523   0.00000  Uiso   1.00
N41    N     0.32754   0.86904   0.73842   0.00000  Uiso   1.00
N42    N     0.29471   0.13414   0.97709   0.00000  Uiso   1.00
N43    N     0.62929   0.16435   0.84481   0.00000  Uiso   1.00
N44    N     0.35530   0.73541   0.76624   0.00000  Uiso   1.00
N45    N     0.32248   0.00051   0.00491   0.00000  Uiso   1.00
N46    N     0.65705   0.03072   0.87263   0.00000  Uiso   1.00
C47    C     0.45862   0.43325   0.14874   0.00000  Uiso   1.00
C48    C     0.44298   0.52511   0.17060   0.00000  Uiso   1.00
C49    C     0.42215   0.53158   0.20955   0.00000  Uiso   1.00
C50    C     0.41041   0.62218   0.22409   0.00000  Uiso   1.00
C51    C     0.38476   0.75246   0.26162   0.00000  Uiso   1.00
C52    C     0.42216   0.43255   0.11083   0.00000  Uiso   1.00
C53    C     0.38383   0.36118   0.09952   0.00000  Uiso   1.00
C54    C     0.35458   0.37385   0.06375   0.00000  Uiso   1.00
C55    C     0.29664   0.36039   0.00847   0.00000  Uiso   1.00
C56    C     0.52180   0.44448   0.13502   0.00000  Uiso   1.00
C57    C     0.56726   0.38314   0.14405   0.00000  Uiso   1.00
C58    C     0.62189   0.40584   0.12864   0.00000  Uiso   1.00
C59    C     0.71866   0.41091   0.11092   0.00000  Uiso   1.00
C60    C     0.47480   0.58264   0.10530   0.00000  Uiso   1.00
C61    C     0.45177   0.60625   0.14701   0.00000  Uiso   1.00
C62    C     0.44006   0.69686   0.16150   0.00000  Uiso   1.00
C63    C     0.41922   0.70346   0.20046   0.00000  Uiso   1.00
C64    C     0.43095   0.51368   0.08724   0.00000  Uiso   1.00
C65    C     0.40174   0.52646   0.05147   0.00000  Uiso   1.00
C66    C     0.36338   0.45514   0.04011   0.00000  Uiso   1.00
C67    C     0.53059   0.52562   0.11143   0.00000  Uiso   1.00
C68    C     0.58516   0.54842   0.09600   0.00000  Uiso   1.00
C69    C     0.63070   0.48713   0.10500   0.00000  Uiso   1.00
H70    H     0.45177   0.37008   0.16710   0.00000  Uiso   1.00
H71    H     0.41535   0.46877   0.22780   0.00000  Uiso   1.00
H72    H     0.37705   0.29840   0.11778   0.00000  Uiso   1.00
H73    H     0.56044   0.32035   0.16231   0.00000  Uiso   1.00
H74    H     0.37883   0.61397   0.28468   0.00000  Uiso   1.00
H75    H     0.29808   0.25470   0.05270   0.00000  Uiso   1.00
H76    H     0.68480   0.30100   0.14659   0.00000  Uiso   1.00
H77    H     0.48164   0.64581   0.08694   0.00000  Uiso   1.00
H78    H     0.44687   0.75964   0.14323   0.00000  Uiso   1.00
H79    H     0.40856   0.58926   0.03322   0.00000  Uiso   1.00
H80    H     0.59195   0.61121   0.07774   0.00000  Uiso   1.00
H81    H     0.40440   0.85004   0.21604   0.00000  Uiso   1.00
H82    H     0.32365   0.49078   0.98407   0.00000  Uiso   1.00
H83    H     0.71037   0.53708   0.07795   0.00000  Uiso   1.00
O84    O     0.36818   0.80190   0.28883   0.00000  Uiso   1.00
O85    O     0.26225   0.33055   0.98449   0.00000  Uiso   1.00
O86    O     0.76961   0.39130   0.10767   0.00000  Uiso   1.00
N87    N     0.38963   0.65391   0.26080   0.00000  Uiso   1.00
N88    N     0.31413   0.31802   0.04392   0.00000  Uiso   1.00
N89    N     0.67567   0.36129   0.13169   0.00000  Uiso   1.00
N90    N     0.40340   0.78094   0.22387   0.00000  Uiso   1.00
N91    N     0.32789   0.44506   0.00699   0.00000  Uiso   1.00
N92    N     0.68944   0.48833   0.09476   0.00000  Uiso   1.00
C93    C     0.54387   0.93399   0.64882   0.00000  Uiso   1.00
C94    C     0.55930   0.02654   0.67007   0.00000  Uiso   1.00
C95    C     0.58126   0.03410   0.70846   0.00000  Uiso   1.00
C96    C     0.59257   0.12518   0.72249   0.00000  Uiso   1.00
C97    C     0.61812   0.25663   0.75905   0.00000  Uiso   1.00
C98    C     0.57913   0.93368   0.61000   0.00000  Uiso   1.00
C99    C     0.61777   0.86314   0.59790   0.00000  Uiso   1.00
C100   C     0.64577   0.87604   0.56137   0.00000  Uiso   1.00
C101   C     0.70208   0.86328   0.50467   0.00000  Uiso   1.00
C102   C     0.48018   0.94342   0.63669   0.00000  Uiso   1.00
C103   C     0.43562   0.88105   0.64701   0.00000  Uiso   1.00
C104   C     0.38031   0.90215   0.63293   0.00000  Uiso   1.00
C105   C     0.28299   0.90450   0.61766   0.00000  Uiso   1.00
C106   C     0.52489   0.08233   0.60547   0.00000  Uiso   1.00
C107   C     0.54899   0.10711   0.64652   0.00000  Uiso   1.00
C108   C     0.56027   0.19822   0.66050   0.00000  Uiso   1.00
C109   C     0.58225   0.20590   0.69890   0.00000  Uiso   1.00
C110   C     0.56883   0.01424   0.58646   0.00000  Uiso   1.00
C111   C     0.59678   0.02726   0.54994   0.00000  Uiso   1.00
C112   C     0.63545   0.95676   0.53778   0.00000  Uiso   1.00
C113   C     0.46987   0.02399   0.61314   0.00000  Uiso   1.00
C114   C     0.41463   0.04518   0.59905   0.00000  Uiso   1.00
C115   C     0.36999   0.98286   0.60934   0.00000  Uiso   1.00
H116   H     0.55189   0.87126   0.66715   0.00000  Uiso   1.00
H117   H     0.58924   0.97172   0.72667   0.00000  Uiso   1.00
H118   H     0.62573   0.80079   0.61612   0.00000  Uiso   1.00
H119   H     0.44361   0.81871   0.66523   0.00000  Uiso   1.00
H120   H     0.62611   0.11863   0.78226   0.00000  Uiso   1.00
H121   H     0.70305   0.75819   0.54917   0.00000  Uiso   1.00
H122   H     0.31901   0.79598   0.65271   0.00000  Uiso   1.00
H123   H     0.51687   0.14506   0.58714   0.00000  Uiso   1.00
H124   H     0.55229   0.26055   0.64227   0.00000  Uiso   1.00
H125   H     0.58879   0.08961   0.53172   0.00000  Uiso   1.00
H126   H     0.40667   0.10753   0.58083   0.00000  Uiso   1.00
H127   H     0.59613   0.35306   0.71376   0.00000  Uiso   1.00
H128   H     0.67306   0.99261   0.48066   0.00000  Uiso   1.00
H129   H     0.28903   0.03040   0.58421   0.00000  Uiso   1.00
O130   O     0.63507   0.30688   0.78572   0.00000  Uiso   1.00
O131   O     0.73600   0.83398   0.47990   0.00000  Uiso   1.00
O132   O     0.23216   0.88355   0.61575   0.00000  Uiso   1.00
N133   N     0.61418   0.15796   0.75858   0.00000  Uiso   1.00
N134   N     0.68612   0.82097   0.54065   0.00000  Uiso   1.00
N135   N     0.32709   0.85628   0.63745   0.00000  Uiso   1.00
N136   N     0.59805   0.28410   0.72172   0.00000  Uiso   1.00
N137   N     0.66999   0.94711   0.50379   0.00000  Uiso   1.00
N138   N     0.31095   0.98242   0.60059   0.00000  Uiso   1.00
C139   C     0.58288   0.56847   0.35070   0.00000  Uiso   1.00
C140   C     0.60035   0.48191   0.32586   0.00000  Uiso   1.00
C141   C     0.62923   0.48420   0.28928   0.00000  Uiso   1.00
C142   C     0.64128   0.39726   0.27131   0.00000  Uiso   1.00
C143   C     0.67091   0.27596   0.23001   0.00000  Uiso   1.00
C144   C     0.61055   0.55441   0.39157   0.00000  Uiso   1.00
C145   C     0.64800   0.61766   0.41023   0.00000  Uiso   1.00
C146   C     0.66864   0.59175   0.44758   0.00000  Uiso   1.00
C147   C     0.71407   0.58304   0.50829   0.00000  Uiso   1.00
C148   C     0.51722   0.56047   0.35739   0.00000  Uiso   1.00
C149   C     0.47619   0.62884   0.34733   0.00000  Uiso   1.00
C150   C     0.41825   0.60804   0.35592   0.00000  Uiso   1.00
C151   C     0.31878   0.60874   0.36358   0.00000  Uiso   1.00
C152   C     0.55293   0.40999   0.38384   0.00000  Uiso   1.00
C153   C     0.58408   0.39584   0.34386   0.00000  Uiso   1.00
C154   C     0.59609   0.30887   0.32594   0.00000  Uiso   1.00
C155   C     0.62499   0.31103   0.28934   0.00000  Uiso   1.00
C156   C     0.59428   0.46834   0.40957   0.00000  Uiso   1.00
C157   C     0.61487   0.44233   0.44689   0.00000  Uiso   1.00
C158   C     0.65234   0.50552   0.46561   0.00000  Uiso   1.00
C159   C     0.50095   0.47440   0.37539   0.00000  Uiso   1.00
C160   C     0.44306   0.45350   0.38400   0.00000  Uiso   1.00
C161   C     0.40196   0.52181   0.37395   0.00000  Uiso   1.00
H162   H     0.59554   0.63548   0.33669   0.00000  Uiso   1.00
H163   H     0.64181   0.55083   0.27536   0.00000  Uiso   1.00
H164   H     0.66057   0.68427   0.39629   0.00000  Uiso   1.00
H165   H     0.48880   0.69544   0.33341   0.00000  Uiso   1.00
H166   H     0.68596   0.41902   0.21531   0.00000  Uiso   1.00
H167   H     0.72551   0.70041   0.47031   0.00000  Uiso   1.00
H168   H     0.36328   0.72396   0.33770   0.00000  Uiso   1.00
H169   H     0.54026   0.34298   0.39786   0.00000  Uiso   1.00
H170   H     0.58350   0.24227   0.33988   0.00000  Uiso   1.00
H171   H     0.60227   0.37572   0.46081   0.00000  Uiso   1.00
H172   H     0.43049   0.38688   0.39793   0.00000  Uiso   1.00
H173   H     0.63863   0.16858   0.26768   0.00000  Uiso   1.00
H174   H     0.67818   0.44997   0.52268   0.00000  Uiso   1.00
H175   H     0.31596   0.47352   0.39007   0.00000  Uiso   1.00
O176   O     0.69175   0.23283   0.20226   0.00000  Uiso   1.00
O177   O     0.74363   0.60201   0.53681   0.00000  Uiso   1.00
O178   O     0.26840   0.63290   0.36283   0.00000  Uiso   1.00
N179   N     0.66888   0.37390   0.23559   0.00000  Uiso   1.00
N180   N     0.70586   0.63697   0.47399   0.00000  Uiso   1.00
N181   N     0.36721   0.65900   0.35002   0.00000  Uiso   1.00
N182   N     0.64341   0.23914   0.26377   0.00000  Uiso   1.00
N183   N     0.68039   0.50221   0.50217   0.00000  Uiso   1.00
N184   N     0.34174   0.52424   0.37820   0.00000  Uiso   1.00
C185   C     0.91475   0.56758   0.85097   0.00000  Uiso   1.00
C186   C     0.89751   0.48021   0.82675   0.00000  Uiso   1.00
C187   C     0.86754   0.48118   0.79088   0.00000  Uiso   1.00
C188   C     0.85591   0.39367   0.77340   0.00000  Uiso   1.00
C189   C     0.82641   0.27098   0.73310   0.00000  Uiso   1.00
C190   C     0.88845   0.55327   0.89252   0.00000  Uiso   1.00
C191   C     0.85087   0.61567   0.91197   0.00000  Uiso   1.00
C192   C     0.83163   0.58966   0.94986   0.00000  Uiso   1.00
C193   C     0.78811   0.58043   0.01169   0.00000  Uiso   1.00
C194   C     0.98066   0.56159   0.85606   0.00000  Uiso   1.00
C195   C     0.02061   0.63099   0.84485   0.00000  Uiso   1.00
C196   C     0.07900   0.61200   0.85206   0.00000  Uiso   1.00
C197   C     0.17865   0.61568   0.85727   0.00000  Uiso   1.00
C198   C     0.94740   0.41044   0.88369   0.00000  Uiso   1.00
C199   C     0.91524   0.39486   0.84452   0.00000  Uiso   1.00
C200   C     0.90366   0.30732   0.82709   0.00000  Uiso   1.00
C201   C     0.87368   0.30816   0.79121   0.00000  Uiso   1.00
C202   C     0.90618   0.46792   0.91030   0.00000  Uiso   1.00
C203   C     0.88700   0.44181   0.94817   0.00000  Uiso   1.00
C204   C     0.84940   0.50415   0.96767   0.00000  Uiso   1.00
C205   C     0.99839   0.47623   0.87384   0.00000  Uiso   1.00
C206   C     0.05673   0.45713   0.88106   0.00000  Uiso   1.00
C207   C     0.09677   0.52649   0.86987   0.00000  Uiso   1.00
H208   H     0.90094   0.63403   0.83713   0.00000  Uiso   1.00
H209   H     0.85382   0.54725   0.77714   0.00000  Uiso   1.00
H210   H     0.83716   0.68172   0.89820   0.00000  Uiso   1.00
H211   H     0.00687   0.69703   0.83110   0.00000  Uiso   1.00
H212   H     0.80937   0.41338   0.71847   0.00000  Uiso   1.00
H213   H     0.77427   0.69694   0.97375   0.00000  Uiso   1.00
H214   H     0.13214   0.72924   0.83225   0.00000  Uiso   1.00
H215   H     0.96120   0.34399   0.89753   0.00000  Uiso   1.00
H216   H     0.91739   0.24128   0.84085   0.00000  Uiso   1.00
H217   H     0.90073   0.37576   0.96192   0.00000  Uiso   1.00
H218   H     0.07044   0.39107   0.89482   0.00000  Uiso   1.00
H219   H     0.86096   0.16505   0.77019   0.00000  Uiso   1.00
H220   H     0.82586   0.44861   0.02547   0.00000  Uiso   1.00
H221   H     0.18373   0.48091   0.88397   0.00000  Uiso   1.00
O222   O     0.80524   0.22689   0.70596   0.00000  Uiso   1.00
O223   O     0.75920   0.59891   0.04088   0.00000  Uiso   1.00
O224   O     0.22871   0.64129   0.85523   0.00000  Uiso   1.00
N225   N     0.82754   0.36904   0.73842   0.00000  Uiso   1.00
N226   N     0.79471   0.63414   0.97709   0.00000  Uiso   1.00
N227   N     0.12929   0.66435   0.84481   0.00000  Uiso   1.00
N228   N     0.85530   0.23541   0.76624   0.00000  Uiso   1.00
N229   N     0.82248   0.50051   0.00491   0.00000  Uiso   1.00
N230   N     0.15705   0.53072   0.87263   0.00000  Uiso   1.00
C231   C     0.95862   0.93325   0.14874   0.00000  Uiso   1.00
C232   C     0.94298   0.02511   0.17060   0.00000  Uiso   1.00
C233   C     0.92215   0.03158   0.20955   0.00000  Uiso   1.00
C234   C     0.91041   0.12218   0.22409   0.00000  Uiso   1.00
C235   C     0.88476   0.25246   0.26162   0.00000  Uiso   1.00
C236   C     0.92216   0.93255   0.11083   0.00000  Uiso   1.00
C237   C     0.88383   0.86118   0.09952   0.00000  Uiso   1.00
C238   C     0.85458   0.87385   0.06375   0.00000  Uiso   1.00
C239   C     0.79664   0.86039   0.00847   0.00000  Uiso   1.00
C240   C     0.02180   0.94448   0.13502   0.00000  Uiso   1.00
C241   C     0.06726   0.88314   0.14405   0.00000  Uiso   1.00
C242   C     0.12189   0.90584   0.12864   0.00000  Uiso   1.00
C243   C     0.21866   0.91091   0.11092   0.00000  Uiso   1.00
C244   C     0.97480   0.08264   0.10530   0.00000  Uiso   1.00
C245   C     0.95177   0.10625   0.14701   0.00000  Uiso   1.00
C246   C     0.94006   0.19686   0.16150   0.00000  Uiso   1.00
C247   C     0.91922   0.20346   0.20046   0.00000  Uiso   1.00
C248   C     0.93095   0.01368   0.08724   0.00000  Uiso   1.00
C249   C     0.90174   0.02646   0.05147   0.00000  Uiso   1.00
C250   C     0.86338   0.95514   0.04011   0.00000  Uiso   1.00
C251   C     0.03059   0.02562   0.11143   0.00000  Uiso   1.00
C252   C     0.08516   0.04842   0.09600   0.00000  Uiso   1.00
C253   C     0.13070   0.98713   0.10500   0.00000  Uiso   1.00
H254   H     0.95177   0.87008   0.16710   0.00000  Uiso   1.00
H255   H     0.91535   0.96877   0.22780   0.00000  Uiso   1.00
H256   H     0.87705   0.79840   0.11778   0.00000  Uiso   1.00
H257   H     0.06044   0.82035   0.16231   0.00000  Uiso   1.00
H258   H     0.87883   0.11397   0.28468   0.00000  Uiso   1.00
H259   H     0.79808   0.75470   0.05270   0.00000  Uiso   1.00
H260   H     0.18480   0.80100   0.14659   0.00000  Uiso   1.00
H261   H     0.98164   0.14581   0.08694   0.00000  Uiso   1.00
H262   H     0.94687   0.25964   0.14323   0.00000  Uiso   1.00
H263   H     0.90856   0.08926   0.03322   0.00000  Uiso   1.00
H264   H     0.09195   0.11121   0.07774   0.00000  Uiso   1.00
H265   H     0.90440   0.35004   0.21604   0.00000  Uiso   1.00
H266   H     0.82365   0.99078   0.98407   0.00000  Uiso   1.00
H267   H     0.21037   0.03708   0.07795   0.00000  Uiso   1.00
O268   O     0.86818   0.30190   0.28883   0.00000  Uiso   1.00
O269   O     0.76225   0.83055   0.98449   0.00000  Uiso   1.00
O270   O     0.26961   0.89130   0.10767   0.00000  Uiso   1.00
N271   N     0.88963   0.15391   0.26080   0.00000  Uiso   1.00
N272   N     0.81413   0.81802   0.04392   0.00000  Uiso   1.00
N273   N     0.17567   0.86129   0.13169   0.00000  Uiso   1.00
N274   N     0.90340   0.28094   0.22387   0.00000  Uiso   1.00
N275   N     0.82789   0.94506   0.00699   0.00000  Uiso   1.00
N276   N     0.18944   0.98833   0.09476   0.00000  Uiso   1.00
C277   C     0.04387   0.43399   0.64882   0.00000  Uiso   1.00
C278   C     0.05930   0.52654   0.67007   0.00000  Uiso   1.00
C279   C     0.08126   0.53410   0.70846   0.00000  Uiso   1.00
C280   C     0.09257   0.62518   0.72249   0.00000  Uiso   1.00
C281   C     0.11812   0.75663   0.75905   0.00000  Uiso   1.00
C282   C     0.07913   0.43368   0.61000   0.00000  Uiso   1.00
C283   C     0.11777   0.36314   0.59790   0.00000  Uiso   1.00
C284   C     0.14577   0.37604   0.56137   0.00000  Uiso   1.00
C285   C     0.20208   0.36328   0.50467   0.00000  Uiso   1.00
C286   C     0.98018   0.44342   0.63669   0.00000  Uiso   1.00
C287   C     0.93562   0.38105   0.64701   0.00000  Uiso   1.00
C288   C     0.88031   0.40215   0.63293   0.00000  Uiso   1.00
C289   C     0.78299   0.40450   0.61766   0.00000  Uiso   1.00
C290   C     0.02489   0.58233   0.60547   0.00000  Uiso   1.00
C291   C     0.04899   0.60711   0.64652   0.00000  Uiso   1.00
C292   C     0.06027   0.69822   0.66050   0.00000  Uiso   1.00
C293   C     0.08225   0.70590   0.69890   0.00000  Uiso   1.00
C294   C     0.06883   0.51424   0.58646   0.00000  Uiso   1.00
C295   C     0.09678   0.52726   0.54994   0.00000  Uiso   1.00
C296   C     0.13545   0.45676   0.53778   0.00000  Uiso   1.00
C297   C     0.96987   0.52399   0.61314   0.00000  Uiso   1.00
C298   C     0.91463   0.54518   0.59905   0.00000  Uiso   1.00
C299   C     0.86999   0.48286   0.60934   0.00000  Uiso   1.00
H300   H     0.05189   0.37126   0.66715   0.00000  Uiso   1.00
H301   H     0.08924   0.47172   0.72667   0.00000  Uiso   1.00
H302   H     0.12573   0.30079   0.61612   0.00000  Uiso   1.00
H303   H     0.94361   0.31871   0.66523   0.00000  Uiso   1.00
H304   H     0.12611   0.61863   0.78226   0.00000  Uiso   1.00
H305   H     0.20305   0.25819   0.54917   0.00000  Uiso   1.00
H306   H     0.81901   0.29598   0.65271   0.00000  Uiso   1.00
H307   H     0.01687   0.64506   0.58714   0.00000  Uiso   1.00
H308   H     0.05229   0.76055   0.64227   0.00000  Uiso   1.00
H309   H     0.08879   0.58961   0.53172   0.00000  Uiso   1.00
H310   H     0.90667   0.60753   0.58083   0.00000  Uiso   1.00
H311   H     0.09613   0.85306   0.71376   0.00000  Uiso   1.00
H312   H     0.17306   0.49261   0.48066   0.00000  Uiso   1.00
H313   H     0.78903   0.53040   0.58421   0.00000  Uiso   1.00
O314   O     0.13507   0.80688   0.78572   0.00000  Uiso   1.00
O315   O     0.23600   0.33398   0.47990   0.00000  Uiso   1.00
O316   O     0.73216   0.38355   0.61575   0.00000  Uiso   1.00
N317   N     0.11418   0.65796   0.75858   0.00000  Uiso   1.00
N318   N     0.18612   0.32097   0.54065   0.00000  Uiso   1.00
N319   N     0.82709   0.35628   0.63745   0.00000  Uiso   1.00
N320   N     0.09805   0.78410   0.72172   0.00000  Uiso   1.00
N321   N     0.16999   0.44711   0.50379   0.00000  Uiso   1.00
N322   N     0.81095   0.48242   0.60059   0.00000  Uiso   1.00
C323   C     0.08288   0.06847   0.35070   0.00000  Uiso   1.00
C324   C     0.10035   0.98191   0.32586   0.00000  Uiso   1.00
C325   C     0.12923   0.98420   0.28928   0.00000  Uiso   1.00
C326   C     0.14128   0.89726   0.27131   0.00000  Uiso   1.00
C327   C     0.17091   0.77596   0.23001   0.00000  Uiso   1.00
C328   C     0.11055   0.05441   0.39157   0.00000  Uiso   1.00
C329   C     0.14800   0.11766   0.41023   0.00000  Uiso   1.00
C330   C     0.16864   0.09175   0.44758   0.00000  Uiso   1.00
C331   C     0.21407   0.08304   0.50829   0.00000  Uiso   1.00
C332   C     0.01722   0.06047   0.35739   0.00000  Uiso   1.00
C333   C     0.97619   0.12884   0.34733   0.00000  Uiso   1.00
C334   C     0.91825   0.10804   0.35592   0.00000  Uiso   1.00
C335   C     0.81878   0.10874   0.36358   0.00000  Uiso   1.00
C336   C     0.05293   0.90999   0.38384   0.00000  Uiso   1.00
C337   C     0.08408   0.89584   0.34386   0.00000  Uiso   1.00
C338   C     0.09609   0.80887   0.32594   0.00000  Uiso   1.00
C339   C     0.12499   0.81103   0.28934   0.00000  Uiso   1.00
C340   C     0.09428   0.96834   0.40957   0.00000  Uiso   1.00
C341   C     0.11487   0.94233   0.44689   0.00000  Uiso   1.00
C342   C     0.15234   0.00552   0.46561   0.00000  Uiso   1.00
C343   C     0.00095   0.97440   0.37539   0.00000  Uiso   1.00
C344   C     0.94306   0.95350   0.38400   0.00000  Uiso   1.00
C345   C     0.90196   0.02181   0.37395   0.00000  Uiso   1.00
H346   H     0.09554   0.13548   0.33669   0.00000  Uiso   1.00
H347   H     0.14181   0.05083   0.27536   0.00000  Uiso   1.00
H348   H     0.16057   0.18427   0.39629   0.00000  Uiso   1.00
H349   H     0.98880   0.19544   0.33341   0.00000  Uiso   1.00
H350   H     0.18596   0.91902   0.21531   0.00000  Uiso   1.00
H351   H     0.22551   0.20041   0.47031   0.00000  Uiso   1.00
H352   H     0.86328   0.22396   0.33770   0.00000  Uiso   1.00
H353   H     0.04026   0.84298   0.39786   0.00000  Uiso   1.00
H354   H     0.08350   0.74227   0.33988   0.00000  Uiso   1.00
H355   H     0.10227   0.87572   0.46081   0.00000  Uiso   1.00
H356   H     0.93049   0.88688   0.39793   0.00000  Uiso   1.00
H357   H     0.13863   0.66858   0.26768   0.00000  Uiso   1.00
H358   H     0.17818   0.94997   0.52268   0.00000  Uiso   1.00
H359   H     0.81596   0.97352   0.39007   0.00000  Uiso   1.00
O360   O     0.19175   0.73283   0.20226   0.00000  Uiso   1.00
O361   O     0.24363   0.10201   0.53681   0.00000  Uiso   1.00
O362   O     0.76840   0.13290   0.36283   0.00000  Uiso   1.00
N363   N     0.16888   0.87390   0.23559   0.00000  Uiso   1.00
N364   N     0.20586   0.13697   0.47399   0.00000  Uiso   1.00
N365   N     0.86721   0.15900   0.35002   0.00000  Uiso   1.00
N366   N     0.14341   0.73914   0.26377   0.00000  Uiso   1.00
N367   N     0.18039   0.00221   0.50217   0.00000  Uiso   1.00
N368   N     0.84174   0.02424   0.37820   0.00000  Uiso   1.00
C369   C     0.58525   0.06758   0.14903   0.00000  Uiso   1.00
C370   C     0.60249   0.98021   0.17325   0.00000  Uiso   1.00
C371   C     0.63246   0.98118   0.20912   0.00000  Uiso   1.00
C372   C     0.64409   0.89367   0.22660   0.00000  Uiso   1.00
C373   C     0.67359   0.77098   0.26690   0.00000  Uiso   1.00
C374   C     0.61155   0.05327   0.10748   0.00000  Uiso   1.00
C375   C     0.64913   0.11567   0.08803   0.00000  Uiso   1.00
C376   C     0.66837   0.08966   0.05014   0.00000  Uiso   1.00
C377   C     0.71189   0.08043   0.98831   0.00000  Uiso   1.00
C378   C     0.51934   0.06159   0.14394   0.00000  Uiso   1.00
C379   C     0.47939   0.13099   0.15515   0.00000  Uiso   1.00
C380   C     0.42100   0.11200   0.14794   0.00000  Uiso   1.00
C381   C     0.32135   0.11568   0.14273   0.00000  Uiso   1.00
C382   C     0.55260   0.91044   0.11631   0.00000  Uiso   1.00
C383   C     0.58476   0.89486   0.15548   0.00000  Uiso   1.00
C384   C     0.59634   0.80732   0.17291   0.00000  Uiso   1.00
C385   C     0.62632   0.80816   0.20879   0.00000  Uiso   1.00
C386   C     0.59382   0.96792   0.08970   0.00000  Uiso   1.00
C387   C     0.61300   0.94181   0.05183   0.00000  Uiso   1.00
C388   C     0.65060   0.00415   0.03233   0.00000  Uiso   1.00
C389   C     0.50161   0.97623   0.12616   0.00000  Uiso   1.00
C390   C     0.44327   0.95713   0.11894   0.00000  Uiso   1.00
C391   C     0.40323   0.02649   0.13013   0.00000  Uiso   1.00
H392   H     0.59906   0.13403   0.16287   0.00000  Uiso   1.00
H393   H     0.64618   0.04725   0.22286   0.00000  Uiso   1.00
H394   H     0.66284   0.18172   0.10180   0.00000  Uiso   1.00
H395   H     0.49313   0.19703   0.16890   0.00000  Uiso   1.00
H396   H     0.69063   0.91338   0.28153   0.00000  Uiso   1.00
H397   H     0.72573   0.19694   0.02625   0.00000  Uiso   1.00
H398   H     0.36786   0.22924   0.16775   0.00000  Uiso   1.00
H399   H     0.53880   0.84399   0.10247   0.00000  Uiso   1.00
H400   H     0.58261   0.74128   0.15915   0.00000  Uiso   1.00
H401   H     0.59927   0.87576   0.03808   0.00000  Uiso   1.00
H402   H     0.42956   0.89107   0.10518   0.00000  Uiso   1.00
H403   H     0.63904   0.66505   0.22981   0.00000  Uiso   1.00
H404   H     0.67414   0.94861   0.97453   0.00000  Uiso   1.00
H405   H     0.31627   0.98091   0.11603   0.00000  Uiso   1.00
O406   O     0.69476   0.72689   0.29404   0.00000  Uiso   1.00
O407   O     0.74080   0.09891   0.95912   0.00000  Uiso   1.00
O408   O     0.27129   0.14129   0.14477   0.00000  Uiso   1.00
N409   N     0.67246   0.86904   0.26158   0.00000  Uiso   1.00
N410   N     0.70529   0.13414   0.02291   0.00000  Uiso   1.00
N411   N     0.37071   0.16435   0.15519   0.00000  Uiso   1.00
N412   N     0.64470   0.73541   0.23376   0.00000  Uiso   1.00
N413   N     0.67752   0.00051   0.99509   0.00000  Uiso   1.00
N414   N     0.34295   0.03072   0.12737   0.00000  Uiso   1.00
C415   C     0.54138   0.43325   0.85126   0.00000  Uiso   1.00
C416   C     0.55702   0.52511   0.82940   0.00000  Uiso   1.00
C417   C     0.57785   0.53158   0.79045   0.00000  Uiso   1.00
C418   C     0.58959   0.62218   0.77591   0.00000  Uiso   1.00
C419   C     0.61524   0.75246   0.73838   0.00000  Uiso   1.00
C420   C     0.57784   0.43255   0.88917   0.00000  Uiso   1.00
C421   C     0.61617   0.36118   0.90048   0.00000  Uiso   1.00
C422   C     0.64542   0.37385   0.93625   0.00000  Uiso   1.00
C423   C     0.70336   0.36039   0.99153   0.00000  Uiso   1.00
C424   C     0.47820   0.44448   0.86498   0.00000  Uiso   1.00
C425   C     0.43274   0.38314   0.85595   0.00000  Uiso   1.00
C426   C     0.37811   0.40584   0.87136   0.00000  Uiso   1.00
C427   C     0.28134   0.41091   0.88908   0.00000  Uiso   1.00
C428   C     0.52520   0.58264   0.89470   0.00000  Uiso   1.00
C429   C     0.54823   0.60625   0.85299   0.00000  Uiso   1.00
C430   C     0.55994   0.69686   0.83850   0.00000  Uiso   1.00
C431   C     0.58078   0.70346   0.79954   0.00000  Uiso   1.00
C432   C     0.56905   0.51368   0.91276   0.00000  Uiso   1.00
C433   C     0.59826   0.52646   0.94853   0.00000  Uiso   1.00
C434   C     0.63662   0.45514   0.95989   0.00000  Uiso   1.00
C435   C     0.46941   0.52562   0.88857   0.00000  Uiso   1.00
C436   C     0.41484   0.54842   0.90400   0.00000  Uiso   1.00
C437   C     0.36930   0.48713   0.89500   0.00000  Uiso   1.00
H438   H     0.54823   0.37008   0.83290   0.00000  Uiso   1.00
H439   H     0.58465   0.46877   0.77220   0.00000  Uiso   1.00
H440   H     0.62295   0.29840   0.88222   0.00000  Uiso   1.00
H441   H     0.43956   0.32035   0.83769   0.00000  Uiso   1.00
H442   H     0.62117   0.61397   0.71532   0.00000  Uiso   1.00
H443   H     0.70192   0.25470   0.94730   0.00000  Uiso   1.00
H444   H     0.31520   0.30100   0.85341   0.00000  Uiso   1.00
H445   H     0.51836   0.64581   0.91306   0.00000  Uiso   1.00
H446   H     0.55313   0.75964   0.85677   0.00000  Uiso   1.00
H447   H     0.59144   0.58926   0.96678   0.00000  Uiso   1.00
H448   H     0.40805   0.61121   0.92226   0.00000  Uiso   1.00
H449   H     0.59560   0.85004   0.78396   0.00000  Uiso   1.00
H450   H     0.67635   0.49078   0.01593   0.00000  Uiso   1.00
H451   H     0.28963   0.53708   0.92205   0.00000  Uiso   1.00
O452   O     0.63182   0.80190   0.71117   0.00000  Uiso   1.00
O453   O     0.73775   0.33055   0.01551   0.00000  Uiso   1.00
O454   O     0.23039   0.39130   0.89233   0.00000  Uiso   1.00
N455   N     0.61037   0.65391   0.73920   0.00000  Uiso   1.00
N456   N     0.68587   0.31802   0.95608   0.00000  Uiso   1.00
N457   N     0.32433   0.36129   0.86831   0.00000  Uiso   1.00
N458   N     0.59660   0.78094   0.77613   0.00000  Uiso   1.00
N459   N     0.67211   0.44506   0.99301   0.00000  Uiso   1.00
N460   N     0.31056   0.48833   0.90524   0.00000  Uiso   1.00
C461   C     0.45613   0.93399   0.35118   0.00000  Uiso   1.00
C462   C     0.44070   0.02654   0.32993   0.00000  Uiso   1.00
C463   C     0.41874   0.03410   0.29154   0.00000  Uiso   1.00
C464   C     0.40743   0.12518   0.27751   0.00000  Uiso   1.00
C465   C     0.38188   0.25663   0.24095   0.00000  Uiso   1.00
C466   C     0.42087   0.93368   0.39000   0.00000  Uiso   1.00
C467   C     0.38223   0.86314   0.40210   0.00000  Uiso   1.00
C468   C     0.35423   0.87604   0.43863   0.00000  Uiso   1.00
C469   C     0.29792   0.86328   0.49533   0.00000  Uiso   1.00
C470   C     0.51982   0.94342   0.36331   0.00000  Uiso   1.00
C471   C     0.56438   0.88105   0.35299   0.00000  Uiso   1.00
C472   C     0.61969   0.90215   0.36707   0.00000  Uiso   1.00
C473   C     0.71701   0.90450   0.38234   0.00000  Uiso   1.00
C474   C     0.47511   0.08233   0.39453   0.00000  Uiso   1.00
C475   C     0.45101   0.10711   0.35348   0.00000  Uiso   1.00
C476   C     0.43973   0.19822   0.33950   0.00000  Uiso   1.00
C477   C     0.41775   0.20590   0.30110   0.00000  Uiso   1.00
C478   C     0.43117   0.01424   0.41354   0.00000  Uiso   1.00
C479   C     0.40322   0.02726   0.45006   0.00000  Uiso   1.00
C480   C     0.36455   0.95676   0.46222   0.00000  Uiso   1.00
C481   C     0.53013   0.02399   0.38686   0.00000  Uiso   1.00
C482   C     0.58537   0.04518   0.40095   0.00000  Uiso   1.00
C483   C     0.63001   0.98286   0.39066   0.00000  Uiso   1.00
H484   H     0.44811   0.87126   0.33285   0.00000  Uiso   1.00
H485   H     0.41076   0.97172   0.27333   0.00000  Uiso   1.00
H486   H     0.37427   0.80079   0.38388   0.00000  Uiso   1.00
H487   H     0.55639   0.81871   0.33477   0.00000  Uiso   1.00
H488   H     0.37389   0.11863   0.21774   0.00000  Uiso   1.00
H489   H     0.29695   0.75819   0.45083   0.00000  Uiso   1.00
H490   H     0.68099   0.79598   0.34729   0.00000  Uiso   1.00
H491   H     0.48313   0.14506   0.41286   0.00000  Uiso   1.00
H492   H     0.44771   0.26055   0.35773   0.00000  Uiso   1.00
H493   H     0.41121   0.08961   0.46828   0.00000  Uiso   1.00
H494   H     0.59333   0.10753   0.41917   0.00000  Uiso   1.00
H495   H     0.40387   0.35306   0.28624   0.00000  Uiso   1.00
H496   H     0.32694   0.99261   0.51934   0.00000  Uiso   1.00
H497   H     0.71097   0.03040   0.41579   0.00000  Uiso   1.00
O498   O     0.36493   0.30688   0.21428   0.00000  Uiso   1.00
O499   O     0.26400   0.83398   0.52010   0.00000  Uiso   1.00
O500   O     0.76784   0.88355   0.38425   0.00000  Uiso   1.00
N501   N     0.38582   0.15796   0.24142   0.00000  Uiso   1.00
N502   N     0.31388   0.82097   0.45935   0.00000  Uiso   1.00
N503   N     0.67291   0.85628   0.36255   0.00000  Uiso   1.00
N504   N     0.40195   0.28410   0.27828   0.00000  Uiso   1.00
N505   N     0.33001   0.94711   0.49621   0.00000  Uiso   1.00
N506   N     0.68905   0.98242   0.39941   0.00000  Uiso   1.00
C507   C     0.41712   0.56847   0.64930   0.00000  Uiso   1.00
C508   C     0.39965   0.48191   0.67414   0.00000  Uiso   1.00
C509   C     0.37077   0.48420   0.71072   0.00000  Uiso   1.00
C510   C     0.35872   0.39726   0.72869   0.00000  Uiso   1.00
C511   C     0.32909   0.27596   0.76999   0.00000  Uiso   1.00
C512   C     0.38945   0.55441   0.60843   0.00000  Uiso   1.00
C513   C     0.35200   0.61766   0.58977   0.00000  Uiso   1.00
C514   C     0.33136   0.59175   0.55242   0.00000  Uiso   1.00
C515   C     0.28593   0.58304   0.49171   0.00000  Uiso   1.00
C516   C     0.48278   0.56047   0.64261   0.00000  Uiso   1.00
C517   C     0.52381   0.62884   0.65267   0.00000  Uiso   1.00
C518   C     0.58175   0.60804   0.64408   0.00000  Uiso   1.00
C519   C     0.68122   0.60874   0.63642   0.00000  Uiso   1.00
C520   C     0.44707   0.40999   0.61616   0.00000  Uiso   1.00
C521   C     0.41592   0.39584   0.65614   0.00000  Uiso   1.00
C522   C     0.40391   0.30887   0.67406   0.00000  Uiso   1.00
C523   C     0.37501   0.31103   0.71066   0.00000  Uiso   1.00
C524   C     0.40572   0.46834   0.59043   0.00000  Uiso   1.00
C525   C     0.38513   0.44233   0.55311   0.00000  Uiso   1.00
C526   C     0.34766   0.50552   0.53439   0.00000  Uiso   1.00
C527   C     0.49905   0.47440   0.62461   0.00000  Uiso   1.00
C528   C     0.55694   0.45350   0.61600   0.00000  Uiso   1.00
C529   C     0.59804   0.52181   0.62605   0.00000  Uiso   1.00
H530   H     0.40446   0.63548   0.66331   0.00000  Uiso   1.00
H531   H     0.35819   0.55083   0.72464   0.00000  Uiso   1.00
H532   H     0.33943   0.68427   0.60371   0.00000  Uiso   1.00
H533   H     0.51120   0.69544   0.66659   0.00000  Uiso   1.00
H534   H     0.31404   0.41902   0.78469   0.00000  Uiso   1.00
H535   H     0.27449   0.70041   0.52969   0.00000  Uiso   1.00
H536   H     0.63672   0.72396   0.66230   0.00000  Uiso   1.00
H537   H     0.45974   0.34298   0.60214   0.00000  Uiso   1.00
H538   H     0.41650   0.24227   0.66012   0.00000  Uiso   1.00
H539   H     0.39773   0.37572   0.53919   0.00000  Uiso   1.00
H540   H     0.56951   0.38688   0.60207   0.00000  Uiso   1.00
H541   H     0.36137   0.16858   0.73232   0.00000  Uiso   1.00
H542   H     0.32182   0.44997   0.47732   0.00000  Uiso   1.00
H543   H     0.68404   0.47352   0.60993   0.00000  Uiso   1.00
O544   O     0.30825   0.23283   0.79774   0.00000  Uiso   1.00
O545   O     0.25637   0.60201   0.46319   0.00000  Uiso   1.00
O546   O     0.73160   0.63290   0.63717   0.00000  Uiso   1.00
N547   N     0.33112   0.37390   0.76441   0.00000  Uiso   1.00
N548   N     0.29414   0.63697   0.52601   0.00000  Uiso   1.00
N549   N     0.63279   0.65900   0.64998   0.00000  Uiso   1.00
N550   N     0.35659   0.23914   0.73623   0.00000  Uiso   1.00
N551   N     0.31961   0.50221   0.49783   0.00000  Uiso   1.00
N552   N     0.65826   0.52424   0.62180   0.00000  Uiso   1.00
C553   C     0.08525   0.56758   0.14903   0.00000  Uiso   1.00
C554   C     0.10249   0.48021   0.17325   0.00000  Uiso   1.00
C555   C     0.13246   0.48118   0.20912   0.00000  Uiso   1.00
C556   C     0.14409   0.39367   0.22660   0.00000  Uiso   1.00
C557   C     0.17359   0.27098   0.26690   0.00000  Uiso   1.00
C558   C     0.11155   0.55327   0.10748   0.00000  Uiso   1.00
C559   C     0.14913   0.61567   0.08803   0.00000  Uiso   1.00
C560   C     0.16837   0.58966   0.05014   0.00000  Uiso   1.00
C561   C     0.21189   0.58043   0.98831   0.00000  Uiso   1.00
C562   C     0.01934   0.56159   0.14394   0.00000  Uiso   1.00
C563   C     0.97939   0.63099   0.15515   0.00000  Uiso   1.00
C564   C     0.92100   0.61200   0.14794   0.00000  Uiso   1.00
C565   C     0.82135   0.61568   0.14273   0.00000  Uiso   1.00
C566   C     0.05260   0.41044   0.11631   0.00000  Uiso   1.00
C567   C     0.08476   0.39486   0.15548   0.00000  Uiso   1.00
C568   C     0.09634   0.30732   0.17291   0.00000  Uiso   1.00
C569   C     0.12632   0.30816   0.20879   0.00000  Uiso   1.00
C570   C     0.09382   0.46792   0.08970   0.00000  Uiso   1.00
C571   C     0.11300   0.44181   0.05183   0.00000  Uiso   1.00
C572   C     0.15060   0.50415   0.03233   0.00000  Uiso   1.00
C573   C     0.00161   0.47623   0.12616   0.00000  Uiso   1.00
C574   C     0.94327   0.45713   0.11894   0.00000  Uiso   1.00
C575   C     0.90323   0.52649   0.13013   0.00000  Uiso   1.00
H576   H     0.09906   0.63403   0.16287   0.00000  Uiso   1.00
H577   H     0.14618   0.54725   0.22286   0.00000  Uiso   1.00
H578   H     0.16284   0.68172   0.10180   0.00000  Uiso   1.00
H579   H     0.99313   0.69703   0.16890   0.00000  Uiso   1.00
H580   H     0.19063   0.41338   0.28153   0.00000  Uiso   1.00
H581   H     0.22573   0.69694   0.02625   0.00000  Uiso   1.00
H582   H     0.86786   0.72924   0.16775   0.00000  Uiso   1.00
H583   H     0.03880   0.34399   0.10247   0.00000  Uiso   1.00
H584   H     0.08261   0.24128   0.15915   0.00000  Uiso   1.00
H585   H     0.09927   0.37576   0.03808   0.00000  Uiso   1.00
H586   H     0.92956   0.39107   0.10518   0.00000  Uiso   1.00
H587   H     0.13904   0.16505   0.22981   0.00000  Uiso   1.00
H588   H     0.17414   0.44861   0.97453   0.00000  Uiso   1.00
H589   H     0.81627   0.48091   0.11603   0.00000  Uiso   1.00
O590   O     0.19476   0.22689   0.29404   0.00000  Uiso   1.00
O591   O     0.24080   0.59891   0.95912   0.00000  Uiso   1.00
O592   O     0.77129   0.64129   0.14477   0.00000  Uiso   1.00
N593   N     0.17246   0.36904   0.26158   0.00000  Uiso   1.00
N594   N     0.20529   0.63414   0.02291   0.00000  Uiso   1.00
N595   N     0.87071   0.66435   0.15519   0.00000  Uiso   1.00
N596   N     0.14470   0.23541   0.23376   0.00000  Uiso   1.00
N597   N     0.17752   0.50051   0.99509   0.00000  Uiso   1.00
N598   N     0.84295   0.53072   0.12737   0.00000  Uiso   1.00
C599   C     0.04138   0.93325   0.85126   0.00000  Uiso   1.00
C600   C     0.05702   0.02511   0.82940   0.00000  Uiso   1.00
C601   C     0.07785   0.03158   0.79045   0.00000  Uiso   1.00
C602   C     0.08959   0.12218   0.77591   0.00000  Uiso   1.00
C603   C     0.11524   0.25246   0.73838   0.00000  Uiso   1.00
C604   C     0.07784   0.93255   0.88917   0.00000  Uiso   1.00
C605   C     0.11617   0.86118   0.90048   0.00000  Uiso   1.00
C606   C     0.14542   0.87385   0.93625   0.00000  Uiso   1.00
C607   C     0.20336   0.86039   0.99153   0.00000  Uiso   1.00
C608   C     0.97820   0.94448   0.86498   0.00000  Uiso   1.00
C609   C     0.93274   0.88314   0.85595   0.00000  Uiso   1.00
C610   C     0.87811   0.90584   0.87136   0.00000  Uiso   1.00
C611   C     0.78134   0.91091   0.88908   0.00000  Uiso   1.00
C612   C     0.02520   0.08264   0.89470   0.00000  Uiso   1.00
C613   C     0.04823   0.10625   0.85299   0.00000  Uiso   1.00
C614   C     0.05994   0.19686   0.83850   0.00000  Uiso   1.00
C615   C     0.08078   0.20346   0.79954   0.00000  Uiso   1.00
C616   C     0.06905   0.01368   0.91276   0.00000  Uiso   1.00
C617   C     0.09826   0.02646   0.94853   0.00000  Uiso   1.00
C618   C     0.13662   0.95514   0.95989   0.00000  Uiso   1.00
C619   C     0.96941   0.02562   0.88857   0.00000  Uiso   1.00
C620   C     0.91484   0.04842   0.90400   0.00000  Uiso   1.00
C621   C     0.86930   0.98713   0.89500   0.00000  Uiso   1.00
H622   H     0.04823   0.87008   0.83290   0.00000  Uiso   1.00
H623   H     0.08465   0.96877   0.77220   0.00000  Uiso   1.00
H624   H     0.12295   0.79840   0.88222   0.00000  Uiso   1.00
H625   H     0.93956   0.82035   0.83769   0.00000  Uiso   1.00
H626   H     0.12117   0.11397   0.71532   0.00000  Uiso   1.00
H627   H     0.20192   0.75470   0.94730   0.00000  Uiso   1.00
H628   H     0.81520   0.80100   0.85341   0.00000  Uiso   1.00
H629   H     0.01836   0.14581   0.91306   0.00000  Uiso   1.00
H630   H     0.05313   0.25964   0.85677   0.00000  Uiso   1.00
H631   H     0.09144   0.08926   0.96678   0.00000  Uiso   1.00
H632   H     0.90805   0.11121   0.92226   0.00000  Uiso   1.00
H633   H     0.09560   0.35004   0.78396   0.00000  Uiso   1.00
H634   H     0.17635   0.99078   0.01593   0.00000  Uiso   1.00
H635   H     0.78963   0.03708   0.92205   0.00000  Uiso   1.00
O636   O     0.13182   0.30190   0.71117   0.00000  Uiso   1.00
O637   O     0.23775   0.83055   0.01551   0.00000  Uiso   1.00
O638   O     0.73039   0.89130   0.89233   0.00000  Uiso   1.00
N639   N     0.11037   0.15391   0.73920   0.00000  Uiso   1.00
N640   N     0.18587   0.81802   0.95608   0.00000  Uiso   1.00
N641   N     0.82433   0.86129   0.86831   0.00000  Uiso   1.00
N642   N     0.09660   0.28094   0.77613   0.00000  Uiso   1.00
N643   N     0.17211   0.94506   0.99301   0.00000  Uiso   1.00
N644   N     0.81056   0.98833   0.90524   0.00000  Uiso   1.00
C645   C     0.95613   0.43399   0.35118   0.00000  Uiso   1.00
C646   C     0.94070   0.52654   0.32993   0.00000  Uiso   1.00
C647   C     0.91874   0.53410   0.29154   0.00000  Uiso   1.00
C648   C     0.90743   0.62518   0.27751   0.00000  Uiso   1.00
C649   C     0.88188   0.75663   0.24095   0.00000  Uiso   1.00
C650   C     0.92087   0.43368   0.39000   0.00000  Uiso   1.00
C651   C     0.88223   0.36314   0.40210   0.00000  Uiso   1.00
C652   C     0.85423   0.37604   0.43863   0.00000  Uiso   1.00
C653   C     0.79792   0.36328   0.49533   0.00000  Uiso   1.00
C654   C     0.01982   0.44342   0.36331   0.00000  Uiso   1.00
C655   C     0.06438   0.38105   0.35299   0.00000  Uiso   1.00
C656   C     0.11969   0.40215   0.36707   0.00000  Uiso   1.00
C657   C     0.21701   0.40450   0.38234   0.00000  Uiso   1.00
C658   C     0.97511   0.58233   0.39453   0.00000  Uiso   1.00
C659   C     0.95101   0.60711   0.35348   0.00000  Uiso   1.00
C660   C     0.93973   0.69822   0.33950   0.00000  Uiso   1.00
C661   C     0.91775   0.70590   0.30110   0.00000  Uiso   1.00
C662   C     0.93117   0.51424   0.41354   0.00000  Uiso   1.00
C663   C     0.90322   0.52726   0.45006   0.00000  Uiso   1.00
C664   C     0.86455   0.45676   0.46222   0.00000  Uiso   1.00
C665   C     0.03013   0.52399   0.38686   0.00000  Uiso   1.00
C666   C     0.08537   0.54518   0.40095   0.00000  Uiso   1.00
C667   C     0.13001   0.48286   0.39066   0.00000  Uiso   1.00
H668   H     0.94811   0.37126   0.33285   0.00000  Uiso   1.00
H669   H     0.91076   0.47172   0.27333   0.00000  Uiso   1.00
H670   H     0.87427   0.30079   0.38388   0.00000  Uiso   1.00
H671   H     0.05639   0.31871   0.33477   0.00000  Uiso   1.00
H672   H     0.87389   0.61863   0.21774   0.00000  Uiso   1.00
H673   H     0.79695   0.25819   0.45083   0.00000  Uiso   1.00
H674   H     0.18099   0.29598   0.34729   0.00000  Uiso   1.00
H675   H     0.98313   0.64506   0.41286   0.00000  Uiso   1.00
H676   H     0.94771   0.76055   0.35773   0.00000  Uiso   1.00
H677   H     0.91121   0.58961   0.46828   0.00000  Uiso   1.00
H678   H     0.09333   0.60753   0.41917   0.00000  Uiso   1.00
H679   H     0.90387   0.85306   0.28624   0.00000  Uiso   1.00
H680   H     0.82694   0.49261   0.51934   0.00000  Uiso   1.00
H681   H     0.21097   0.53040   0.41579   0.00000  Uiso   1.00
O682   O     0.86493   0.80688   0.21428   0.00000  Uiso   1.00
O683   O     0.76400   0.33398   0.52010   0.00000  Uiso   1.00
O684   O     0.26784   0.38355   0.38425   0.00000  Uiso   1.00
N685   N     0.88582   0.65796   0.24142   0.00000  Uiso   1.00
N686   N     0.81388   0.32097   0.45935   0.00000  Uiso   1.00
N687   N     0.17291   0.35628   0.36255   0.00000  Uiso   1.00
N688   N     0.90195   0.78410   0.27828   0.00000  Uiso   1.00
N689   N     0.83001   0.44711   0.49621   0.00000  Uiso   1.00
N690   N     0.18905   0.48242   0.39941   0.00000  Uiso   1.00
C691   C     0.91712   0.06847   0.64930   0.00000  Uiso   1.00
C692   C     0.89965   0.98191   0.67414   0.00000  Uiso   1.00
C693   C     0.87077   0.98420   0.71072   0.00000  Uiso   1.00
C694   C     0.85872   0.89726   0.72869   0.00000  Uiso   1.00
C695   C     0.82909   0.77596   0.76999   0.00000  Uiso   1.00
C696   C     0.88945   0.05441   0.60843   0.00000  Uiso   1.00
C697   C     0.85200   0.11766   0.58977   0.00000  Uiso   1.00
C698   C     0.83136   0.09175   0.55242   0.00000  Uiso   1.00
C699   C     0.78593   0.08304   0.49171   0.00000  Uiso   1.00
C700   C     0.98278   0.06047   0.64261   0.00000  Uiso   1.00
C701   C     0.02381   0.12884   0.65267   0.00000  Uiso   1.00
C702   C     0.08175   0.10804   0.64408   0.00000  Uiso   1.00
C703   C     0.18122   0.10874   0.63642   0.00000  Uiso   1.00
C704   C     0.94707   0.90999   0.61616   0.00000  Uiso   1.00
C705   C     0.91592   0.89584   0.65614   0.00000  Uiso   1.00
C706   C     0.90391   0.80887   0.67406   0.00000  Uiso   1.00
C707   C     0.87501   0.81103   0.71066   0.00000  Uiso   1.00
C708   C     0.90572   0.96834   0.59043   0.00000  Uiso   1.00
C709   C     0.88513   0.94233   0.55311   0.00000  Uiso   1.00
C710   C     0.84766   0.00552   0.53439   0.00000  Uiso   1.00
C711   C     0.99905   0.97440   0.62461   0.00000  Uiso   1.00
C712   C     0.05694   0.95350   0.61600   0.00000  Uiso   1.00
C713   C     0.09804   0.02181   0.62605   0.00000  Uiso   1.00
H714   H     0.90446   0.13548   0.66331   0.00000  Uiso   1.00
H715   H     0.85819   0.05083   0.72464   0.00000  Uiso   1.00
H716   H     0.83943   0.18427   0.60371   0.00000  Uiso   1.00
H717   H     0.01120   0.19544   0.66659   0.00000  Uiso   1.00
H718   H     0.81404   0.91902   0.78469   0.00000  Uiso   1.00
H719   H     0.77449   0.20041   0.52969   0.00000  Uiso   1.00
H720   H     0.13672   0.22396   0.66230   0.00000  Uiso   1.00
H721   H     0.95974   0.84298   0.60214   0.00000  Uiso   1.00
H722   H     0.91650   0.74227   0.66012   0.00000  Uiso   1.00
H723   H     0.89773   0.87572   0.53919   0.00000  Uiso   1.00
H724   H     0.06951   0.88688   0.60207   0.00000  Uiso   1.00
H725   H     0.86137   0.66858   0.73232   0.00000  Uiso   1.00
H726   H     0.82182   0.94997   0.47732   0.00000  Uiso   1.00
H727   H     0.18404   0.97352   0.60993   0.00000  Uiso   1.00
O728   O     0.80825   0.73283   0.79774   0.00000  Uiso   1.00
O729   O     0.75637   0.10201   0.46319   0.00000  Uiso   1.00
O730   O     0.23160   0.13290   0.63717   0.00000  Uiso   1.00
N731   N     0.83112   0.87390   0.76441   0.00000  Uiso   1.00
N732   N     0.79414   0.13697   0.52601   0.00000  Uiso   1.00
N733   N     0.13279   0.15900   0.64998   0.00000  Uiso   1.00
N734   N     0.85659   0.73914   0.73623   0.00000  Uiso   1.00
N735   N     0.81961   0.00221   0.49783   0.00000  Uiso   1.00
N736   N     0.15826   0.02424   0.62180   0.00000  Uiso   1.00
