data_job_01217
_audit_creation_date              2018-12-19
_audit_creation_method            'Materials Studio'
_symmetry_space_group_name_H-M    'P1'
_symmetry_Int_Tables_number       1
_symmetry_cell_setting            triclinic
loop_
_symmetry_equiv_pos_as_xyz
  x,y,z
_cell_length_a                    31.9328
_cell_length_b                    31.9328
_cell_length_c                    8.8233
_cell_angle_alpha                 90.0000
_cell_angle_beta                  90.0000
_cell_angle_gamma                 90.0000
loop_
_atom_site_label
_atom_site_type_symbol
_atom_site_fract_x
_atom_site_fract_y
_atom_site_fract_z
_atom_site_U_iso_or_equiv
_atom_site_adp_type
_atom_site_occupancy
C1     C     0.37911   0.10273   0.50971   0.00000  Uiso   1.00
C2     C     0.40651   0.14161   0.49428   0.00000  Uiso   1.00
C3     C     0.43377   0.14998   0.37560   0.00000  Uiso   1.00
C4     C     0.45604   0.18727   0.38244   0.00000  Uiso   1.00
C5     C     0.49933   0.24340   0.34007   0.00000  Uiso   1.00
C6     C     0.39043   0.08317   0.66197   0.00000  Uiso   1.00
C7     C     0.40417   0.04240   0.68427   0.00000  Uiso   1.00
C8     C     0.41291   0.03049   0.83227   0.00000  Uiso   1.00
C9     C     0.43121   0.99587   0.05025   0.00000  Uiso   1.00
C10    C     0.33429   0.11859   0.52586   0.00000  Uiso   1.00
C11    C     0.30083   0.10759   0.43374   0.00000  Uiso   1.00
C12    C     0.26229   0.12549   0.46718   0.00000  Uiso   1.00
C13    C     0.19343   0.14586   0.47383   0.00000  Uiso   1.00
C14    C     0.37019   0.15407   0.73292   0.00000  Uiso   1.00
C15    C     0.40166   0.16950   0.61552   0.00000  Uiso   1.00
C16    C     0.42390   0.20679   0.62254   0.00000  Uiso   1.00
C17    C     0.45119   0.21521   0.50388   0.00000  Uiso   1.00
C18    C     0.38559   0.11105   0.78320   0.00000  Uiso   1.00
C19    C     0.39430   0.09920   0.93121   0.00000  Uiso   1.00
C20    C     0.40806   0.05843   0.95373   0.00000  Uiso   1.00
C21    C     0.32945   0.14647   0.64709   0.00000  Uiso   1.00
C22    C     0.29096   0.16439   0.68069   0.00000  Uiso   1.00
C23    C     0.25744   0.15343   0.58863   0.00000  Uiso   1.00
H24    H     0.38289   0.08101   0.41534   0.00000  Uiso   1.00
H25    H     0.43751   0.12839   0.28180   0.00000  Uiso   1.00
H26    H     0.40792   0.02082   0.59043   0.00000  Uiso   1.00
H27    H     0.30459   0.08601   0.33994   0.00000  Uiso   1.00
H28    H     0.49595   0.19321   0.18725   0.00000  Uiso   1.00
H29    H     0.43353   0.96639   0.83800   0.00000  Uiso   1.00
H30    H     0.21564   0.10384   0.30980   0.00000  Uiso   1.00
H31    H     0.36642   0.17578   0.82731   0.00000  Uiso   1.00
H32    H     0.42014   0.22836   0.71638   0.00000  Uiso   1.00
H33    H     0.39055   0.12079   0.02500   0.00000  Uiso   1.00
H34    H     0.28722   0.18597   0.77451   0.00000  Uiso   1.00
H35    H     0.48185   0.27435   0.53997   0.00000  Uiso   1.00
H36    H     0.41944   0.04753   0.19072   0.00000  Uiso   1.00
H37    H     0.20155   0.18498   0.66252   0.00000  Uiso   1.00
O38    O     0.52454   0.26665   0.28322   0.00000  Uiso   1.00
O39    O     0.44265   0.96907   0.13699   0.00000  Uiso   1.00
O40    O     0.15679   0.14940   0.44399   0.00000  Uiso   1.00
N41    N     0.48525   0.20509   0.28547   0.00000  Uiso   1.00
N42    N     0.42690   0.99303   0.89388   0.00000  Uiso   1.00
N43    N     0.22319   0.12153   0.40008   0.00000  Uiso   1.00
N44    N     0.47766   0.24875   0.47526   0.00000  Uiso   1.00
N45    N     0.41932   0.03670   0.08368   0.00000  Uiso   1.00
N46    N     0.21561   0.16519   0.58988   0.00000  Uiso   1.00
C47    C     0.87911   0.60273   0.00971   0.00000  Uiso   1.00
C48    C     0.90651   0.64161   0.99428   0.00000  Uiso   1.00
C49    C     0.93377   0.64998   0.87560   0.00000  Uiso   1.00
C50    C     0.95604   0.68727   0.88244   0.00000  Uiso   1.00
C51    C     0.99933   0.74340   0.84007   0.00000  Uiso   1.00
C52    C     0.89043   0.58317   0.16197   0.00000  Uiso   1.00
C53    C     0.90417   0.54240   0.18427   0.00000  Uiso   1.00
C54    C     0.91291   0.53049   0.33227   0.00000  Uiso   1.00
C55    C     0.93121   0.49587   0.55025   0.00000  Uiso   1.00
C56    C     0.83429   0.61859   0.02586   0.00000  Uiso   1.00
C57    C     0.80083   0.60759   0.93374   0.00000  Uiso   1.00
C58    C     0.76229   0.62549   0.96718   0.00000  Uiso   1.00
C59    C     0.69343   0.64586   0.97383   0.00000  Uiso   1.00
C60    C     0.87019   0.65407   0.23292   0.00000  Uiso   1.00
C61    C     0.90166   0.66950   0.11552   0.00000  Uiso   1.00
C62    C     0.92390   0.70679   0.12254   0.00000  Uiso   1.00
C63    C     0.95119   0.71521   0.00388   0.00000  Uiso   1.00
C64    C     0.88559   0.61105   0.28320   0.00000  Uiso   1.00
C65    C     0.89430   0.59920   0.43121   0.00000  Uiso   1.00
C66    C     0.90806   0.55843   0.45373   0.00000  Uiso   1.00
C67    C     0.82945   0.64647   0.14709   0.00000  Uiso   1.00
C68    C     0.79096   0.66439   0.18069   0.00000  Uiso   1.00
C69    C     0.75744   0.65343   0.08863   0.00000  Uiso   1.00
H70    H     0.88289   0.58101   0.91534   0.00000  Uiso   1.00
H71    H     0.93751   0.62839   0.78180   0.00000  Uiso   1.00
H72    H     0.90792   0.52082   0.09043   0.00000  Uiso   1.00
H73    H     0.80459   0.58601   0.83994   0.00000  Uiso   1.00
H74    H     0.99595   0.69321   0.68725   0.00000  Uiso   1.00
H75    H     0.93353   0.46639   0.33800   0.00000  Uiso   1.00
H76    H     0.71564   0.60384   0.80980   0.00000  Uiso   1.00
H77    H     0.86642   0.67578   0.32731   0.00000  Uiso   1.00
H78    H     0.92014   0.72836   0.21638   0.00000  Uiso   1.00
H79    H     0.89055   0.62079   0.52500   0.00000  Uiso   1.00
H80    H     0.78722   0.68597   0.27451   0.00000  Uiso   1.00
H81    H     0.98185   0.77435   0.03997   0.00000  Uiso   1.00
H82    H     0.91944   0.54753   0.69072   0.00000  Uiso   1.00
H83    H     0.70155   0.68498   0.16252   0.00000  Uiso   1.00
O84    O     0.02454   0.76665   0.78322   0.00000  Uiso   1.00
O85    O     0.94265   0.46907   0.63699   0.00000  Uiso   1.00
O86    O     0.65679   0.64940   0.94399   0.00000  Uiso   1.00
N87    N     0.98525   0.70509   0.78547   0.00000  Uiso   1.00
N88    N     0.92690   0.49303   0.39388   0.00000  Uiso   1.00
N89    N     0.72319   0.62153   0.90008   0.00000  Uiso   1.00
N90    N     0.97766   0.74875   0.97526   0.00000  Uiso   1.00
N91    N     0.91932   0.53670   0.58368   0.00000  Uiso   1.00
N92    N     0.71561   0.66519   0.08988   0.00000  Uiso   1.00
C93    C     0.12089   0.39727   0.00971   0.00000  Uiso   1.00
C94    C     0.09349   0.35839   0.99428   0.00000  Uiso   1.00
C95    C     0.06623   0.35002   0.87560   0.00000  Uiso   1.00
C96    C     0.04396   0.31273   0.88244   0.00000  Uiso   1.00
C97    C     0.00067   0.25660   0.84007   0.00000  Uiso   1.00
C98    C     0.10957   0.41683   0.16197   0.00000  Uiso   1.00
C99    C     0.09583   0.45760   0.18427   0.00000  Uiso   1.00
C100   C     0.08709   0.46951   0.33227   0.00000  Uiso   1.00
C101   C     0.06879   0.50413   0.55025   0.00000  Uiso   1.00
C102   C     0.16571   0.38141   0.02586   0.00000  Uiso   1.00
C103   C     0.19917   0.39241   0.93374   0.00000  Uiso   1.00
C104   C     0.23771   0.37451   0.96718   0.00000  Uiso   1.00
C105   C     0.30657   0.35414   0.97383   0.00000  Uiso   1.00
C106   C     0.12981   0.34593   0.23292   0.00000  Uiso   1.00
C107   C     0.09834   0.33050   0.11552   0.00000  Uiso   1.00
C108   C     0.07610   0.29321   0.12254   0.00000  Uiso   1.00
C109   C     0.04881   0.28479   0.00388   0.00000  Uiso   1.00
C110   C     0.11441   0.38895   0.28320   0.00000  Uiso   1.00
C111   C     0.10570   0.40080   0.43121   0.00000  Uiso   1.00
C112   C     0.09194   0.44157   0.45373   0.00000  Uiso   1.00
C113   C     0.17055   0.35353   0.14709   0.00000  Uiso   1.00
C114   C     0.20904   0.33561   0.18069   0.00000  Uiso   1.00
C115   C     0.24256   0.34657   0.08863   0.00000  Uiso   1.00
H116   H     0.11711   0.41899   0.91534   0.00000  Uiso   1.00
H117   H     0.06249   0.37161   0.78180   0.00000  Uiso   1.00
H118   H     0.09208   0.47918   0.09043   0.00000  Uiso   1.00
H119   H     0.19541   0.41399   0.83994   0.00000  Uiso   1.00
H120   H     0.00405   0.30679   0.68725   0.00000  Uiso   1.00
H121   H     0.06647   0.53361   0.33800   0.00000  Uiso   1.00
H122   H     0.28436   0.39616   0.80980   0.00000  Uiso   1.00
H123   H     0.13358   0.32422   0.32731   0.00000  Uiso   1.00
H124   H     0.07986   0.27164   0.21638   0.00000  Uiso   1.00
H125   H     0.10945   0.37921   0.52500   0.00000  Uiso   1.00
H126   H     0.21278   0.31403   0.27451   0.00000  Uiso   1.00
H127   H     0.01815   0.22565   0.03997   0.00000  Uiso   1.00
H128   H     0.08056   0.45247   0.69072   0.00000  Uiso   1.00
H129   H     0.29845   0.31502   0.16252   0.00000  Uiso   1.00
O130   O     0.97546   0.23335   0.78322   0.00000  Uiso   1.00
O131   O     0.05735   0.53093   0.63699   0.00000  Uiso   1.00
O132   O     0.34321   0.35060   0.94399   0.00000  Uiso   1.00
N133   N     0.01475   0.29491   0.78547   0.00000  Uiso   1.00
N134   N     0.07310   0.50697   0.39388   0.00000  Uiso   1.00
N135   N     0.27681   0.37847   0.90008   0.00000  Uiso   1.00
N136   N     0.02234   0.25125   0.97526   0.00000  Uiso   1.00
N137   N     0.08068   0.46330   0.58368   0.00000  Uiso   1.00
N138   N     0.28439   0.33481   0.08988   0.00000  Uiso   1.00
C139   C     0.62089   0.89727   0.50971   0.00000  Uiso   1.00
C140   C     0.59349   0.85839   0.49428   0.00000  Uiso   1.00
C141   C     0.56623   0.85002   0.37560   0.00000  Uiso   1.00
C142   C     0.54396   0.81273   0.38244   0.00000  Uiso   1.00
C143   C     0.50067   0.75660   0.34007   0.00000  Uiso   1.00
C144   C     0.60957   0.91683   0.66197   0.00000  Uiso   1.00
C145   C     0.59583   0.95760   0.68427   0.00000  Uiso   1.00
C146   C     0.58709   0.96951   0.83227   0.00000  Uiso   1.00
C147   C     0.56879   0.00413   0.05025   0.00000  Uiso   1.00
C148   C     0.66571   0.88141   0.52586   0.00000  Uiso   1.00
C149   C     0.69917   0.89241   0.43374   0.00000  Uiso   1.00
C150   C     0.73771   0.87451   0.46718   0.00000  Uiso   1.00
C151   C     0.80657   0.85414   0.47383   0.00000  Uiso   1.00
C152   C     0.62981   0.84593   0.73292   0.00000  Uiso   1.00
C153   C     0.59834   0.83050   0.61552   0.00000  Uiso   1.00
C154   C     0.57610   0.79321   0.62254   0.00000  Uiso   1.00
C155   C     0.54881   0.78479   0.50388   0.00000  Uiso   1.00
C156   C     0.61441   0.88895   0.78320   0.00000  Uiso   1.00
C157   C     0.60570   0.90080   0.93121   0.00000  Uiso   1.00
C158   C     0.59194   0.94157   0.95373   0.00000  Uiso   1.00
C159   C     0.67055   0.85353   0.64709   0.00000  Uiso   1.00
C160   C     0.70904   0.83561   0.68069   0.00000  Uiso   1.00
C161   C     0.74256   0.84657   0.58863   0.00000  Uiso   1.00
H162   H     0.61711   0.91899   0.41534   0.00000  Uiso   1.00
H163   H     0.56249   0.87161   0.28180   0.00000  Uiso   1.00
H164   H     0.59208   0.97918   0.59043   0.00000  Uiso   1.00
H165   H     0.69541   0.91399   0.33994   0.00000  Uiso   1.00
H166   H     0.50405   0.80679   0.18725   0.00000  Uiso   1.00
H167   H     0.56647   0.03361   0.83800   0.00000  Uiso   1.00
H168   H     0.78436   0.89616   0.30980   0.00000  Uiso   1.00
H169   H     0.63358   0.82422   0.82731   0.00000  Uiso   1.00
H170   H     0.57986   0.77164   0.71638   0.00000  Uiso   1.00
H171   H     0.60945   0.87921   0.02500   0.00000  Uiso   1.00
H172   H     0.71278   0.81403   0.77451   0.00000  Uiso   1.00
H173   H     0.51815   0.72565   0.53997   0.00000  Uiso   1.00
H174   H     0.58056   0.95247   0.19072   0.00000  Uiso   1.00
H175   H     0.79845   0.81502   0.66252   0.00000  Uiso   1.00
O176   O     0.47546   0.73335   0.28322   0.00000  Uiso   1.00
O177   O     0.55735   0.03093   0.13699   0.00000  Uiso   1.00
O178   O     0.84321   0.85060   0.44399   0.00000  Uiso   1.00
N179   N     0.51475   0.79491   0.28547   0.00000  Uiso   1.00
N180   N     0.57310   0.00697   0.89388   0.00000  Uiso   1.00
N181   N     0.77681   0.87847   0.40008   0.00000  Uiso   1.00
N182   N     0.52234   0.75125   0.47526   0.00000  Uiso   1.00
N183   N     0.58068   0.96330   0.08368   0.00000  Uiso   1.00
N184   N     0.78439   0.83481   0.58988   0.00000  Uiso   1.00
C185   C     0.89727   0.87911   0.75971   0.00000  Uiso   1.00
C186   C     0.85839   0.90651   0.74428   0.00000  Uiso   1.00
C187   C     0.85002   0.93377   0.62560   0.00000  Uiso   1.00
C188   C     0.81273   0.95604   0.63244   0.00000  Uiso   1.00
C189   C     0.75660   0.99933   0.59007   0.00000  Uiso   1.00
C190   C     0.91683   0.89043   0.91197   0.00000  Uiso   1.00
C191   C     0.95760   0.90417   0.93427   0.00000  Uiso   1.00
C192   C     0.96951   0.91291   0.08227   0.00000  Uiso   1.00
C193   C     0.00413   0.93121   0.30025   0.00000  Uiso   1.00
C194   C     0.88141   0.83429   0.77586   0.00000  Uiso   1.00
C195   C     0.89241   0.80083   0.68374   0.00000  Uiso   1.00
C196   C     0.87451   0.76229   0.71718   0.00000  Uiso   1.00
C197   C     0.85414   0.69343   0.72383   0.00000  Uiso   1.00
C198   C     0.84593   0.87019   0.98292   0.00000  Uiso   1.00
C199   C     0.83050   0.90166   0.86552   0.00000  Uiso   1.00
C200   C     0.79321   0.92390   0.87254   0.00000  Uiso   1.00
C201   C     0.78479   0.95119   0.75388   0.00000  Uiso   1.00
C202   C     0.88895   0.88559   0.03320   0.00000  Uiso   1.00
C203   C     0.90080   0.89430   0.18121   0.00000  Uiso   1.00
C204   C     0.94157   0.90806   0.20373   0.00000  Uiso   1.00
C205   C     0.85353   0.82945   0.89709   0.00000  Uiso   1.00
C206   C     0.83561   0.79096   0.93069   0.00000  Uiso   1.00
C207   C     0.84657   0.75744   0.83863   0.00000  Uiso   1.00
H208   H     0.91899   0.88289   0.66534   0.00000  Uiso   1.00
H209   H     0.87161   0.93751   0.53180   0.00000  Uiso   1.00
H210   H     0.97918   0.90792   0.84043   0.00000  Uiso   1.00
H211   H     0.91399   0.80459   0.58994   0.00000  Uiso   1.00
H212   H     0.80679   0.99595   0.43725   0.00000  Uiso   1.00
H213   H     0.03361   0.93353   0.08800   0.00000  Uiso   1.00
H214   H     0.89616   0.71564   0.55980   0.00000  Uiso   1.00
H215   H     0.82422   0.86642   0.07731   0.00000  Uiso   1.00
H216   H     0.77164   0.92014   0.96638   0.00000  Uiso   1.00
H217   H     0.87921   0.89055   0.27500   0.00000  Uiso   1.00
H218   H     0.81403   0.78722   0.02451   0.00000  Uiso   1.00
H219   H     0.72565   0.98185   0.78997   0.00000  Uiso   1.00
H220   H     0.95247   0.91944   0.44072   0.00000  Uiso   1.00
H221   H     0.81502   0.70155   0.91252   0.00000  Uiso   1.00
O222   O     0.73335   0.02454   0.53322   0.00000  Uiso   1.00
O223   O     0.03093   0.94265   0.38699   0.00000  Uiso   1.00
O224   O     0.85060   0.65679   0.69399   0.00000  Uiso   1.00
N225   N     0.79491   0.98525   0.53547   0.00000  Uiso   1.00
N226   N     0.00697   0.92690   0.14388   0.00000  Uiso   1.00
N227   N     0.87847   0.72319   0.65008   0.00000  Uiso   1.00
N228   N     0.75125   0.97766   0.72526   0.00000  Uiso   1.00
N229   N     0.96330   0.91932   0.33368   0.00000  Uiso   1.00
N230   N     0.83481   0.71561   0.83988   0.00000  Uiso   1.00
C231   C     0.39727   0.37911   0.25971   0.00000  Uiso   1.00
C232   C     0.35839   0.40651   0.24428   0.00000  Uiso   1.00
C233   C     0.35002   0.43377   0.12560   0.00000  Uiso   1.00
C234   C     0.31273   0.45604   0.13244   0.00000  Uiso   1.00
C235   C     0.25660   0.49933   0.09007   0.00000  Uiso   1.00
C236   C     0.41683   0.39043   0.41197   0.00000  Uiso   1.00
C237   C     0.45760   0.40417   0.43427   0.00000  Uiso   1.00
C238   C     0.46951   0.41291   0.58227   0.00000  Uiso   1.00
C239   C     0.50413   0.43121   0.80025   0.00000  Uiso   1.00
C240   C     0.38141   0.33429   0.27586   0.00000  Uiso   1.00
C241   C     0.39241   0.30083   0.18374   0.00000  Uiso   1.00
C242   C     0.37451   0.26229   0.21718   0.00000  Uiso   1.00
C243   C     0.35414   0.19343   0.22383   0.00000  Uiso   1.00
C244   C     0.34593   0.37019   0.48292   0.00000  Uiso   1.00
C245   C     0.33050   0.40166   0.36552   0.00000  Uiso   1.00
C246   C     0.29321   0.42390   0.37254   0.00000  Uiso   1.00
C247   C     0.28479   0.45119   0.25388   0.00000  Uiso   1.00
C248   C     0.38895   0.38559   0.53320   0.00000  Uiso   1.00
C249   C     0.40080   0.39430   0.68121   0.00000  Uiso   1.00
C250   C     0.44157   0.40806   0.70373   0.00000  Uiso   1.00
C251   C     0.35353   0.32945   0.39709   0.00000  Uiso   1.00
C252   C     0.33561   0.29096   0.43069   0.00000  Uiso   1.00
C253   C     0.34657   0.25744   0.33863   0.00000  Uiso   1.00
H254   H     0.41899   0.38289   0.16534   0.00000  Uiso   1.00
H255   H     0.37161   0.43751   0.03180   0.00000  Uiso   1.00
H256   H     0.47918   0.40792   0.34043   0.00000  Uiso   1.00
H257   H     0.41399   0.30459   0.08994   0.00000  Uiso   1.00
H258   H     0.30679   0.49595   0.93725   0.00000  Uiso   1.00
H259   H     0.53361   0.43353   0.58800   0.00000  Uiso   1.00
H260   H     0.39616   0.21564   0.05980   0.00000  Uiso   1.00
H261   H     0.32422   0.36642   0.57731   0.00000  Uiso   1.00
H262   H     0.27164   0.42014   0.46638   0.00000  Uiso   1.00
H263   H     0.37921   0.39055   0.77500   0.00000  Uiso   1.00
H264   H     0.31403   0.28722   0.52451   0.00000  Uiso   1.00
H265   H     0.22565   0.48185   0.28997   0.00000  Uiso   1.00
H266   H     0.45247   0.41944   0.94072   0.00000  Uiso   1.00
H267   H     0.31502   0.20155   0.41252   0.00000  Uiso   1.00
O268   O     0.23335   0.52454   0.03322   0.00000  Uiso   1.00
O269   O     0.53093   0.44265   0.88699   0.00000  Uiso   1.00
O270   O     0.35060   0.15679   0.19399   0.00000  Uiso   1.00
N271   N     0.29491   0.48525   0.03547   0.00000  Uiso   1.00
N272   N     0.50697   0.42690   0.64388   0.00000  Uiso   1.00
N273   N     0.37847   0.22319   0.15008   0.00000  Uiso   1.00
N274   N     0.25125   0.47766   0.22526   0.00000  Uiso   1.00
N275   N     0.46330   0.41932   0.83368   0.00000  Uiso   1.00
N276   N     0.33481   0.21561   0.33988   0.00000  Uiso   1.00
C277   C     0.60273   0.62089   0.25971   0.00000  Uiso   1.00
C278   C     0.64161   0.59349   0.24428   0.00000  Uiso   1.00
C279   C     0.64998   0.56623   0.12560   0.00000  Uiso   1.00
C280   C     0.68727   0.54396   0.13244   0.00000  Uiso   1.00
C281   C     0.74340   0.50067   0.09007   0.00000  Uiso   1.00
C282   C     0.58317   0.60957   0.41197   0.00000  Uiso   1.00
C283   C     0.54240   0.59583   0.43427   0.00000  Uiso   1.00
C284   C     0.53049   0.58709   0.58227   0.00000  Uiso   1.00
C285   C     0.49587   0.56879   0.80025   0.00000  Uiso   1.00
C286   C     0.61859   0.66571   0.27586   0.00000  Uiso   1.00
C287   C     0.60759   0.69917   0.18374   0.00000  Uiso   1.00
C288   C     0.62549   0.73771   0.21718   0.00000  Uiso   1.00
C289   C     0.64586   0.80657   0.22383   0.00000  Uiso   1.00
C290   C     0.65407   0.62981   0.48292   0.00000  Uiso   1.00
C291   C     0.66950   0.59834   0.36552   0.00000  Uiso   1.00
C292   C     0.70679   0.57610   0.37254   0.00000  Uiso   1.00
C293   C     0.71521   0.54881   0.25388   0.00000  Uiso   1.00
C294   C     0.61105   0.61441   0.53320   0.00000  Uiso   1.00
C295   C     0.59920   0.60570   0.68121   0.00000  Uiso   1.00
C296   C     0.55843   0.59194   0.70373   0.00000  Uiso   1.00
C297   C     0.64647   0.67055   0.39709   0.00000  Uiso   1.00
C298   C     0.66439   0.70904   0.43069   0.00000  Uiso   1.00
C299   C     0.65343   0.74256   0.33863   0.00000  Uiso   1.00
H300   H     0.58101   0.61711   0.16534   0.00000  Uiso   1.00
H301   H     0.62839   0.56249   0.03180   0.00000  Uiso   1.00
H302   H     0.52082   0.59208   0.34043   0.00000  Uiso   1.00
H303   H     0.58601   0.69541   0.08994   0.00000  Uiso   1.00
H304   H     0.69321   0.50405   0.93725   0.00000  Uiso   1.00
H305   H     0.46639   0.56647   0.58800   0.00000  Uiso   1.00
H306   H     0.60384   0.78436   0.05980   0.00000  Uiso   1.00
H307   H     0.67578   0.63358   0.57731   0.00000  Uiso   1.00
H308   H     0.72836   0.57986   0.46638   0.00000  Uiso   1.00
H309   H     0.62079   0.60945   0.77500   0.00000  Uiso   1.00
H310   H     0.68597   0.71278   0.52451   0.00000  Uiso   1.00
H311   H     0.77435   0.51815   0.28997   0.00000  Uiso   1.00
H312   H     0.54753   0.58056   0.94072   0.00000  Uiso   1.00
H313   H     0.68498   0.79845   0.41252   0.00000  Uiso   1.00
O314   O     0.76665   0.47546   0.03322   0.00000  Uiso   1.00
O315   O     0.46907   0.55735   0.88699   0.00000  Uiso   1.00
O316   O     0.64940   0.84321   0.19399   0.00000  Uiso   1.00
N317   N     0.70509   0.51475   0.03547   0.00000  Uiso   1.00
N318   N     0.49303   0.57310   0.64388   0.00000  Uiso   1.00
N319   N     0.62153   0.77681   0.15008   0.00000  Uiso   1.00
N320   N     0.74875   0.52234   0.22526   0.00000  Uiso   1.00
N321   N     0.53670   0.58068   0.83368   0.00000  Uiso   1.00
N322   N     0.66519   0.78439   0.33988   0.00000  Uiso   1.00
C323   C     0.10273   0.12089   0.75971   0.00000  Uiso   1.00
C324   C     0.14161   0.09349   0.74428   0.00000  Uiso   1.00
C325   C     0.14998   0.06623   0.62560   0.00000  Uiso   1.00
C326   C     0.18727   0.04396   0.63244   0.00000  Uiso   1.00
C327   C     0.24340   0.00067   0.59007   0.00000  Uiso   1.00
C328   C     0.08317   0.10957   0.91197   0.00000  Uiso   1.00
C329   C     0.04240   0.09583   0.93427   0.00000  Uiso   1.00
C330   C     0.03049   0.08709   0.08227   0.00000  Uiso   1.00
C331   C     0.99587   0.06879   0.30025   0.00000  Uiso   1.00
C332   C     0.11859   0.16571   0.77586   0.00000  Uiso   1.00
C333   C     0.10759   0.19917   0.68374   0.00000  Uiso   1.00
C334   C     0.12549   0.23771   0.71718   0.00000  Uiso   1.00
C335   C     0.14586   0.30657   0.72383   0.00000  Uiso   1.00
C336   C     0.15407   0.12981   0.98292   0.00000  Uiso   1.00
C337   C     0.16950   0.09834   0.86552   0.00000  Uiso   1.00
C338   C     0.20679   0.07610   0.87254   0.00000  Uiso   1.00
C339   C     0.21521   0.04881   0.75388   0.00000  Uiso   1.00
C340   C     0.11105   0.11441   0.03320   0.00000  Uiso   1.00
C341   C     0.09920   0.10570   0.18121   0.00000  Uiso   1.00
C342   C     0.05843   0.09194   0.20373   0.00000  Uiso   1.00
C343   C     0.14647   0.17055   0.89709   0.00000  Uiso   1.00
C344   C     0.16439   0.20904   0.93069   0.00000  Uiso   1.00
C345   C     0.15343   0.24256   0.83863   0.00000  Uiso   1.00
H346   H     0.08101   0.11711   0.66534   0.00000  Uiso   1.00
H347   H     0.12839   0.06249   0.53180   0.00000  Uiso   1.00
H348   H     0.02082   0.09208   0.84043   0.00000  Uiso   1.00
H349   H     0.08601   0.19541   0.58994   0.00000  Uiso   1.00
H350   H     0.19321   0.00405   0.43725   0.00000  Uiso   1.00
H351   H     0.96639   0.06647   0.08800   0.00000  Uiso   1.00
H352   H     0.10384   0.28436   0.55980   0.00000  Uiso   1.00
H353   H     0.17578   0.13358   0.07731   0.00000  Uiso   1.00
H354   H     0.22836   0.07986   0.96638   0.00000  Uiso   1.00
H355   H     0.12079   0.10945   0.27500   0.00000  Uiso   1.00
H356   H     0.18597   0.21278   0.02451   0.00000  Uiso   1.00
H357   H     0.27435   0.01815   0.78997   0.00000  Uiso   1.00
H358   H     0.04753   0.08056   0.44072   0.00000  Uiso   1.00
H359   H     0.18498   0.29845   0.91252   0.00000  Uiso   1.00
O360   O     0.26665   0.97546   0.53322   0.00000  Uiso   1.00
O361   O     0.96907   0.05735   0.38699   0.00000  Uiso   1.00
O362   O     0.14940   0.34321   0.69399   0.00000  Uiso   1.00
N363   N     0.20509   0.01475   0.53547   0.00000  Uiso   1.00
N364   N     0.99303   0.07310   0.14388   0.00000  Uiso   1.00
N365   N     0.12153   0.27681   0.65008   0.00000  Uiso   1.00
N366   N     0.24875   0.02234   0.72526   0.00000  Uiso   1.00
N367   N     0.03670   0.08068   0.33368   0.00000  Uiso   1.00
N368   N     0.16519   0.28439   0.83988   0.00000  Uiso   1.00
C369   C     0.62089   0.39727   0.74029   0.00000  Uiso   1.00
C370   C     0.59349   0.35839   0.75572   0.00000  Uiso   1.00
C371   C     0.56623   0.35002   0.87440   0.00000  Uiso   1.00
C372   C     0.54396   0.31273   0.86756   0.00000  Uiso   1.00
C373   C     0.50067   0.25660   0.90993   0.00000  Uiso   1.00
C374   C     0.60957   0.41683   0.58803   0.00000  Uiso   1.00
C375   C     0.59583   0.45760   0.56573   0.00000  Uiso   1.00
C376   C     0.58709   0.46951   0.41773   0.00000  Uiso   1.00
C377   C     0.56879   0.50413   0.19975   0.00000  Uiso   1.00
C378   C     0.66571   0.38141   0.72414   0.00000  Uiso   1.00
C379   C     0.69917   0.39241   0.81626   0.00000  Uiso   1.00
C380   C     0.73771   0.37451   0.78282   0.00000  Uiso   1.00
C381   C     0.80657   0.35414   0.77617   0.00000  Uiso   1.00
C382   C     0.62981   0.34593   0.51708   0.00000  Uiso   1.00
C383   C     0.59834   0.33050   0.63448   0.00000  Uiso   1.00
C384   C     0.57610   0.29321   0.62746   0.00000  Uiso   1.00
C385   C     0.54881   0.28479   0.74612   0.00000  Uiso   1.00
C386   C     0.61441   0.38895   0.46680   0.00000  Uiso   1.00
C387   C     0.60570   0.40080   0.31879   0.00000  Uiso   1.00
C388   C     0.59194   0.44157   0.29627   0.00000  Uiso   1.00
C389   C     0.67055   0.35353   0.60291   0.00000  Uiso   1.00
C390   C     0.70904   0.33561   0.56931   0.00000  Uiso   1.00
C391   C     0.74256   0.34657   0.66137   0.00000  Uiso   1.00
H392   H     0.61711   0.41899   0.83466   0.00000  Uiso   1.00
H393   H     0.56249   0.37161   0.96820   0.00000  Uiso   1.00
H394   H     0.59208   0.47918   0.65957   0.00000  Uiso   1.00
H395   H     0.69541   0.41399   0.91006   0.00000  Uiso   1.00
H396   H     0.50405   0.30679   0.06275   0.00000  Uiso   1.00
H397   H     0.56647   0.53361   0.41200   0.00000  Uiso   1.00
H398   H     0.78436   0.39616   0.94020   0.00000  Uiso   1.00
H399   H     0.63358   0.32422   0.42269   0.00000  Uiso   1.00
H400   H     0.57986   0.27164   0.53362   0.00000  Uiso   1.00
H401   H     0.60945   0.37921   0.22500   0.00000  Uiso   1.00
H402   H     0.71278   0.31403   0.47549   0.00000  Uiso   1.00
H403   H     0.51815   0.22565   0.71003   0.00000  Uiso   1.00
H404   H     0.58056   0.45247   0.05928   0.00000  Uiso   1.00
H405   H     0.79845   0.31502   0.58748   0.00000  Uiso   1.00
O406   O     0.47546   0.23335   0.96678   0.00000  Uiso   1.00
O407   O     0.55735   0.53093   0.11301   0.00000  Uiso   1.00
O408   O     0.84321   0.35060   0.80601   0.00000  Uiso   1.00
N409   N     0.51475   0.29491   0.96453   0.00000  Uiso   1.00
N410   N     0.57310   0.50697   0.35612   0.00000  Uiso   1.00
N411   N     0.77681   0.37847   0.84992   0.00000  Uiso   1.00
N412   N     0.52234   0.25125   0.77474   0.00000  Uiso   1.00
N413   N     0.58068   0.46330   0.16632   0.00000  Uiso   1.00
N414   N     0.78439   0.33481   0.66012   0.00000  Uiso   1.00
C415   C     0.12089   0.89727   0.24029   0.00000  Uiso   1.00
C416   C     0.09349   0.85839   0.25572   0.00000  Uiso   1.00
C417   C     0.06623   0.85002   0.37440   0.00000  Uiso   1.00
C418   C     0.04396   0.81273   0.36756   0.00000  Uiso   1.00
C419   C     0.00067   0.75660   0.40993   0.00000  Uiso   1.00
C420   C     0.10957   0.91683   0.08803   0.00000  Uiso   1.00
C421   C     0.09583   0.95760   0.06573   0.00000  Uiso   1.00
C422   C     0.08709   0.96951   0.91773   0.00000  Uiso   1.00
C423   C     0.06879   0.00413   0.69975   0.00000  Uiso   1.00
C424   C     0.16571   0.88141   0.22414   0.00000  Uiso   1.00
C425   C     0.19917   0.89241   0.31626   0.00000  Uiso   1.00
C426   C     0.23771   0.87451   0.28282   0.00000  Uiso   1.00
C427   C     0.30657   0.85414   0.27617   0.00000  Uiso   1.00
C428   C     0.12981   0.84593   0.01708   0.00000  Uiso   1.00
C429   C     0.09834   0.83050   0.13448   0.00000  Uiso   1.00
C430   C     0.07610   0.79321   0.12746   0.00000  Uiso   1.00
C431   C     0.04881   0.78479   0.24612   0.00000  Uiso   1.00
C432   C     0.11441   0.88895   0.96680   0.00000  Uiso   1.00
C433   C     0.10570   0.90080   0.81879   0.00000  Uiso   1.00
C434   C     0.09194   0.94157   0.79627   0.00000  Uiso   1.00
C435   C     0.17055   0.85353   0.10291   0.00000  Uiso   1.00
C436   C     0.20904   0.83561   0.06931   0.00000  Uiso   1.00
C437   C     0.24256   0.84657   0.16137   0.00000  Uiso   1.00
H438   H     0.11711   0.91899   0.33466   0.00000  Uiso   1.00
H439   H     0.06249   0.87161   0.46820   0.00000  Uiso   1.00
H440   H     0.09208   0.97918   0.15957   0.00000  Uiso   1.00
H441   H     0.19541   0.91399   0.41006   0.00000  Uiso   1.00
H442   H     0.00405   0.80679   0.56275   0.00000  Uiso   1.00
H443   H     0.06647   0.03361   0.91200   0.00000  Uiso   1.00
H444   H     0.28436   0.89616   0.44020   0.00000  Uiso   1.00
H445   H     0.13358   0.82422   0.92269   0.00000  Uiso   1.00
H446   H     0.07986   0.77164   0.03362   0.00000  Uiso   1.00
H447   H     0.10945   0.87921   0.72500   0.00000  Uiso   1.00
H448   H     0.21278   0.81403   0.97549   0.00000  Uiso   1.00
H449   H     0.01815   0.72565   0.21003   0.00000  Uiso   1.00
H450   H     0.08056   0.95247   0.55928   0.00000  Uiso   1.00
H451   H     0.29845   0.81502   0.08748   0.00000  Uiso   1.00
O452   O     0.97546   0.73335   0.46678   0.00000  Uiso   1.00
O453   O     0.05735   0.03093   0.61301   0.00000  Uiso   1.00
O454   O     0.34321   0.85060   0.30601   0.00000  Uiso   1.00
N455   N     0.01475   0.79491   0.46453   0.00000  Uiso   1.00
N456   N     0.07310   0.00697   0.85612   0.00000  Uiso   1.00
N457   N     0.27681   0.87847   0.34992   0.00000  Uiso   1.00
N458   N     0.02234   0.75125   0.27474   0.00000  Uiso   1.00
N459   N     0.08068   0.96330   0.66632   0.00000  Uiso   1.00
N460   N     0.28439   0.83481   0.16012   0.00000  Uiso   1.00
C461   C     0.87911   0.10273   0.24029   0.00000  Uiso   1.00
C462   C     0.90651   0.14161   0.25572   0.00000  Uiso   1.00
C463   C     0.93377   0.14998   0.37440   0.00000  Uiso   1.00
C464   C     0.95604   0.18727   0.36756   0.00000  Uiso   1.00
C465   C     0.99933   0.24340   0.40993   0.00000  Uiso   1.00
C466   C     0.89043   0.08317   0.08803   0.00000  Uiso   1.00
C467   C     0.90417   0.04240   0.06573   0.00000  Uiso   1.00
C468   C     0.91291   0.03049   0.91773   0.00000  Uiso   1.00
C469   C     0.93121   0.99587   0.69975   0.00000  Uiso   1.00
C470   C     0.83429   0.11859   0.22414   0.00000  Uiso   1.00
C471   C     0.80083   0.10759   0.31626   0.00000  Uiso   1.00
C472   C     0.76229   0.12549   0.28282   0.00000  Uiso   1.00
C473   C     0.69343   0.14586   0.27617   0.00000  Uiso   1.00
C474   C     0.87019   0.15407   0.01708   0.00000  Uiso   1.00
C475   C     0.90166   0.16950   0.13448   0.00000  Uiso   1.00
C476   C     0.92390   0.20679   0.12746   0.00000  Uiso   1.00
C477   C     0.95119   0.21521   0.24612   0.00000  Uiso   1.00
C478   C     0.88559   0.11105   0.96680   0.00000  Uiso   1.00
C479   C     0.89430   0.09920   0.81879   0.00000  Uiso   1.00
C480   C     0.90806   0.05843   0.79627   0.00000  Uiso   1.00
C481   C     0.82945   0.14647   0.10291   0.00000  Uiso   1.00
C482   C     0.79096   0.16439   0.06931   0.00000  Uiso   1.00
C483   C     0.75744   0.15343   0.16137   0.00000  Uiso   1.00
H484   H     0.88289   0.08101   0.33466   0.00000  Uiso   1.00
H485   H     0.93751   0.12839   0.46820   0.00000  Uiso   1.00
H486   H     0.90792   0.02082   0.15957   0.00000  Uiso   1.00
H487   H     0.80459   0.08601   0.41006   0.00000  Uiso   1.00
H488   H     0.99595   0.19321   0.56275   0.00000  Uiso   1.00
H489   H     0.93353   0.96639   0.91200   0.00000  Uiso   1.00
H490   H     0.71564   0.10384   0.44020   0.00000  Uiso   1.00
H491   H     0.86642   0.17578   0.92269   0.00000  Uiso   1.00
H492   H     0.92014   0.22836   0.03362   0.00000  Uiso   1.00
H493   H     0.89055   0.12079   0.72500   0.00000  Uiso   1.00
H494   H     0.78722   0.18597   0.97549   0.00000  Uiso   1.00
H495   H     0.98185   0.27435   0.21003   0.00000  Uiso   1.00
H496   H     0.91944   0.04753   0.55928   0.00000  Uiso   1.00
H497   H     0.70155   0.18498   0.08748   0.00000  Uiso   1.00
O498   O     0.02454   0.26665   0.46678   0.00000  Uiso   1.00
O499   O     0.94265   0.96907   0.61301   0.00000  Uiso   1.00
O500   O     0.65679   0.14940   0.30601   0.00000  Uiso   1.00
N501   N     0.98525   0.20509   0.46453   0.00000  Uiso   1.00
N502   N     0.92690   0.99303   0.85612   0.00000  Uiso   1.00
N503   N     0.72319   0.12153   0.34992   0.00000  Uiso   1.00
N504   N     0.97766   0.24875   0.27474   0.00000  Uiso   1.00
N505   N     0.91932   0.03670   0.66632   0.00000  Uiso   1.00
N506   N     0.71561   0.16519   0.16012   0.00000  Uiso   1.00
C507   C     0.37911   0.60273   0.74029   0.00000  Uiso   1.00
C508   C     0.40651   0.64161   0.75572   0.00000  Uiso   1.00
C509   C     0.43377   0.64998   0.87440   0.00000  Uiso   1.00
C510   C     0.45604   0.68727   0.86756   0.00000  Uiso   1.00
C511   C     0.49933   0.74340   0.90993   0.00000  Uiso   1.00
C512   C     0.39043   0.58317   0.58803   0.00000  Uiso   1.00
C513   C     0.40417   0.54240   0.56573   0.00000  Uiso   1.00
C514   C     0.41291   0.53049   0.41773   0.00000  Uiso   1.00
C515   C     0.43121   0.49587   0.19975   0.00000  Uiso   1.00
C516   C     0.33429   0.61859   0.72414   0.00000  Uiso   1.00
C517   C     0.30083   0.60759   0.81626   0.00000  Uiso   1.00
C518   C     0.26229   0.62549   0.78282   0.00000  Uiso   1.00
C519   C     0.19343   0.64586   0.77617   0.00000  Uiso   1.00
C520   C     0.37019   0.65407   0.51708   0.00000  Uiso   1.00
C521   C     0.40166   0.66950   0.63448   0.00000  Uiso   1.00
C522   C     0.42390   0.70679   0.62746   0.00000  Uiso   1.00
C523   C     0.45119   0.71521   0.74612   0.00000  Uiso   1.00
C524   C     0.38559   0.61105   0.46680   0.00000  Uiso   1.00
C525   C     0.39430   0.59920   0.31879   0.00000  Uiso   1.00
C526   C     0.40806   0.55843   0.29627   0.00000  Uiso   1.00
C527   C     0.32945   0.64647   0.60291   0.00000  Uiso   1.00
C528   C     0.29096   0.66439   0.56931   0.00000  Uiso   1.00
C529   C     0.25744   0.65343   0.66137   0.00000  Uiso   1.00
H530   H     0.38289   0.58101   0.83466   0.00000  Uiso   1.00
H531   H     0.43751   0.62839   0.96820   0.00000  Uiso   1.00
H532   H     0.40792   0.52082   0.65957   0.00000  Uiso   1.00
H533   H     0.30459   0.58601   0.91006   0.00000  Uiso   1.00
H534   H     0.49595   0.69321   0.06275   0.00000  Uiso   1.00
H535   H     0.43353   0.46639   0.41200   0.00000  Uiso   1.00
H536   H     0.21564   0.60384   0.94020   0.00000  Uiso   1.00
H537   H     0.36642   0.67578   0.42269   0.00000  Uiso   1.00
H538   H     0.42014   0.72836   0.53362   0.00000  Uiso   1.00
H539   H     0.39055   0.62079   0.22500   0.00000  Uiso   1.00
H540   H     0.28722   0.68597   0.47549   0.00000  Uiso   1.00
H541   H     0.48185   0.77435   0.71003   0.00000  Uiso   1.00
H542   H     0.41944   0.54753   0.05928   0.00000  Uiso   1.00
H543   H     0.20155   0.68498   0.58748   0.00000  Uiso   1.00
O544   O     0.52454   0.76665   0.96678   0.00000  Uiso   1.00
O545   O     0.44265   0.46907   0.11301   0.00000  Uiso   1.00
O546   O     0.15679   0.64940   0.80601   0.00000  Uiso   1.00
N547   N     0.48525   0.70509   0.96453   0.00000  Uiso   1.00
N548   N     0.42690   0.49303   0.35612   0.00000  Uiso   1.00
N549   N     0.22319   0.62153   0.84992   0.00000  Uiso   1.00
N550   N     0.47766   0.74875   0.77474   0.00000  Uiso   1.00
N551   N     0.41932   0.53670   0.16632   0.00000  Uiso   1.00
N552   N     0.21561   0.66519   0.66012   0.00000  Uiso   1.00
C553   C     0.10273   0.62089   0.49029   0.00000  Uiso   1.00
C554   C     0.14161   0.59349   0.50572   0.00000  Uiso   1.00
C555   C     0.14998   0.56623   0.62440   0.00000  Uiso   1.00
C556   C     0.18727   0.54396   0.61756   0.00000  Uiso   1.00
C557   C     0.24340   0.50067   0.65993   0.00000  Uiso   1.00
C558   C     0.08317   0.60957   0.33803   0.00000  Uiso   1.00
C559   C     0.04240   0.59583   0.31573   0.00000  Uiso   1.00
C560   C     0.03049   0.58709   0.16773   0.00000  Uiso   1.00
C561   C     0.99587   0.56879   0.94975   0.00000  Uiso   1.00
C562   C     0.11859   0.66571   0.47414   0.00000  Uiso   1.00
C563   C     0.10759   0.69917   0.56626   0.00000  Uiso   1.00
C564   C     0.12549   0.73771   0.53282   0.00000  Uiso   1.00
C565   C     0.14586   0.80657   0.52617   0.00000  Uiso   1.00
C566   C     0.15407   0.62981   0.26708   0.00000  Uiso   1.00
C567   C     0.16950   0.59834   0.38448   0.00000  Uiso   1.00
C568   C     0.20679   0.57610   0.37746   0.00000  Uiso   1.00
C569   C     0.21521   0.54881   0.49612   0.00000  Uiso   1.00
C570   C     0.11105   0.61441   0.21680   0.00000  Uiso   1.00
C571   C     0.09920   0.60570   0.06879   0.00000  Uiso   1.00
C572   C     0.05843   0.59194   0.04627   0.00000  Uiso   1.00
C573   C     0.14647   0.67055   0.35291   0.00000  Uiso   1.00
C574   C     0.16439   0.70904   0.31931   0.00000  Uiso   1.00
C575   C     0.15343   0.74256   0.41137   0.00000  Uiso   1.00
H576   H     0.08101   0.61711   0.58466   0.00000  Uiso   1.00
H577   H     0.12839   0.56249   0.71820   0.00000  Uiso   1.00
H578   H     0.02082   0.59208   0.40957   0.00000  Uiso   1.00
H579   H     0.08601   0.69541   0.66006   0.00000  Uiso   1.00
H580   H     0.19321   0.50405   0.81275   0.00000  Uiso   1.00
H581   H     0.96639   0.56647   0.16200   0.00000  Uiso   1.00
H582   H     0.10384   0.78436   0.69020   0.00000  Uiso   1.00
H583   H     0.17578   0.63358   0.17269   0.00000  Uiso   1.00
H584   H     0.22836   0.57986   0.28362   0.00000  Uiso   1.00
H585   H     0.12079   0.60945   0.97500   0.00000  Uiso   1.00
H586   H     0.18597   0.71278   0.22549   0.00000  Uiso   1.00
H587   H     0.27435   0.51815   0.46003   0.00000  Uiso   1.00
H588   H     0.04753   0.58056   0.80928   0.00000  Uiso   1.00
H589   H     0.18498   0.79845   0.33748   0.00000  Uiso   1.00
O590   O     0.26665   0.47546   0.71678   0.00000  Uiso   1.00
O591   O     0.96907   0.55735   0.86301   0.00000  Uiso   1.00
O592   O     0.14940   0.84321   0.55601   0.00000  Uiso   1.00
N593   N     0.20509   0.51475   0.71453   0.00000  Uiso   1.00
N594   N     0.99303   0.57310   0.10612   0.00000  Uiso   1.00
N595   N     0.12153   0.77681   0.59992   0.00000  Uiso   1.00
N596   N     0.24875   0.52234   0.52474   0.00000  Uiso   1.00
N597   N     0.03670   0.58068   0.91632   0.00000  Uiso   1.00
N598   N     0.16519   0.78439   0.41012   0.00000  Uiso   1.00
C599   C     0.60273   0.12089   0.99029   0.00000  Uiso   1.00
C600   C     0.64161   0.09349   0.00572   0.00000  Uiso   1.00
C601   C     0.64998   0.06623   0.12440   0.00000  Uiso   1.00
C602   C     0.68727   0.04396   0.11756   0.00000  Uiso   1.00
C603   C     0.74340   0.00067   0.15993   0.00000  Uiso   1.00
C604   C     0.58317   0.10957   0.83803   0.00000  Uiso   1.00
C605   C     0.54240   0.09583   0.81573   0.00000  Uiso   1.00
C606   C     0.53049   0.08709   0.66773   0.00000  Uiso   1.00
C607   C     0.49587   0.06879   0.44975   0.00000  Uiso   1.00
C608   C     0.61859   0.16571   0.97414   0.00000  Uiso   1.00
C609   C     0.60759   0.19917   0.06626   0.00000  Uiso   1.00
C610   C     0.62549   0.23771   0.03282   0.00000  Uiso   1.00
C611   C     0.64586   0.30657   0.02617   0.00000  Uiso   1.00
C612   C     0.65407   0.12981   0.76708   0.00000  Uiso   1.00
C613   C     0.66950   0.09834   0.88448   0.00000  Uiso   1.00
C614   C     0.70679   0.07610   0.87746   0.00000  Uiso   1.00
C615   C     0.71521   0.04881   0.99612   0.00000  Uiso   1.00
C616   C     0.61105   0.11441   0.71680   0.00000  Uiso   1.00
C617   C     0.59920   0.10570   0.56879   0.00000  Uiso   1.00
C618   C     0.55843   0.09194   0.54627   0.00000  Uiso   1.00
C619   C     0.64647   0.17055   0.85291   0.00000  Uiso   1.00
C620   C     0.66439   0.20904   0.81931   0.00000  Uiso   1.00
C621   C     0.65343   0.24256   0.91137   0.00000  Uiso   1.00
H622   H     0.58101   0.11711   0.08466   0.00000  Uiso   1.00
H623   H     0.62839   0.06249   0.21820   0.00000  Uiso   1.00
H624   H     0.52082   0.09208   0.90957   0.00000  Uiso   1.00
H625   H     0.58601   0.19541   0.16006   0.00000  Uiso   1.00
H626   H     0.69321   0.00405   0.31275   0.00000  Uiso   1.00
H627   H     0.46639   0.06647   0.66200   0.00000  Uiso   1.00
H628   H     0.60384   0.28436   0.19020   0.00000  Uiso   1.00
H629   H     0.67578   0.13358   0.67269   0.00000  Uiso   1.00
H630   H     0.72836   0.07986   0.78362   0.00000  Uiso   1.00
H631   H     0.62079   0.10945   0.47500   0.00000  Uiso   1.00
H632   H     0.68597   0.21278   0.72549   0.00000  Uiso   1.00
H633   H     0.77435   0.01815   0.96003   0.00000  Uiso   1.00
H634   H     0.54753   0.08056   0.30928   0.00000  Uiso   1.00
H635   H     0.68498   0.29845   0.83748   0.00000  Uiso   1.00
O636   O     0.76665   0.97546   0.21678   0.00000  Uiso   1.00
O637   O     0.46907   0.05735   0.36301   0.00000  Uiso   1.00
O638   O     0.64940   0.34321   0.05601   0.00000  Uiso   1.00
N639   N     0.70509   0.01475   0.21453   0.00000  Uiso   1.00
N640   N     0.49303   0.07310   0.60612   0.00000  Uiso   1.00
N641   N     0.62153   0.27681   0.09992   0.00000  Uiso   1.00
N642   N     0.74875   0.02234   0.02474   0.00000  Uiso   1.00
N643   N     0.53670   0.08068   0.41632   0.00000  Uiso   1.00
N644   N     0.66519   0.28439   0.91012   0.00000  Uiso   1.00
C645   C     0.39727   0.87911   0.99029   0.00000  Uiso   1.00
C646   C     0.35839   0.90651   0.00572   0.00000  Uiso   1.00
C647   C     0.35002   0.93377   0.12440   0.00000  Uiso   1.00
C648   C     0.31273   0.95604   0.11756   0.00000  Uiso   1.00
C649   C     0.25660   0.99933   0.15993   0.00000  Uiso   1.00
C650   C     0.41683   0.89043   0.83803   0.00000  Uiso   1.00
C651   C     0.45760   0.90417   0.81573   0.00000  Uiso   1.00
C652   C     0.46951   0.91291   0.66773   0.00000  Uiso   1.00
C653   C     0.50413   0.93121   0.44975   0.00000  Uiso   1.00
C654   C     0.38141   0.83429   0.97414   0.00000  Uiso   1.00
C655   C     0.39241   0.80083   0.06626   0.00000  Uiso   1.00
C656   C     0.37451   0.76229   0.03282   0.00000  Uiso   1.00
C657   C     0.35414   0.69343   0.02617   0.00000  Uiso   1.00
C658   C     0.34593   0.87019   0.76708   0.00000  Uiso   1.00
C659   C     0.33050   0.90166   0.88448   0.00000  Uiso   1.00
C660   C     0.29321   0.92390   0.87746   0.00000  Uiso   1.00
C661   C     0.28479   0.95119   0.99612   0.00000  Uiso   1.00
C662   C     0.38895   0.88559   0.71680   0.00000  Uiso   1.00
C663   C     0.40080   0.89430   0.56879   0.00000  Uiso   1.00
C664   C     0.44157   0.90806   0.54627   0.00000  Uiso   1.00
C665   C     0.35353   0.82945   0.85291   0.00000  Uiso   1.00
C666   C     0.33561   0.79096   0.81931   0.00000  Uiso   1.00
C667   C     0.34657   0.75744   0.91137   0.00000  Uiso   1.00
H668   H     0.41899   0.88289   0.08466   0.00000  Uiso   1.00
H669   H     0.37161   0.93751   0.21820   0.00000  Uiso   1.00
H670   H     0.47918   0.90792   0.90957   0.00000  Uiso   1.00
H671   H     0.41399   0.80459   0.16006   0.00000  Uiso   1.00
H672   H     0.30679   0.99595   0.31275   0.00000  Uiso   1.00
H673   H     0.53361   0.93353   0.66200   0.00000  Uiso   1.00
H674   H     0.39616   0.71564   0.19020   0.00000  Uiso   1.00
H675   H     0.32422   0.86642   0.67269   0.00000  Uiso   1.00
H676   H     0.27164   0.92014   0.78362   0.00000  Uiso   1.00
H677   H     0.37921   0.89055   0.47500   0.00000  Uiso   1.00
H678   H     0.31403   0.78722   0.72549   0.00000  Uiso   1.00
H679   H     0.22565   0.98185   0.96003   0.00000  Uiso   1.00
H680   H     0.45247   0.91944   0.30928   0.00000  Uiso   1.00
H681   H     0.31502   0.70155   0.83748   0.00000  Uiso   1.00
O682   O     0.23335   0.02454   0.21678   0.00000  Uiso   1.00
O683   O     0.53093   0.94265   0.36301   0.00000  Uiso   1.00
O684   O     0.35060   0.65679   0.05601   0.00000  Uiso   1.00
N685   N     0.29491   0.98525   0.21453   0.00000  Uiso   1.00
N686   N     0.50697   0.92690   0.60612   0.00000  Uiso   1.00
N687   N     0.37847   0.72319   0.09992   0.00000  Uiso   1.00
N688   N     0.25125   0.97766   0.02474   0.00000  Uiso   1.00
N689   N     0.46330   0.91932   0.41632   0.00000  Uiso   1.00
N690   N     0.33481   0.71561   0.91012   0.00000  Uiso   1.00
C691   C     0.89727   0.37911   0.49029   0.00000  Uiso   1.00
C692   C     0.85839   0.40651   0.50572   0.00000  Uiso   1.00
C693   C     0.85002   0.43377   0.62440   0.00000  Uiso   1.00
C694   C     0.81273   0.45604   0.61756   0.00000  Uiso   1.00
C695   C     0.75660   0.49933   0.65993   0.00000  Uiso   1.00
C696   C     0.91683   0.39043   0.33803   0.00000  Uiso   1.00
C697   C     0.95760   0.40417   0.31573   0.00000  Uiso   1.00
C698   C     0.96951   0.41291   0.16773   0.00000  Uiso   1.00
C699   C     0.00413   0.43121   0.94975   0.00000  Uiso   1.00
C700   C     0.88141   0.33429   0.47414   0.00000  Uiso   1.00
C701   C     0.89241   0.30083   0.56626   0.00000  Uiso   1.00
C702   C     0.87451   0.26229   0.53282   0.00000  Uiso   1.00
C703   C     0.85414   0.19343   0.52617   0.00000  Uiso   1.00
C704   C     0.84593   0.37019   0.26708   0.00000  Uiso   1.00
C705   C     0.83050   0.40166   0.38448   0.00000  Uiso   1.00
C706   C     0.79321   0.42390   0.37746   0.00000  Uiso   1.00
C707   C     0.78479   0.45119   0.49612   0.00000  Uiso   1.00
C708   C     0.88895   0.38559   0.21680   0.00000  Uiso   1.00
C709   C     0.90080   0.39430   0.06879   0.00000  Uiso   1.00
C710   C     0.94157   0.40806   0.04627   0.00000  Uiso   1.00
C711   C     0.85353   0.32945   0.35291   0.00000  Uiso   1.00
C712   C     0.83561   0.29096   0.31931   0.00000  Uiso   1.00
C713   C     0.84657   0.25744   0.41137   0.00000  Uiso   1.00
H714   H     0.91899   0.38289   0.58466   0.00000  Uiso   1.00
H715   H     0.87161   0.43751   0.71820   0.00000  Uiso   1.00
H716   H     0.97918   0.40792   0.40957   0.00000  Uiso   1.00
H717   H     0.91399   0.30459   0.66006   0.00000  Uiso   1.00
H718   H     0.80679   0.49595   0.81275   0.00000  Uiso   1.00
H719   H     0.03361   0.43353   0.16200   0.00000  Uiso   1.00
H720   H     0.89616   0.21564   0.69020   0.00000  Uiso   1.00
H721   H     0.82422   0.36642   0.17269   0.00000  Uiso   1.00
H722   H     0.77164   0.42014   0.28362   0.00000  Uiso   1.00
H723   H     0.87921   0.39055   0.97500   0.00000  Uiso   1.00
H724   H     0.81403   0.28722   0.22549   0.00000  Uiso   1.00
H725   H     0.72565   0.48185   0.46003   0.00000  Uiso   1.00
H726   H     0.95247   0.41944   0.80928   0.00000  Uiso   1.00
H727   H     0.81502   0.20155   0.33748   0.00000  Uiso   1.00
O728   O     0.73335   0.52454   0.71678   0.00000  Uiso   1.00
O729   O     0.03093   0.44265   0.86301   0.00000  Uiso   1.00
O730   O     0.85060   0.15679   0.55601   0.00000  Uiso   1.00
N731   N     0.79491   0.48525   0.71453   0.00000  Uiso   1.00
N732   N     0.00697   0.42690   0.10612   0.00000  Uiso   1.00
N733   N     0.87847   0.22319   0.59992   0.00000  Uiso   1.00
N734   N     0.75125   0.47766   0.52474   0.00000  Uiso   1.00
N735   N     0.96330   0.41932   0.91632   0.00000  Uiso   1.00
N736   N     0.83481   0.21561   0.41012   0.00000  Uiso   1.00
