data_job_02413
_audit_creation_date              2018-12-19
_audit_creation_method            'Materials Studio'
_symmetry_space_group_name_H-M    'P1'
_symmetry_Int_Tables_number       1
_symmetry_cell_setting            triclinic
loop_
_symmetry_equiv_pos_as_xyz
  x,y,z
_cell_length_a                    22.8488
_cell_length_b                    22.8488
_cell_length_c                    22.1471
_cell_angle_alpha                 90.0000
_cell_angle_beta                  90.0000
_cell_angle_gamma                 90.0000
loop_
_atom_site_label
_atom_site_type_symbol
_atom_site_fract_x
_atom_site_fract_y
_atom_site_fract_z
_atom_site_U_iso_or_equiv
_atom_site_adp_type
_atom_site_occupancy
C1     C     0.97551   0.39311   0.46969   0.00000  Uiso   1.00
C2     C     0.03812   0.37194   0.47923   0.00000  Uiso   1.00
C3     C     0.08639   0.38847   0.44523   0.00000  Uiso   1.00
C4     C     0.13992   0.36420   0.46112   0.00000  Uiso   1.00
C5     C     0.23638   0.33729   0.46858   0.00000  Uiso   1.00
C6     C     0.93855   0.33819   0.46092   0.00000  Uiso   1.00
C7     C     0.90308   0.32636   0.41153   0.00000  Uiso   1.00
C8     C     0.87279   0.27369   0.41202   0.00000  Uiso   1.00
C9     C     0.81461   0.19442   0.39108   0.00000  Uiso   1.00
C10    C     0.95619   0.41950   0.52971   0.00000  Uiso   1.00
C11    C     0.93555   0.47604   0.53815   0.00000  Uiso   1.00
C12    C     0.92009   0.49182   0.59656   0.00000  Uiso   1.00
C13    C     0.88932   0.53879   0.68242   0.00000  Uiso   1.00
C14    C     0.98475   0.32060   0.55839   0.00000  Uiso   1.00
C15    C     0.04314   0.33255   0.52740   0.00000  Uiso   1.00
C16    C     0.09662   0.30825   0.54336   0.00000  Uiso   1.00
C17    C     0.14495   0.32475   0.50939   0.00000  Uiso   1.00
C18    C     0.94357   0.29881   0.50909   0.00000  Uiso   1.00
C19    C     0.91331   0.24615   0.50966   0.00000  Uiso   1.00
C20    C     0.87782   0.23424   0.46028   0.00000  Uiso   1.00
C21    C     0.96121   0.38012   0.57788   0.00000  Uiso   1.00
C22    C     0.94578   0.39582   0.63628   0.00000  Uiso   1.00
C23    C     0.92512   0.45237   0.64482   0.00000  Uiso   1.00
H24    H     0.97160   0.42376   0.43218   0.00000  Uiso   1.00
H25    H     0.08248   0.41894   0.40794   0.00000  Uiso   1.00
H26    H     0.89920   0.35685   0.37426   0.00000  Uiso   1.00
H27    H     0.93167   0.50650   0.50086   0.00000  Uiso   1.00
H28    H     0.20763   0.39622   0.40230   0.00000  Uiso   1.00
H29    H     0.82116   0.26529   0.33128   0.00000  Uiso   1.00
H30    H     0.88961   0.58086   0.59825   0.00000  Uiso   1.00
H31    H     0.98866   0.28994   0.59589   0.00000  Uiso   1.00
H32    H     0.10049   0.27778   0.58064   0.00000  Uiso   1.00
H33    H     0.91721   0.21568   0.54695   0.00000  Uiso   1.00
H34    H     0.94967   0.36533   0.67355   0.00000  Uiso   1.00
H35    H     0.22225   0.28164   0.54247   0.00000  Uiso   1.00
H36    H     0.83577   0.15072   0.47144   0.00000  Uiso   1.00
H37    H     0.90423   0.46628   0.73841   0.00000  Uiso   1.00
O38    O     0.28819   0.33332   0.45938   0.00000  Uiso   1.00
O39    O     0.78115   0.16157   0.36621   0.00000  Uiso   1.00
O40    O     0.87096   0.57559   0.71647   0.00000  Uiso   1.00
N41    N     0.19573   0.37093   0.43739   0.00000  Uiso   1.00
N42    N     0.83441   0.24852   0.37098   0.00000  Uiso   1.00
N43    N     0.89839   0.54355   0.62058   0.00000  Uiso   1.00
N44    N     0.20359   0.30927   0.51281   0.00000  Uiso   1.00
N45    N     0.84227   0.18687   0.44640   0.00000  Uiso   1.00
N46    N     0.90625   0.48189   0.69600   0.00000  Uiso   1.00
C47    C     0.47551   0.89311   0.96969   0.00000  Uiso   1.00
C48    C     0.53812   0.87194   0.97923   0.00000  Uiso   1.00
C49    C     0.58639   0.88847   0.94523   0.00000  Uiso   1.00
C50    C     0.63992   0.86420   0.96112   0.00000  Uiso   1.00
C51    C     0.73638   0.83729   0.96858   0.00000  Uiso   1.00
C52    C     0.43855   0.83819   0.96092   0.00000  Uiso   1.00
C53    C     0.40308   0.82636   0.91153   0.00000  Uiso   1.00
C54    C     0.37279   0.77369   0.91202   0.00000  Uiso   1.00
C55    C     0.31461   0.69442   0.89108   0.00000  Uiso   1.00
C56    C     0.45619   0.91950   0.02971   0.00000  Uiso   1.00
C57    C     0.43555   0.97604   0.03815   0.00000  Uiso   1.00
C58    C     0.42009   0.99182   0.09656   0.00000  Uiso   1.00
C59    C     0.38932   0.03879   0.18242   0.00000  Uiso   1.00
C60    C     0.48475   0.82060   0.05839   0.00000  Uiso   1.00
C61    C     0.54314   0.83255   0.02740   0.00000  Uiso   1.00
C62    C     0.59662   0.80825   0.04336   0.00000  Uiso   1.00
C63    C     0.64495   0.82475   0.00939   0.00000  Uiso   1.00
C64    C     0.44357   0.79881   0.00909   0.00000  Uiso   1.00
C65    C     0.41331   0.74615   0.00966   0.00000  Uiso   1.00
C66    C     0.37782   0.73424   0.96028   0.00000  Uiso   1.00
C67    C     0.46121   0.88012   0.07788   0.00000  Uiso   1.00
C68    C     0.44578   0.89582   0.13628   0.00000  Uiso   1.00
C69    C     0.42512   0.95237   0.14482   0.00000  Uiso   1.00
H70    H     0.47160   0.92376   0.93218   0.00000  Uiso   1.00
H71    H     0.58248   0.91894   0.90794   0.00000  Uiso   1.00
H72    H     0.39920   0.85685   0.87426   0.00000  Uiso   1.00
H73    H     0.43167   0.00650   0.00086   0.00000  Uiso   1.00
H74    H     0.70763   0.89622   0.90230   0.00000  Uiso   1.00
H75    H     0.32116   0.76529   0.83128   0.00000  Uiso   1.00
H76    H     0.38961   0.08086   0.09825   0.00000  Uiso   1.00
H77    H     0.48866   0.78994   0.09589   0.00000  Uiso   1.00
H78    H     0.60049   0.77778   0.08064   0.00000  Uiso   1.00
H79    H     0.41721   0.71568   0.04695   0.00000  Uiso   1.00
H80    H     0.44967   0.86533   0.17355   0.00000  Uiso   1.00
H81    H     0.72225   0.78164   0.04247   0.00000  Uiso   1.00
H82    H     0.33577   0.65072   0.97144   0.00000  Uiso   1.00
H83    H     0.40423   0.96628   0.23841   0.00000  Uiso   1.00
O84    O     0.78819   0.83332   0.95938   0.00000  Uiso   1.00
O85    O     0.28115   0.66157   0.86621   0.00000  Uiso   1.00
O86    O     0.37096   0.07559   0.21647   0.00000  Uiso   1.00
N87    N     0.69573   0.87093   0.93739   0.00000  Uiso   1.00
N88    N     0.33441   0.74852   0.87098   0.00000  Uiso   1.00
N89    N     0.39839   0.04355   0.12058   0.00000  Uiso   1.00
N90    N     0.70359   0.80927   0.01281   0.00000  Uiso   1.00
N91    N     0.34227   0.68687   0.94640   0.00000  Uiso   1.00
N92    N     0.40625   0.98189   0.19600   0.00000  Uiso   1.00
C93    C     0.52449   0.10689   0.96969   0.00000  Uiso   1.00
C94    C     0.46188   0.12806   0.97923   0.00000  Uiso   1.00
C95    C     0.41361   0.11153   0.94523   0.00000  Uiso   1.00
C96    C     0.36008   0.13580   0.96112   0.00000  Uiso   1.00
C97    C     0.26362   0.16271   0.96858   0.00000  Uiso   1.00
C98    C     0.56145   0.16181   0.96092   0.00000  Uiso   1.00
C99    C     0.59692   0.17364   0.91153   0.00000  Uiso   1.00
C100   C     0.62721   0.22631   0.91202   0.00000  Uiso   1.00
C101   C     0.68539   0.30558   0.89108   0.00000  Uiso   1.00
C102   C     0.54381   0.08050   0.02971   0.00000  Uiso   1.00
C103   C     0.56445   0.02396   0.03815   0.00000  Uiso   1.00
C104   C     0.57991   0.00818   0.09656   0.00000  Uiso   1.00
C105   C     0.61068   0.96121   0.18242   0.00000  Uiso   1.00
C106   C     0.51525   0.17940   0.05839   0.00000  Uiso   1.00
C107   C     0.45686   0.16745   0.02740   0.00000  Uiso   1.00
C108   C     0.40338   0.19175   0.04336   0.00000  Uiso   1.00
C109   C     0.35505   0.17525   0.00939   0.00000  Uiso   1.00
C110   C     0.55643   0.20119   0.00909   0.00000  Uiso   1.00
C111   C     0.58669   0.25385   0.00966   0.00000  Uiso   1.00
C112   C     0.62218   0.26576   0.96028   0.00000  Uiso   1.00
C113   C     0.53879   0.11988   0.07788   0.00000  Uiso   1.00
C114   C     0.55422   0.10418   0.13628   0.00000  Uiso   1.00
C115   C     0.57488   0.04763   0.14482   0.00000  Uiso   1.00
H116   H     0.52840   0.07624   0.93218   0.00000  Uiso   1.00
H117   H     0.41752   0.08106   0.90794   0.00000  Uiso   1.00
H118   H     0.60080   0.14315   0.87426   0.00000  Uiso   1.00
H119   H     0.56833   0.99350   0.00086   0.00000  Uiso   1.00
H120   H     0.29237   0.10378   0.90230   0.00000  Uiso   1.00
H121   H     0.67884   0.23471   0.83128   0.00000  Uiso   1.00
H122   H     0.61039   0.91914   0.09825   0.00000  Uiso   1.00
H123   H     0.51134   0.21006   0.09589   0.00000  Uiso   1.00
H124   H     0.39951   0.22222   0.08064   0.00000  Uiso   1.00
H125   H     0.58279   0.28432   0.04695   0.00000  Uiso   1.00
H126   H     0.55033   0.13467   0.17355   0.00000  Uiso   1.00
H127   H     0.27775   0.21836   0.04247   0.00000  Uiso   1.00
H128   H     0.66423   0.34928   0.97144   0.00000  Uiso   1.00
H129   H     0.59577   0.03372   0.23841   0.00000  Uiso   1.00
O130   O     0.21181   0.16668   0.95938   0.00000  Uiso   1.00
O131   O     0.71885   0.33843   0.86621   0.00000  Uiso   1.00
O132   O     0.62904   0.92441   0.21647   0.00000  Uiso   1.00
N133   N     0.30427   0.12907   0.93739   0.00000  Uiso   1.00
N134   N     0.66559   0.25148   0.87098   0.00000  Uiso   1.00
N135   N     0.60161   0.95645   0.12058   0.00000  Uiso   1.00
N136   N     0.29641   0.19073   0.01281   0.00000  Uiso   1.00
N137   N     0.65773   0.31313   0.94640   0.00000  Uiso   1.00
N138   N     0.59375   0.01811   0.19600   0.00000  Uiso   1.00
C139   C     0.02449   0.60689   0.46969   0.00000  Uiso   1.00
C140   C     0.96188   0.62806   0.47923   0.00000  Uiso   1.00
C141   C     0.91361   0.61153   0.44523   0.00000  Uiso   1.00
C142   C     0.86008   0.63580   0.46112   0.00000  Uiso   1.00
C143   C     0.76362   0.66271   0.46858   0.00000  Uiso   1.00
C144   C     0.06145   0.66181   0.46092   0.00000  Uiso   1.00
C145   C     0.09692   0.67364   0.41153   0.00000  Uiso   1.00
C146   C     0.12721   0.72631   0.41202   0.00000  Uiso   1.00
C147   C     0.18539   0.80558   0.39108   0.00000  Uiso   1.00
C148   C     0.04381   0.58050   0.52971   0.00000  Uiso   1.00
C149   C     0.06445   0.52396   0.53815   0.00000  Uiso   1.00
C150   C     0.07991   0.50818   0.59656   0.00000  Uiso   1.00
C151   C     0.11068   0.46121   0.68242   0.00000  Uiso   1.00
C152   C     0.01525   0.67940   0.55839   0.00000  Uiso   1.00
C153   C     0.95686   0.66745   0.52740   0.00000  Uiso   1.00
C154   C     0.90338   0.69175   0.54336   0.00000  Uiso   1.00
C155   C     0.85505   0.67525   0.50939   0.00000  Uiso   1.00
C156   C     0.05643   0.70119   0.50909   0.00000  Uiso   1.00
C157   C     0.08669   0.75385   0.50966   0.00000  Uiso   1.00
C158   C     0.12218   0.76576   0.46028   0.00000  Uiso   1.00
C159   C     0.03879   0.61988   0.57788   0.00000  Uiso   1.00
C160   C     0.05422   0.60418   0.63628   0.00000  Uiso   1.00
C161   C     0.07488   0.54763   0.64482   0.00000  Uiso   1.00
H162   H     0.02840   0.57624   0.43218   0.00000  Uiso   1.00
H163   H     0.91752   0.58106   0.40794   0.00000  Uiso   1.00
H164   H     0.10080   0.64315   0.37426   0.00000  Uiso   1.00
H165   H     0.06833   0.49350   0.50086   0.00000  Uiso   1.00
H166   H     0.79237   0.60378   0.40230   0.00000  Uiso   1.00
H167   H     0.17884   0.73471   0.33128   0.00000  Uiso   1.00
H168   H     0.11039   0.41914   0.59825   0.00000  Uiso   1.00
H169   H     0.01134   0.71006   0.59589   0.00000  Uiso   1.00
H170   H     0.89951   0.72222   0.58064   0.00000  Uiso   1.00
H171   H     0.08279   0.78432   0.54695   0.00000  Uiso   1.00
H172   H     0.05033   0.63467   0.67355   0.00000  Uiso   1.00
H173   H     0.77775   0.71836   0.54247   0.00000  Uiso   1.00
H174   H     0.16423   0.84928   0.47144   0.00000  Uiso   1.00
H175   H     0.09577   0.53372   0.73841   0.00000  Uiso   1.00
O176   O     0.71181   0.66668   0.45938   0.00000  Uiso   1.00
O177   O     0.21885   0.83843   0.36621   0.00000  Uiso   1.00
O178   O     0.12904   0.42441   0.71647   0.00000  Uiso   1.00
N179   N     0.80427   0.62907   0.43739   0.00000  Uiso   1.00
N180   N     0.16559   0.75148   0.37098   0.00000  Uiso   1.00
N181   N     0.10161   0.45645   0.62058   0.00000  Uiso   1.00
N182   N     0.79641   0.69073   0.51281   0.00000  Uiso   1.00
N183   N     0.15773   0.81313   0.44640   0.00000  Uiso   1.00
N184   N     0.09375   0.51811   0.69600   0.00000  Uiso   1.00
C185   C     0.60689   0.47551   0.71969   0.00000  Uiso   1.00
C186   C     0.62806   0.53812   0.72923   0.00000  Uiso   1.00
C187   C     0.61153   0.58639   0.69523   0.00000  Uiso   1.00
C188   C     0.63580   0.63992   0.71112   0.00000  Uiso   1.00
C189   C     0.66271   0.73638   0.71858   0.00000  Uiso   1.00
C190   C     0.66181   0.43855   0.71092   0.00000  Uiso   1.00
C191   C     0.67364   0.40308   0.66153   0.00000  Uiso   1.00
C192   C     0.72631   0.37279   0.66202   0.00000  Uiso   1.00
C193   C     0.80558   0.31461   0.64108   0.00000  Uiso   1.00
C194   C     0.58050   0.45619   0.77971   0.00000  Uiso   1.00
C195   C     0.52396   0.43555   0.78815   0.00000  Uiso   1.00
C196   C     0.50818   0.42009   0.84656   0.00000  Uiso   1.00
C197   C     0.46121   0.38932   0.93242   0.00000  Uiso   1.00
C198   C     0.67940   0.48475   0.80839   0.00000  Uiso   1.00
C199   C     0.66745   0.54314   0.77740   0.00000  Uiso   1.00
C200   C     0.69175   0.59662   0.79336   0.00000  Uiso   1.00
C201   C     0.67525   0.64495   0.75939   0.00000  Uiso   1.00
C202   C     0.70119   0.44357   0.75909   0.00000  Uiso   1.00
C203   C     0.75385   0.41331   0.75966   0.00000  Uiso   1.00
C204   C     0.76576   0.37782   0.71028   0.00000  Uiso   1.00
C205   C     0.61988   0.46121   0.82788   0.00000  Uiso   1.00
C206   C     0.60418   0.44578   0.88628   0.00000  Uiso   1.00
C207   C     0.54763   0.42512   0.89482   0.00000  Uiso   1.00
H208   H     0.57624   0.47160   0.68218   0.00000  Uiso   1.00
H209   H     0.58106   0.58248   0.65794   0.00000  Uiso   1.00
H210   H     0.64315   0.39920   0.62426   0.00000  Uiso   1.00
H211   H     0.49350   0.43167   0.75086   0.00000  Uiso   1.00
H212   H     0.60378   0.70763   0.65230   0.00000  Uiso   1.00
H213   H     0.73471   0.32116   0.58128   0.00000  Uiso   1.00
H214   H     0.41914   0.38961   0.84825   0.00000  Uiso   1.00
H215   H     0.71006   0.48866   0.84589   0.00000  Uiso   1.00
H216   H     0.72222   0.60049   0.83064   0.00000  Uiso   1.00
H217   H     0.78432   0.41721   0.79695   0.00000  Uiso   1.00
H218   H     0.63467   0.44967   0.92355   0.00000  Uiso   1.00
H219   H     0.71836   0.72225   0.79247   0.00000  Uiso   1.00
H220   H     0.84928   0.33577   0.72144   0.00000  Uiso   1.00
H221   H     0.53372   0.40423   0.98841   0.00000  Uiso   1.00
O222   O     0.66668   0.78819   0.70938   0.00000  Uiso   1.00
O223   O     0.83843   0.28115   0.61621   0.00000  Uiso   1.00
O224   O     0.42441   0.37096   0.96647   0.00000  Uiso   1.00
N225   N     0.62907   0.69573   0.68739   0.00000  Uiso   1.00
N226   N     0.75148   0.33441   0.62098   0.00000  Uiso   1.00
N227   N     0.45645   0.39839   0.87058   0.00000  Uiso   1.00
N228   N     0.69073   0.70359   0.76281   0.00000  Uiso   1.00
N229   N     0.81313   0.34227   0.69640   0.00000  Uiso   1.00
N230   N     0.51811   0.40625   0.94600   0.00000  Uiso   1.00
C231   C     0.10689   0.97551   0.21969   0.00000  Uiso   1.00
C232   C     0.12806   0.03812   0.22923   0.00000  Uiso   1.00
C233   C     0.11153   0.08639   0.19523   0.00000  Uiso   1.00
C234   C     0.13580   0.13992   0.21112   0.00000  Uiso   1.00
C235   C     0.16271   0.23638   0.21858   0.00000  Uiso   1.00
C236   C     0.16181   0.93855   0.21092   0.00000  Uiso   1.00
C237   C     0.17364   0.90308   0.16153   0.00000  Uiso   1.00
C238   C     0.22631   0.87279   0.16202   0.00000  Uiso   1.00
C239   C     0.30558   0.81461   0.14108   0.00000  Uiso   1.00
C240   C     0.08050   0.95619   0.27971   0.00000  Uiso   1.00
C241   C     0.02396   0.93555   0.28815   0.00000  Uiso   1.00
C242   C     0.00818   0.92009   0.34656   0.00000  Uiso   1.00
C243   C     0.96121   0.88932   0.43242   0.00000  Uiso   1.00
C244   C     0.17940   0.98475   0.30839   0.00000  Uiso   1.00
C245   C     0.16745   0.04314   0.27740   0.00000  Uiso   1.00
C246   C     0.19175   0.09662   0.29336   0.00000  Uiso   1.00
C247   C     0.17525   0.14495   0.25939   0.00000  Uiso   1.00
C248   C     0.20119   0.94357   0.25909   0.00000  Uiso   1.00
C249   C     0.25385   0.91331   0.25966   0.00000  Uiso   1.00
C250   C     0.26576   0.87782   0.21028   0.00000  Uiso   1.00
C251   C     0.11988   0.96121   0.32788   0.00000  Uiso   1.00
C252   C     0.10418   0.94578   0.38628   0.00000  Uiso   1.00
C253   C     0.04763   0.92512   0.39482   0.00000  Uiso   1.00
H254   H     0.07624   0.97160   0.18218   0.00000  Uiso   1.00
H255   H     0.08106   0.08248   0.15794   0.00000  Uiso   1.00
H256   H     0.14315   0.89920   0.12426   0.00000  Uiso   1.00
H257   H     0.99350   0.93167   0.25086   0.00000  Uiso   1.00
H258   H     0.10378   0.20763   0.15230   0.00000  Uiso   1.00
H259   H     0.23471   0.82116   0.08128   0.00000  Uiso   1.00
H260   H     0.91914   0.88961   0.34825   0.00000  Uiso   1.00
H261   H     0.21006   0.98866   0.34589   0.00000  Uiso   1.00
H262   H     0.22222   0.10049   0.33064   0.00000  Uiso   1.00
H263   H     0.28432   0.91721   0.29695   0.00000  Uiso   1.00
H264   H     0.13467   0.94967   0.42355   0.00000  Uiso   1.00
H265   H     0.21836   0.22225   0.29247   0.00000  Uiso   1.00
H266   H     0.34928   0.83577   0.22144   0.00000  Uiso   1.00
H267   H     0.03372   0.90423   0.48841   0.00000  Uiso   1.00
O268   O     0.16668   0.28819   0.20938   0.00000  Uiso   1.00
O269   O     0.33843   0.78115   0.11621   0.00000  Uiso   1.00
O270   O     0.92441   0.87096   0.46647   0.00000  Uiso   1.00
N271   N     0.12907   0.19573   0.18739   0.00000  Uiso   1.00
N272   N     0.25148   0.83441   0.12098   0.00000  Uiso   1.00
N273   N     0.95645   0.89839   0.37058   0.00000  Uiso   1.00
N274   N     0.19073   0.20359   0.26281   0.00000  Uiso   1.00
N275   N     0.31313   0.84227   0.19640   0.00000  Uiso   1.00
N276   N     0.01811   0.90625   0.44600   0.00000  Uiso   1.00
C277   C     0.89311   0.02449   0.21969   0.00000  Uiso   1.00
C278   C     0.87194   0.96188   0.22923   0.00000  Uiso   1.00
C279   C     0.88847   0.91361   0.19523   0.00000  Uiso   1.00
C280   C     0.86420   0.86008   0.21112   0.00000  Uiso   1.00
C281   C     0.83729   0.76362   0.21858   0.00000  Uiso   1.00
C282   C     0.83819   0.06145   0.21092   0.00000  Uiso   1.00
C283   C     0.82636   0.09692   0.16153   0.00000  Uiso   1.00
C284   C     0.77369   0.12721   0.16202   0.00000  Uiso   1.00
C285   C     0.69442   0.18539   0.14108   0.00000  Uiso   1.00
C286   C     0.91950   0.04381   0.27971   0.00000  Uiso   1.00
C287   C     0.97604   0.06445   0.28815   0.00000  Uiso   1.00
C288   C     0.99182   0.07991   0.34656   0.00000  Uiso   1.00
C289   C     0.03879   0.11068   0.43242   0.00000  Uiso   1.00
C290   C     0.82060   0.01525   0.30839   0.00000  Uiso   1.00
C291   C     0.83255   0.95686   0.27740   0.00000  Uiso   1.00
C292   C     0.80825   0.90338   0.29336   0.00000  Uiso   1.00
C293   C     0.82475   0.85505   0.25939   0.00000  Uiso   1.00
C294   C     0.79881   0.05643   0.25909   0.00000  Uiso   1.00
C295   C     0.74615   0.08669   0.25966   0.00000  Uiso   1.00
C296   C     0.73424   0.12218   0.21028   0.00000  Uiso   1.00
C297   C     0.88012   0.03879   0.32788   0.00000  Uiso   1.00
C298   C     0.89582   0.05422   0.38628   0.00000  Uiso   1.00
C299   C     0.95237   0.07488   0.39482   0.00000  Uiso   1.00
H300   H     0.92376   0.02840   0.18218   0.00000  Uiso   1.00
H301   H     0.91894   0.91752   0.15794   0.00000  Uiso   1.00
H302   H     0.85685   0.10080   0.12426   0.00000  Uiso   1.00
H303   H     0.00650   0.06833   0.25086   0.00000  Uiso   1.00
H304   H     0.89622   0.79237   0.15230   0.00000  Uiso   1.00
H305   H     0.76529   0.17884   0.08128   0.00000  Uiso   1.00
H306   H     0.08086   0.11039   0.34825   0.00000  Uiso   1.00
H307   H     0.78994   0.01134   0.34589   0.00000  Uiso   1.00
H308   H     0.77778   0.89951   0.33064   0.00000  Uiso   1.00
H309   H     0.71568   0.08279   0.29695   0.00000  Uiso   1.00
H310   H     0.86533   0.05033   0.42355   0.00000  Uiso   1.00
H311   H     0.78164   0.77775   0.29247   0.00000  Uiso   1.00
H312   H     0.65072   0.16423   0.22144   0.00000  Uiso   1.00
H313   H     0.96628   0.09577   0.48841   0.00000  Uiso   1.00
O314   O     0.83332   0.71181   0.20938   0.00000  Uiso   1.00
O315   O     0.66157   0.21885   0.11621   0.00000  Uiso   1.00
O316   O     0.07559   0.12904   0.46647   0.00000  Uiso   1.00
N317   N     0.87093   0.80427   0.18739   0.00000  Uiso   1.00
N318   N     0.74852   0.16559   0.12098   0.00000  Uiso   1.00
N319   N     0.04355   0.10161   0.37058   0.00000  Uiso   1.00
N320   N     0.80927   0.79641   0.26281   0.00000  Uiso   1.00
N321   N     0.68687   0.15773   0.19640   0.00000  Uiso   1.00
N322   N     0.98189   0.09375   0.44600   0.00000  Uiso   1.00
C323   C     0.39311   0.52449   0.71969   0.00000  Uiso   1.00
C324   C     0.37194   0.46188   0.72923   0.00000  Uiso   1.00
C325   C     0.38847   0.41361   0.69523   0.00000  Uiso   1.00
C326   C     0.36420   0.36008   0.71112   0.00000  Uiso   1.00
C327   C     0.33729   0.26362   0.71858   0.00000  Uiso   1.00
C328   C     0.33819   0.56145   0.71092   0.00000  Uiso   1.00
C329   C     0.32636   0.59692   0.66153   0.00000  Uiso   1.00
C330   C     0.27369   0.62721   0.66202   0.00000  Uiso   1.00
C331   C     0.19442   0.68539   0.64108   0.00000  Uiso   1.00
C332   C     0.41950   0.54381   0.77971   0.00000  Uiso   1.00
C333   C     0.47604   0.56445   0.78815   0.00000  Uiso   1.00
C334   C     0.49182   0.57991   0.84656   0.00000  Uiso   1.00
C335   C     0.53879   0.61068   0.93242   0.00000  Uiso   1.00
C336   C     0.32060   0.51525   0.80839   0.00000  Uiso   1.00
C337   C     0.33255   0.45686   0.77740   0.00000  Uiso   1.00
C338   C     0.30825   0.40338   0.79336   0.00000  Uiso   1.00
C339   C     0.32475   0.35505   0.75939   0.00000  Uiso   1.00
C340   C     0.29881   0.55643   0.75909   0.00000  Uiso   1.00
C341   C     0.24615   0.58669   0.75966   0.00000  Uiso   1.00
C342   C     0.23424   0.62218   0.71028   0.00000  Uiso   1.00
C343   C     0.38012   0.53879   0.82788   0.00000  Uiso   1.00
C344   C     0.39582   0.55422   0.88628   0.00000  Uiso   1.00
C345   C     0.45237   0.57488   0.89482   0.00000  Uiso   1.00
H346   H     0.42376   0.52840   0.68218   0.00000  Uiso   1.00
H347   H     0.41894   0.41752   0.65794   0.00000  Uiso   1.00
H348   H     0.35685   0.60080   0.62426   0.00000  Uiso   1.00
H349   H     0.50650   0.56833   0.75086   0.00000  Uiso   1.00
H350   H     0.39622   0.29237   0.65230   0.00000  Uiso   1.00
H351   H     0.26529   0.67884   0.58128   0.00000  Uiso   1.00
H352   H     0.58086   0.61039   0.84825   0.00000  Uiso   1.00
H353   H     0.28994   0.51134   0.84589   0.00000  Uiso   1.00
H354   H     0.27778   0.39951   0.83064   0.00000  Uiso   1.00
H355   H     0.21568   0.58279   0.79695   0.00000  Uiso   1.00
H356   H     0.36533   0.55033   0.92355   0.00000  Uiso   1.00
H357   H     0.28164   0.27775   0.79247   0.00000  Uiso   1.00
H358   H     0.15072   0.66423   0.72144   0.00000  Uiso   1.00
H359   H     0.46628   0.59577   0.98841   0.00000  Uiso   1.00
O360   O     0.33332   0.21181   0.70938   0.00000  Uiso   1.00
O361   O     0.16157   0.71885   0.61621   0.00000  Uiso   1.00
O362   O     0.57559   0.62904   0.96647   0.00000  Uiso   1.00
N363   N     0.37093   0.30427   0.68739   0.00000  Uiso   1.00
N364   N     0.24852   0.66559   0.62098   0.00000  Uiso   1.00
N365   N     0.54355   0.60161   0.87058   0.00000  Uiso   1.00
N366   N     0.30927   0.29641   0.76281   0.00000  Uiso   1.00
N367   N     0.18687   0.65773   0.69640   0.00000  Uiso   1.00
N368   N     0.48189   0.59375   0.94600   0.00000  Uiso   1.00
C369   C     0.02449   0.10689   0.78031   0.00000  Uiso   1.00
C370   C     0.96188   0.12806   0.77077   0.00000  Uiso   1.00
C371   C     0.91361   0.11153   0.80477   0.00000  Uiso   1.00
C372   C     0.86008   0.13580   0.78888   0.00000  Uiso   1.00
C373   C     0.76362   0.16271   0.78142   0.00000  Uiso   1.00
C374   C     0.06145   0.16181   0.78908   0.00000  Uiso   1.00
C375   C     0.09692   0.17364   0.83847   0.00000  Uiso   1.00
C376   C     0.12721   0.22631   0.83798   0.00000  Uiso   1.00
C377   C     0.18539   0.30558   0.85892   0.00000  Uiso   1.00
C378   C     0.04381   0.08050   0.72029   0.00000  Uiso   1.00
C379   C     0.06445   0.02396   0.71185   0.00000  Uiso   1.00
C380   C     0.07991   0.00818   0.65344   0.00000  Uiso   1.00
C381   C     0.11068   0.96121   0.56758   0.00000  Uiso   1.00
C382   C     0.01525   0.17940   0.69161   0.00000  Uiso   1.00
C383   C     0.95686   0.16745   0.72260   0.00000  Uiso   1.00
C384   C     0.90338   0.19175   0.70664   0.00000  Uiso   1.00
C385   C     0.85505   0.17525   0.74061   0.00000  Uiso   1.00
C386   C     0.05643   0.20119   0.74091   0.00000  Uiso   1.00
C387   C     0.08669   0.25385   0.74034   0.00000  Uiso   1.00
C388   C     0.12218   0.26576   0.78972   0.00000  Uiso   1.00
C389   C     0.03879   0.11988   0.67212   0.00000  Uiso   1.00
C390   C     0.05422   0.10418   0.61372   0.00000  Uiso   1.00
C391   C     0.07488   0.04763   0.60518   0.00000  Uiso   1.00
H392   H     0.02840   0.07624   0.81782   0.00000  Uiso   1.00
H393   H     0.91752   0.08106   0.84206   0.00000  Uiso   1.00
H394   H     0.10080   0.14315   0.87574   0.00000  Uiso   1.00
H395   H     0.06833   0.99350   0.74914   0.00000  Uiso   1.00
H396   H     0.79237   0.10378   0.84770   0.00000  Uiso   1.00
H397   H     0.17884   0.23471   0.91872   0.00000  Uiso   1.00
H398   H     0.11039   0.91914   0.65175   0.00000  Uiso   1.00
H399   H     0.01134   0.21006   0.65411   0.00000  Uiso   1.00
H400   H     0.89951   0.22222   0.66936   0.00000  Uiso   1.00
H401   H     0.08279   0.28432   0.70305   0.00000  Uiso   1.00
H402   H     0.05033   0.13467   0.57645   0.00000  Uiso   1.00
H403   H     0.77775   0.21836   0.70753   0.00000  Uiso   1.00
H404   H     0.16423   0.34928   0.77856   0.00000  Uiso   1.00
H405   H     0.09577   0.03372   0.51159   0.00000  Uiso   1.00
O406   O     0.71181   0.16668   0.79062   0.00000  Uiso   1.00
O407   O     0.21885   0.33843   0.88379   0.00000  Uiso   1.00
O408   O     0.12904   0.92441   0.53353   0.00000  Uiso   1.00
N409   N     0.80427   0.12907   0.81261   0.00000  Uiso   1.00
N410   N     0.16559   0.25148   0.87902   0.00000  Uiso   1.00
N411   N     0.10161   0.95645   0.62942   0.00000  Uiso   1.00
N412   N     0.79641   0.19073   0.73719   0.00000  Uiso   1.00
N413   N     0.15773   0.31313   0.80360   0.00000  Uiso   1.00
N414   N     0.09375   0.01811   0.55400   0.00000  Uiso   1.00
C415   C     0.52449   0.60689   0.28031   0.00000  Uiso   1.00
C416   C     0.46188   0.62806   0.27077   0.00000  Uiso   1.00
C417   C     0.41361   0.61153   0.30477   0.00000  Uiso   1.00
C418   C     0.36008   0.63580   0.28888   0.00000  Uiso   1.00
C419   C     0.26362   0.66271   0.28142   0.00000  Uiso   1.00
C420   C     0.56145   0.66181   0.28908   0.00000  Uiso   1.00
C421   C     0.59692   0.67364   0.33847   0.00000  Uiso   1.00
C422   C     0.62721   0.72631   0.33798   0.00000  Uiso   1.00
C423   C     0.68539   0.80558   0.35892   0.00000  Uiso   1.00
C424   C     0.54381   0.58050   0.22029   0.00000  Uiso   1.00
C425   C     0.56445   0.52396   0.21185   0.00000  Uiso   1.00
C426   C     0.57991   0.50818   0.15344   0.00000  Uiso   1.00
C427   C     0.61068   0.46121   0.06758   0.00000  Uiso   1.00
C428   C     0.51525   0.67940   0.19161   0.00000  Uiso   1.00
C429   C     0.45686   0.66745   0.22260   0.00000  Uiso   1.00
C430   C     0.40338   0.69175   0.20664   0.00000  Uiso   1.00
C431   C     0.35505   0.67525   0.24061   0.00000  Uiso   1.00
C432   C     0.55643   0.70119   0.24091   0.00000  Uiso   1.00
C433   C     0.58669   0.75385   0.24034   0.00000  Uiso   1.00
C434   C     0.62218   0.76576   0.28972   0.00000  Uiso   1.00
C435   C     0.53879   0.61988   0.17212   0.00000  Uiso   1.00
C436   C     0.55422   0.60418   0.11372   0.00000  Uiso   1.00
C437   C     0.57488   0.54763   0.10518   0.00000  Uiso   1.00
H438   H     0.52840   0.57624   0.31782   0.00000  Uiso   1.00
H439   H     0.41752   0.58106   0.34206   0.00000  Uiso   1.00
H440   H     0.60080   0.64315   0.37574   0.00000  Uiso   1.00
H441   H     0.56833   0.49350   0.24914   0.00000  Uiso   1.00
H442   H     0.29237   0.60378   0.34770   0.00000  Uiso   1.00
H443   H     0.67884   0.73471   0.41872   0.00000  Uiso   1.00
H444   H     0.61039   0.41914   0.15175   0.00000  Uiso   1.00
H445   H     0.51134   0.71006   0.15411   0.00000  Uiso   1.00
H446   H     0.39951   0.72222   0.16936   0.00000  Uiso   1.00
H447   H     0.58279   0.78432   0.20305   0.00000  Uiso   1.00
H448   H     0.55033   0.63467   0.07645   0.00000  Uiso   1.00
H449   H     0.27775   0.71836   0.20753   0.00000  Uiso   1.00
H450   H     0.66423   0.84928   0.27856   0.00000  Uiso   1.00
H451   H     0.59577   0.53372   0.01159   0.00000  Uiso   1.00
O452   O     0.21181   0.66668   0.29062   0.00000  Uiso   1.00
O453   O     0.71885   0.83843   0.38379   0.00000  Uiso   1.00
O454   O     0.62904   0.42441   0.03353   0.00000  Uiso   1.00
N455   N     0.30427   0.62907   0.31261   0.00000  Uiso   1.00
N456   N     0.66559   0.75148   0.37902   0.00000  Uiso   1.00
N457   N     0.60161   0.45645   0.12942   0.00000  Uiso   1.00
N458   N     0.29641   0.69073   0.23719   0.00000  Uiso   1.00
N459   N     0.65773   0.81313   0.30360   0.00000  Uiso   1.00
N460   N     0.59375   0.51811   0.05400   0.00000  Uiso   1.00
C461   C     0.47551   0.39311   0.28031   0.00000  Uiso   1.00
C462   C     0.53812   0.37194   0.27077   0.00000  Uiso   1.00
C463   C     0.58639   0.38847   0.30477   0.00000  Uiso   1.00
C464   C     0.63992   0.36420   0.28888   0.00000  Uiso   1.00
C465   C     0.73638   0.33729   0.28142   0.00000  Uiso   1.00
C466   C     0.43855   0.33819   0.28908   0.00000  Uiso   1.00
C467   C     0.40308   0.32636   0.33847   0.00000  Uiso   1.00
C468   C     0.37279   0.27369   0.33798   0.00000  Uiso   1.00
C469   C     0.31461   0.19442   0.35892   0.00000  Uiso   1.00
C470   C     0.45619   0.41950   0.22029   0.00000  Uiso   1.00
C471   C     0.43555   0.47604   0.21185   0.00000  Uiso   1.00
C472   C     0.42009   0.49182   0.15344   0.00000  Uiso   1.00
C473   C     0.38932   0.53879   0.06758   0.00000  Uiso   1.00
C474   C     0.48475   0.32060   0.19161   0.00000  Uiso   1.00
C475   C     0.54314   0.33255   0.22260   0.00000  Uiso   1.00
C476   C     0.59662   0.30825   0.20664   0.00000  Uiso   1.00
C477   C     0.64495   0.32475   0.24061   0.00000  Uiso   1.00
C478   C     0.44357   0.29881   0.24091   0.00000  Uiso   1.00
C479   C     0.41331   0.24615   0.24034   0.00000  Uiso   1.00
C480   C     0.37782   0.23424   0.28972   0.00000  Uiso   1.00
C481   C     0.46121   0.38012   0.17212   0.00000  Uiso   1.00
C482   C     0.44578   0.39582   0.11372   0.00000  Uiso   1.00
C483   C     0.42512   0.45237   0.10518   0.00000  Uiso   1.00
H484   H     0.47160   0.42376   0.31782   0.00000  Uiso   1.00
H485   H     0.58248   0.41894   0.34206   0.00000  Uiso   1.00
H486   H     0.39920   0.35685   0.37574   0.00000  Uiso   1.00
H487   H     0.43167   0.50650   0.24914   0.00000  Uiso   1.00
H488   H     0.70763   0.39622   0.34770   0.00000  Uiso   1.00
H489   H     0.32116   0.26529   0.41872   0.00000  Uiso   1.00
H490   H     0.38961   0.58086   0.15175   0.00000  Uiso   1.00
H491   H     0.48866   0.28994   0.15411   0.00000  Uiso   1.00
H492   H     0.60049   0.27778   0.16936   0.00000  Uiso   1.00
H493   H     0.41721   0.21568   0.20305   0.00000  Uiso   1.00
H494   H     0.44967   0.36533   0.07645   0.00000  Uiso   1.00
H495   H     0.72225   0.28164   0.20753   0.00000  Uiso   1.00
H496   H     0.33577   0.15072   0.27856   0.00000  Uiso   1.00
H497   H     0.40423   0.46628   0.01159   0.00000  Uiso   1.00
O498   O     0.78819   0.33332   0.29062   0.00000  Uiso   1.00
O499   O     0.28115   0.16157   0.38379   0.00000  Uiso   1.00
O500   O     0.37096   0.57559   0.03353   0.00000  Uiso   1.00
N501   N     0.69573   0.37093   0.31261   0.00000  Uiso   1.00
N502   N     0.33441   0.24852   0.37902   0.00000  Uiso   1.00
N503   N     0.39839   0.54355   0.12942   0.00000  Uiso   1.00
N504   N     0.70359   0.30927   0.23719   0.00000  Uiso   1.00
N505   N     0.34227   0.18687   0.30360   0.00000  Uiso   1.00
N506   N     0.40625   0.48189   0.05400   0.00000  Uiso   1.00
C507   C     0.97551   0.89311   0.78031   0.00000  Uiso   1.00
C508   C     0.03812   0.87194   0.77077   0.00000  Uiso   1.00
C509   C     0.08639   0.88847   0.80477   0.00000  Uiso   1.00
C510   C     0.13992   0.86420   0.78888   0.00000  Uiso   1.00
C511   C     0.23638   0.83729   0.78142   0.00000  Uiso   1.00
C512   C     0.93855   0.83819   0.78908   0.00000  Uiso   1.00
C513   C     0.90308   0.82636   0.83847   0.00000  Uiso   1.00
C514   C     0.87279   0.77369   0.83798   0.00000  Uiso   1.00
C515   C     0.81461   0.69442   0.85892   0.00000  Uiso   1.00
C516   C     0.95619   0.91950   0.72029   0.00000  Uiso   1.00
C517   C     0.93555   0.97604   0.71185   0.00000  Uiso   1.00
C518   C     0.92009   0.99182   0.65344   0.00000  Uiso   1.00
C519   C     0.88932   0.03879   0.56758   0.00000  Uiso   1.00
C520   C     0.98475   0.82060   0.69161   0.00000  Uiso   1.00
C521   C     0.04314   0.83255   0.72260   0.00000  Uiso   1.00
C522   C     0.09662   0.80825   0.70664   0.00000  Uiso   1.00
C523   C     0.14495   0.82475   0.74061   0.00000  Uiso   1.00
C524   C     0.94357   0.79881   0.74091   0.00000  Uiso   1.00
C525   C     0.91331   0.74615   0.74034   0.00000  Uiso   1.00
C526   C     0.87782   0.73424   0.78972   0.00000  Uiso   1.00
C527   C     0.96121   0.88012   0.67212   0.00000  Uiso   1.00
C528   C     0.94578   0.89582   0.61372   0.00000  Uiso   1.00
C529   C     0.92512   0.95237   0.60518   0.00000  Uiso   1.00
H530   H     0.97160   0.92376   0.81782   0.00000  Uiso   1.00
H531   H     0.08248   0.91894   0.84206   0.00000  Uiso   1.00
H532   H     0.89920   0.85685   0.87574   0.00000  Uiso   1.00
H533   H     0.93167   0.00650   0.74914   0.00000  Uiso   1.00
H534   H     0.20763   0.89622   0.84770   0.00000  Uiso   1.00
H535   H     0.82116   0.76529   0.91872   0.00000  Uiso   1.00
H536   H     0.88961   0.08086   0.65175   0.00000  Uiso   1.00
H537   H     0.98866   0.78994   0.65411   0.00000  Uiso   1.00
H538   H     0.10049   0.77778   0.66936   0.00000  Uiso   1.00
H539   H     0.91721   0.71568   0.70305   0.00000  Uiso   1.00
H540   H     0.94967   0.86533   0.57645   0.00000  Uiso   1.00
H541   H     0.22225   0.78164   0.70753   0.00000  Uiso   1.00
H542   H     0.83577   0.65072   0.77856   0.00000  Uiso   1.00
H543   H     0.90423   0.96628   0.51159   0.00000  Uiso   1.00
O544   O     0.28819   0.83332   0.79062   0.00000  Uiso   1.00
O545   O     0.78115   0.66157   0.88379   0.00000  Uiso   1.00
O546   O     0.87096   0.07559   0.53353   0.00000  Uiso   1.00
N547   N     0.19573   0.87093   0.81261   0.00000  Uiso   1.00
N548   N     0.83441   0.74852   0.87902   0.00000  Uiso   1.00
N549   N     0.89839   0.04355   0.62942   0.00000  Uiso   1.00
N550   N     0.20359   0.80927   0.73719   0.00000  Uiso   1.00
N551   N     0.84227   0.68687   0.80360   0.00000  Uiso   1.00
N552   N     0.90625   0.98189   0.55400   0.00000  Uiso   1.00
C553   C     0.39311   0.02449   0.53031   0.00000  Uiso   1.00
C554   C     0.37194   0.96188   0.52077   0.00000  Uiso   1.00
C555   C     0.38847   0.91361   0.55477   0.00000  Uiso   1.00
C556   C     0.36420   0.86008   0.53888   0.00000  Uiso   1.00
C557   C     0.33729   0.76362   0.53142   0.00000  Uiso   1.00
C558   C     0.33819   0.06145   0.53908   0.00000  Uiso   1.00
C559   C     0.32636   0.09692   0.58847   0.00000  Uiso   1.00
C560   C     0.27369   0.12721   0.58798   0.00000  Uiso   1.00
C561   C     0.19442   0.18539   0.60892   0.00000  Uiso   1.00
C562   C     0.41950   0.04381   0.47029   0.00000  Uiso   1.00
C563   C     0.47604   0.06445   0.46185   0.00000  Uiso   1.00
C564   C     0.49182   0.07991   0.40344   0.00000  Uiso   1.00
C565   C     0.53879   0.11068   0.31758   0.00000  Uiso   1.00
C566   C     0.32060   0.01525   0.44161   0.00000  Uiso   1.00
C567   C     0.33255   0.95686   0.47260   0.00000  Uiso   1.00
C568   C     0.30825   0.90338   0.45664   0.00000  Uiso   1.00
C569   C     0.32475   0.85505   0.49061   0.00000  Uiso   1.00
C570   C     0.29881   0.05643   0.49091   0.00000  Uiso   1.00
C571   C     0.24615   0.08669   0.49034   0.00000  Uiso   1.00
C572   C     0.23424   0.12218   0.53972   0.00000  Uiso   1.00
C573   C     0.38012   0.03879   0.42212   0.00000  Uiso   1.00
C574   C     0.39582   0.05422   0.36372   0.00000  Uiso   1.00
C575   C     0.45237   0.07488   0.35518   0.00000  Uiso   1.00
H576   H     0.42376   0.02840   0.56782   0.00000  Uiso   1.00
H577   H     0.41894   0.91752   0.59206   0.00000  Uiso   1.00
H578   H     0.35685   0.10080   0.62574   0.00000  Uiso   1.00
H579   H     0.50650   0.06833   0.49914   0.00000  Uiso   1.00
H580   H     0.39622   0.79237   0.59770   0.00000  Uiso   1.00
H581   H     0.26529   0.17884   0.66872   0.00000  Uiso   1.00
H582   H     0.58086   0.11039   0.40175   0.00000  Uiso   1.00
H583   H     0.28994   0.01134   0.40411   0.00000  Uiso   1.00
H584   H     0.27778   0.89951   0.41936   0.00000  Uiso   1.00
H585   H     0.21568   0.08279   0.45305   0.00000  Uiso   1.00
H586   H     0.36533   0.05033   0.32645   0.00000  Uiso   1.00
H587   H     0.28164   0.77775   0.45753   0.00000  Uiso   1.00
H588   H     0.15072   0.16423   0.52856   0.00000  Uiso   1.00
H589   H     0.46628   0.09577   0.26159   0.00000  Uiso   1.00
O590   O     0.33332   0.71181   0.54062   0.00000  Uiso   1.00
O591   O     0.16157   0.21885   0.63379   0.00000  Uiso   1.00
O592   O     0.57559   0.12904   0.28353   0.00000  Uiso   1.00
N593   N     0.37093   0.80427   0.56261   0.00000  Uiso   1.00
N594   N     0.24852   0.16559   0.62902   0.00000  Uiso   1.00
N595   N     0.54355   0.10161   0.37942   0.00000  Uiso   1.00
N596   N     0.30927   0.79641   0.48719   0.00000  Uiso   1.00
N597   N     0.18687   0.15773   0.55360   0.00000  Uiso   1.00
N598   N     0.48189   0.09375   0.30400   0.00000  Uiso   1.00
C599   C     0.89311   0.52449   0.03031   0.00000  Uiso   1.00
C600   C     0.87194   0.46188   0.02077   0.00000  Uiso   1.00
C601   C     0.88847   0.41361   0.05477   0.00000  Uiso   1.00
C602   C     0.86420   0.36008   0.03888   0.00000  Uiso   1.00
C603   C     0.83729   0.26362   0.03142   0.00000  Uiso   1.00
C604   C     0.83819   0.56145   0.03908   0.00000  Uiso   1.00
C605   C     0.82636   0.59692   0.08847   0.00000  Uiso   1.00
C606   C     0.77369   0.62721   0.08798   0.00000  Uiso   1.00
C607   C     0.69442   0.68539   0.10892   0.00000  Uiso   1.00
C608   C     0.91950   0.54381   0.97029   0.00000  Uiso   1.00
C609   C     0.97604   0.56445   0.96185   0.00000  Uiso   1.00
C610   C     0.99182   0.57991   0.90344   0.00000  Uiso   1.00
C611   C     0.03879   0.61068   0.81758   0.00000  Uiso   1.00
C612   C     0.82060   0.51525   0.94161   0.00000  Uiso   1.00
C613   C     0.83255   0.45686   0.97260   0.00000  Uiso   1.00
C614   C     0.80825   0.40338   0.95664   0.00000  Uiso   1.00
C615   C     0.82475   0.35505   0.99061   0.00000  Uiso   1.00
C616   C     0.79881   0.55643   0.99091   0.00000  Uiso   1.00
C617   C     0.74615   0.58669   0.99034   0.00000  Uiso   1.00
C618   C     0.73424   0.62218   0.03972   0.00000  Uiso   1.00
C619   C     0.88012   0.53879   0.92212   0.00000  Uiso   1.00
C620   C     0.89582   0.55422   0.86372   0.00000  Uiso   1.00
C621   C     0.95237   0.57488   0.85518   0.00000  Uiso   1.00
H622   H     0.92376   0.52840   0.06782   0.00000  Uiso   1.00
H623   H     0.91894   0.41752   0.09206   0.00000  Uiso   1.00
H624   H     0.85685   0.60080   0.12574   0.00000  Uiso   1.00
H625   H     0.00650   0.56833   0.99914   0.00000  Uiso   1.00
H626   H     0.89622   0.29237   0.09770   0.00000  Uiso   1.00
H627   H     0.76529   0.67884   0.16872   0.00000  Uiso   1.00
H628   H     0.08086   0.61039   0.90175   0.00000  Uiso   1.00
H629   H     0.78994   0.51134   0.90411   0.00000  Uiso   1.00
H630   H     0.77778   0.39951   0.91936   0.00000  Uiso   1.00
H631   H     0.71568   0.58279   0.95305   0.00000  Uiso   1.00
H632   H     0.86533   0.55033   0.82645   0.00000  Uiso   1.00
H633   H     0.78164   0.27775   0.95753   0.00000  Uiso   1.00
H634   H     0.65072   0.66423   0.02856   0.00000  Uiso   1.00
H635   H     0.96628   0.59577   0.76159   0.00000  Uiso   1.00
O636   O     0.83332   0.21181   0.04062   0.00000  Uiso   1.00
O637   O     0.66157   0.71885   0.13379   0.00000  Uiso   1.00
O638   O     0.07559   0.62904   0.78353   0.00000  Uiso   1.00
N639   N     0.87093   0.30427   0.06261   0.00000  Uiso   1.00
N640   N     0.74852   0.66559   0.12902   0.00000  Uiso   1.00
N641   N     0.04355   0.60161   0.87942   0.00000  Uiso   1.00
N642   N     0.80927   0.29641   0.98719   0.00000  Uiso   1.00
N643   N     0.68687   0.65773   0.05360   0.00000  Uiso   1.00
N644   N     0.98189   0.59375   0.80400   0.00000  Uiso   1.00
C645   C     0.10689   0.47551   0.03031   0.00000  Uiso   1.00
C646   C     0.12806   0.53812   0.02077   0.00000  Uiso   1.00
C647   C     0.11153   0.58639   0.05477   0.00000  Uiso   1.00
C648   C     0.13580   0.63992   0.03888   0.00000  Uiso   1.00
C649   C     0.16271   0.73638   0.03142   0.00000  Uiso   1.00
C650   C     0.16181   0.43855   0.03908   0.00000  Uiso   1.00
C651   C     0.17364   0.40308   0.08847   0.00000  Uiso   1.00
C652   C     0.22631   0.37279   0.08798   0.00000  Uiso   1.00
C653   C     0.30558   0.31461   0.10892   0.00000  Uiso   1.00
C654   C     0.08050   0.45619   0.97029   0.00000  Uiso   1.00
C655   C     0.02396   0.43555   0.96185   0.00000  Uiso   1.00
C656   C     0.00818   0.42009   0.90344   0.00000  Uiso   1.00
C657   C     0.96121   0.38932   0.81758   0.00000  Uiso   1.00
C658   C     0.17940   0.48475   0.94161   0.00000  Uiso   1.00
C659   C     0.16745   0.54314   0.97260   0.00000  Uiso   1.00
C660   C     0.19175   0.59662   0.95664   0.00000  Uiso   1.00
C661   C     0.17525   0.64495   0.99061   0.00000  Uiso   1.00
C662   C     0.20119   0.44357   0.99091   0.00000  Uiso   1.00
C663   C     0.25385   0.41331   0.99034   0.00000  Uiso   1.00
C664   C     0.26576   0.37782   0.03972   0.00000  Uiso   1.00
C665   C     0.11988   0.46121   0.92212   0.00000  Uiso   1.00
C666   C     0.10418   0.44578   0.86372   0.00000  Uiso   1.00
C667   C     0.04763   0.42512   0.85518   0.00000  Uiso   1.00
H668   H     0.07624   0.47160   0.06782   0.00000  Uiso   1.00
H669   H     0.08106   0.58248   0.09206   0.00000  Uiso   1.00
H670   H     0.14315   0.39920   0.12574   0.00000  Uiso   1.00
H671   H     0.99350   0.43167   0.99914   0.00000  Uiso   1.00
H672   H     0.10378   0.70763   0.09770   0.00000  Uiso   1.00
H673   H     0.23471   0.32116   0.16872   0.00000  Uiso   1.00
H674   H     0.91914   0.38961   0.90175   0.00000  Uiso   1.00
H675   H     0.21006   0.48866   0.90411   0.00000  Uiso   1.00
H676   H     0.22222   0.60049   0.91936   0.00000  Uiso   1.00
H677   H     0.28432   0.41721   0.95305   0.00000  Uiso   1.00
H678   H     0.13467   0.44967   0.82645   0.00000  Uiso   1.00
H679   H     0.21836   0.72225   0.95753   0.00000  Uiso   1.00
H680   H     0.34928   0.33577   0.02856   0.00000  Uiso   1.00
H681   H     0.03372   0.40423   0.76159   0.00000  Uiso   1.00
O682   O     0.16668   0.78819   0.04062   0.00000  Uiso   1.00
O683   O     0.33843   0.28115   0.13379   0.00000  Uiso   1.00
O684   O     0.92441   0.37096   0.78353   0.00000  Uiso   1.00
N685   N     0.12907   0.69573   0.06261   0.00000  Uiso   1.00
N686   N     0.25148   0.33441   0.12902   0.00000  Uiso   1.00
N687   N     0.95645   0.39839   0.87942   0.00000  Uiso   1.00
N688   N     0.19073   0.70359   0.98719   0.00000  Uiso   1.00
N689   N     0.31313   0.34227   0.05360   0.00000  Uiso   1.00
N690   N     0.01811   0.40625   0.80400   0.00000  Uiso   1.00
C691   C     0.60689   0.97551   0.53031   0.00000  Uiso   1.00
C692   C     0.62806   0.03812   0.52077   0.00000  Uiso   1.00
C693   C     0.61153   0.08639   0.55477   0.00000  Uiso   1.00
C694   C     0.63580   0.13992   0.53888   0.00000  Uiso   1.00
C695   C     0.66271   0.23638   0.53142   0.00000  Uiso   1.00
C696   C     0.66181   0.93855   0.53908   0.00000  Uiso   1.00
C697   C     0.67364   0.90308   0.58847   0.00000  Uiso   1.00
C698   C     0.72631   0.87279   0.58798   0.00000  Uiso   1.00
C699   C     0.80558   0.81461   0.60892   0.00000  Uiso   1.00
C700   C     0.58050   0.95619   0.47029   0.00000  Uiso   1.00
C701   C     0.52396   0.93555   0.46185   0.00000  Uiso   1.00
C702   C     0.50818   0.92009   0.40344   0.00000  Uiso   1.00
C703   C     0.46121   0.88932   0.31758   0.00000  Uiso   1.00
C704   C     0.67940   0.98475   0.44161   0.00000  Uiso   1.00
C705   C     0.66745   0.04314   0.47260   0.00000  Uiso   1.00
C706   C     0.69175   0.09662   0.45664   0.00000  Uiso   1.00
C707   C     0.67525   0.14495   0.49061   0.00000  Uiso   1.00
C708   C     0.70119   0.94357   0.49091   0.00000  Uiso   1.00
C709   C     0.75385   0.91331   0.49034   0.00000  Uiso   1.00
C710   C     0.76576   0.87782   0.53972   0.00000  Uiso   1.00
C711   C     0.61988   0.96121   0.42212   0.00000  Uiso   1.00
C712   C     0.60418   0.94578   0.36372   0.00000  Uiso   1.00
C713   C     0.54763   0.92512   0.35518   0.00000  Uiso   1.00
H714   H     0.57624   0.97160   0.56782   0.00000  Uiso   1.00
H715   H     0.58106   0.08248   0.59206   0.00000  Uiso   1.00
H716   H     0.64315   0.89920   0.62574   0.00000  Uiso   1.00
H717   H     0.49350   0.93167   0.49914   0.00000  Uiso   1.00
H718   H     0.60378   0.20763   0.59770   0.00000  Uiso   1.00
H719   H     0.73471   0.82116   0.66872   0.00000  Uiso   1.00
H720   H     0.41914   0.88961   0.40175   0.00000  Uiso   1.00
H721   H     0.71006   0.98866   0.40411   0.00000  Uiso   1.00
H722   H     0.72222   0.10049   0.41936   0.00000  Uiso   1.00
H723   H     0.78432   0.91721   0.45305   0.00000  Uiso   1.00
H724   H     0.63467   0.94967   0.32645   0.00000  Uiso   1.00
H725   H     0.71836   0.22225   0.45753   0.00000  Uiso   1.00
H726   H     0.84928   0.83577   0.52856   0.00000  Uiso   1.00
H727   H     0.53372   0.90423   0.26159   0.00000  Uiso   1.00
O728   O     0.66668   0.28819   0.54062   0.00000  Uiso   1.00
O729   O     0.83843   0.78115   0.63379   0.00000  Uiso   1.00
O730   O     0.42441   0.87096   0.28353   0.00000  Uiso   1.00
N731   N     0.62907   0.19573   0.56261   0.00000  Uiso   1.00
N732   N     0.75148   0.83441   0.62902   0.00000  Uiso   1.00
N733   N     0.45645   0.89839   0.37942   0.00000  Uiso   1.00
N734   N     0.69073   0.20359   0.48719   0.00000  Uiso   1.00
N735   N     0.81313   0.84227   0.55360   0.00000  Uiso   1.00
N736   N     0.51811   0.90625   0.30400   0.00000  Uiso   1.00
