data_job_05313
_audit_creation_date              2018-12-19
_audit_creation_method            'Materials Studio'
_symmetry_space_group_name_H-M    'P1'
_symmetry_Int_Tables_number       1
_symmetry_cell_setting            triclinic
loop_
_symmetry_equiv_pos_as_xyz
  x,y,z
_cell_length_a                    21.3054
_cell_length_b                    43.6137
_cell_length_c                    12.3621
_cell_angle_alpha                 90.0000
_cell_angle_beta                  90.0000
_cell_angle_gamma                 90.0000
loop_
_atom_site_label
_atom_site_type_symbol
_atom_site_fract_x
_atom_site_fract_y
_atom_site_fract_z
_atom_site_U_iso_or_equiv
_atom_site_adp_type
_atom_site_occupancy
C1     C     0.49684   0.44847   0.31541   0.00000  Uiso   1.00
C2     C     0.46399   0.42136   0.26194   0.00000  Uiso   1.00
C3     C     0.43631   0.42149   0.16032   0.00000  Uiso   1.00
C4     C     0.40866   0.39437   0.12594   0.00000  Uiso   1.00
C5     C     0.35762   0.35627   0.03305   0.00000  Uiso   1.00
C6     C     0.46371   0.45340   0.42337   0.00000  Uiso   1.00
C7     C     0.43581   0.48048   0.45748   0.00000  Uiso   1.00
C8     C     0.40793   0.48032   0.55900   0.00000  Uiso   1.00
C9     C     0.35650   0.49197   0.71677   0.00000  Uiso   1.00
C10    C     0.56288   0.43748   0.34291   0.00000  Uiso   1.00
C11    C     0.61836   0.45119   0.30940   0.00000  Uiso   1.00
C12    C     0.67398   0.43764   0.34319   0.00000  Uiso   1.00
C13    C     0.77652   0.42458   0.37603   0.00000  Uiso   1.00
C14    C     0.49695   0.40005   0.43505   0.00000  Uiso   1.00
C15    C     0.46405   0.39506   0.32693   0.00000  Uiso   1.00
C16    C     0.43644   0.36792   0.29269   0.00000  Uiso   1.00
C17    C     0.40872   0.36802   0.19103   0.00000  Uiso   1.00
C18    C     0.46377   0.42710   0.48835   0.00000  Uiso   1.00
C19    C     0.43594   0.42690   0.58985   0.00000  Uiso   1.00
C20    C     0.40799   0.45397   0.62410   0.00000  Uiso   1.00
C21    C     0.56295   0.41118   0.40789   0.00000  Uiso   1.00
C22    C     0.61849   0.39761   0.44175   0.00000  Uiso   1.00
C23    C     0.67404   0.41129   0.40829   0.00000  Uiso   1.00
H24    H     0.49679   0.46895   0.26482   0.00000  Uiso   1.00
H25    H     0.43627   0.44185   0.11006   0.00000  Uiso   1.00
H26    H     0.43577   0.50083   0.40718   0.00000  Uiso   1.00
H27    H     0.61829   0.47154   0.25911   0.00000  Uiso   1.00
H28    H     0.36917   0.40022   0.96715   0.00000  Uiso   1.00
H29    H     0.36815   0.52457   0.59366   0.00000  Uiso   1.00
H30    H     0.75304   0.46281   0.28143   0.00000  Uiso   1.00
H31    H     0.49700   0.37957   0.48564   0.00000  Uiso   1.00
H32    H     0.43649   0.34757   0.34299   0.00000  Uiso   1.00
H33    H     0.43600   0.40655   0.64011   0.00000  Uiso   1.00
H34    H     0.61852   0.37726   0.49204   0.00000  Uiso   1.00
H35    H     0.36936   0.32369   0.15621   0.00000  Uiso   1.00
H36    H     0.36834   0.44805   0.78272   0.00000  Uiso   1.00
H37    H     0.75322   0.38629   0.47048   0.00000  Uiso   1.00
O38    O     0.32944   0.34252   0.96387   0.00000  Uiso   1.00
O39    O     0.32811   0.50567   0.78583   0.00000  Uiso   1.00
O40    O     0.83307   0.42464   0.37618   0.00000  Uiso   1.00
N41    N     0.37753   0.38660   0.03122   0.00000  Uiso   1.00
N42    N     0.37657   0.50286   0.61696   0.00000  Uiso   1.00
N43    N     0.73640   0.44513   0.32507   0.00000  Uiso   1.00
N44    N     0.37763   0.34542   0.13295   0.00000  Uiso   1.00
N45    N     0.37667   0.46168   0.71869   0.00000  Uiso   1.00
N46    N     0.73650   0.40395   0.42679   0.00000  Uiso   1.00
C47    C     0.49684   0.94847   0.81541   0.00000  Uiso   1.00
C48    C     0.46399   0.92136   0.76194   0.00000  Uiso   1.00
C49    C     0.43631   0.92149   0.66032   0.00000  Uiso   1.00
C50    C     0.40866   0.89437   0.62594   0.00000  Uiso   1.00
C51    C     0.35762   0.85627   0.53305   0.00000  Uiso   1.00
C52    C     0.46371   0.95340   0.92337   0.00000  Uiso   1.00
C53    C     0.43581   0.98048   0.95748   0.00000  Uiso   1.00
C54    C     0.40793   0.98032   0.05900   0.00000  Uiso   1.00
C55    C     0.35650   0.99197   0.21677   0.00000  Uiso   1.00
C56    C     0.56288   0.93748   0.84291   0.00000  Uiso   1.00
C57    C     0.61836   0.95119   0.80940   0.00000  Uiso   1.00
C58    C     0.67398   0.93764   0.84319   0.00000  Uiso   1.00
C59    C     0.77652   0.92458   0.87603   0.00000  Uiso   1.00
C60    C     0.49695   0.90005   0.93505   0.00000  Uiso   1.00
C61    C     0.46405   0.89506   0.82693   0.00000  Uiso   1.00
C62    C     0.43644   0.86792   0.79269   0.00000  Uiso   1.00
C63    C     0.40872   0.86802   0.69103   0.00000  Uiso   1.00
C64    C     0.46377   0.92710   0.98835   0.00000  Uiso   1.00
C65    C     0.43594   0.92690   0.08985   0.00000  Uiso   1.00
C66    C     0.40799   0.95397   0.12410   0.00000  Uiso   1.00
C67    C     0.56295   0.91118   0.90789   0.00000  Uiso   1.00
C68    C     0.61849   0.89761   0.94175   0.00000  Uiso   1.00
C69    C     0.67404   0.91129   0.90829   0.00000  Uiso   1.00
H70    H     0.49679   0.96895   0.76482   0.00000  Uiso   1.00
H71    H     0.43627   0.94185   0.61006   0.00000  Uiso   1.00
H72    H     0.43577   0.00083   0.90718   0.00000  Uiso   1.00
H73    H     0.61829   0.97154   0.75911   0.00000  Uiso   1.00
H74    H     0.36917   0.90022   0.46715   0.00000  Uiso   1.00
H75    H     0.36815   0.02457   0.09366   0.00000  Uiso   1.00
H76    H     0.75304   0.96281   0.78143   0.00000  Uiso   1.00
H77    H     0.49700   0.87957   0.98564   0.00000  Uiso   1.00
H78    H     0.43649   0.84757   0.84299   0.00000  Uiso   1.00
H79    H     0.43600   0.90655   0.14011   0.00000  Uiso   1.00
H80    H     0.61852   0.87726   0.99204   0.00000  Uiso   1.00
H81    H     0.36936   0.82369   0.65621   0.00000  Uiso   1.00
H82    H     0.36834   0.94805   0.28272   0.00000  Uiso   1.00
H83    H     0.75322   0.88629   0.97048   0.00000  Uiso   1.00
O84    O     0.32944   0.84252   0.46387   0.00000  Uiso   1.00
O85    O     0.32811   0.00567   0.28583   0.00000  Uiso   1.00
O86    O     0.83307   0.92464   0.87618   0.00000  Uiso   1.00
N87    N     0.37753   0.88660   0.53122   0.00000  Uiso   1.00
N88    N     0.37657   0.00286   0.11696   0.00000  Uiso   1.00
N89    N     0.73640   0.94513   0.82507   0.00000  Uiso   1.00
N90    N     0.37763   0.84542   0.63295   0.00000  Uiso   1.00
N91    N     0.37667   0.96168   0.21869   0.00000  Uiso   1.00
N92    N     0.73650   0.90395   0.92679   0.00000  Uiso   1.00
C93    C     0.99684   0.44847   0.81541   0.00000  Uiso   1.00
C94    C     0.96399   0.42136   0.76194   0.00000  Uiso   1.00
C95    C     0.93631   0.42149   0.66032   0.00000  Uiso   1.00
C96    C     0.90866   0.39437   0.62594   0.00000  Uiso   1.00
C97    C     0.85762   0.35627   0.53305   0.00000  Uiso   1.00
C98    C     0.96371   0.45340   0.92337   0.00000  Uiso   1.00
C99    C     0.93581   0.48048   0.95748   0.00000  Uiso   1.00
C100   C     0.90793   0.48032   0.05900   0.00000  Uiso   1.00
C101   C     0.85650   0.49197   0.21677   0.00000  Uiso   1.00
C102   C     0.06288   0.43748   0.84291   0.00000  Uiso   1.00
C103   C     0.11836   0.45119   0.80940   0.00000  Uiso   1.00
C104   C     0.17398   0.43764   0.84319   0.00000  Uiso   1.00
C105   C     0.27652   0.42458   0.87603   0.00000  Uiso   1.00
C106   C     0.99695   0.40005   0.93505   0.00000  Uiso   1.00
C107   C     0.96405   0.39506   0.82693   0.00000  Uiso   1.00
C108   C     0.93644   0.36792   0.79269   0.00000  Uiso   1.00
C109   C     0.90872   0.36802   0.69103   0.00000  Uiso   1.00
C110   C     0.96377   0.42710   0.98835   0.00000  Uiso   1.00
C111   C     0.93594   0.42690   0.08985   0.00000  Uiso   1.00
C112   C     0.90799   0.45397   0.12410   0.00000  Uiso   1.00
C113   C     0.06295   0.41118   0.90789   0.00000  Uiso   1.00
C114   C     0.11849   0.39761   0.94175   0.00000  Uiso   1.00
C115   C     0.17404   0.41129   0.90829   0.00000  Uiso   1.00
H116   H     0.99679   0.46895   0.76482   0.00000  Uiso   1.00
H117   H     0.93627   0.44185   0.61006   0.00000  Uiso   1.00
H118   H     0.93577   0.50083   0.90718   0.00000  Uiso   1.00
H119   H     0.11829   0.47154   0.75911   0.00000  Uiso   1.00
H120   H     0.86917   0.40022   0.46715   0.00000  Uiso   1.00
H121   H     0.86815   0.52457   0.09366   0.00000  Uiso   1.00
H122   H     0.25304   0.46281   0.78143   0.00000  Uiso   1.00
H123   H     0.99700   0.37957   0.98564   0.00000  Uiso   1.00
H124   H     0.93649   0.34757   0.84299   0.00000  Uiso   1.00
H125   H     0.93600   0.40655   0.14011   0.00000  Uiso   1.00
H126   H     0.11852   0.37726   0.99204   0.00000  Uiso   1.00
H127   H     0.86936   0.32369   0.65621   0.00000  Uiso   1.00
H128   H     0.86834   0.44805   0.28272   0.00000  Uiso   1.00
H129   H     0.25322   0.38629   0.97048   0.00000  Uiso   1.00
O130   O     0.82944   0.34252   0.46387   0.00000  Uiso   1.00
O131   O     0.82811   0.50567   0.28583   0.00000  Uiso   1.00
O132   O     0.33307   0.42464   0.87618   0.00000  Uiso   1.00
N133   N     0.87753   0.38660   0.53122   0.00000  Uiso   1.00
N134   N     0.87657   0.50286   0.11696   0.00000  Uiso   1.00
N135   N     0.23640   0.44513   0.82507   0.00000  Uiso   1.00
N136   N     0.87763   0.34542   0.63295   0.00000  Uiso   1.00
N137   N     0.87667   0.46168   0.21869   0.00000  Uiso   1.00
N138   N     0.23650   0.40395   0.92679   0.00000  Uiso   1.00
C139   C     0.99684   0.94847   0.31541   0.00000  Uiso   1.00
C140   C     0.96399   0.92136   0.26194   0.00000  Uiso   1.00
C141   C     0.93631   0.92149   0.16032   0.00000  Uiso   1.00
C142   C     0.90866   0.89437   0.12594   0.00000  Uiso   1.00
C143   C     0.85762   0.85627   0.03305   0.00000  Uiso   1.00
C144   C     0.96371   0.95340   0.42337   0.00000  Uiso   1.00
C145   C     0.93581   0.98048   0.45748   0.00000  Uiso   1.00
C146   C     0.90793   0.98032   0.55900   0.00000  Uiso   1.00
C147   C     0.85650   0.99197   0.71677   0.00000  Uiso   1.00
C148   C     0.06288   0.93748   0.34291   0.00000  Uiso   1.00
C149   C     0.11836   0.95119   0.30940   0.00000  Uiso   1.00
C150   C     0.17398   0.93764   0.34319   0.00000  Uiso   1.00
C151   C     0.27652   0.92458   0.37603   0.00000  Uiso   1.00
C152   C     0.99695   0.90005   0.43505   0.00000  Uiso   1.00
C153   C     0.96405   0.89506   0.32693   0.00000  Uiso   1.00
C154   C     0.93644   0.86792   0.29269   0.00000  Uiso   1.00
C155   C     0.90872   0.86802   0.19103   0.00000  Uiso   1.00
C156   C     0.96377   0.92710   0.48835   0.00000  Uiso   1.00
C157   C     0.93594   0.92690   0.58985   0.00000  Uiso   1.00
C158   C     0.90799   0.95397   0.62410   0.00000  Uiso   1.00
C159   C     0.06295   0.91118   0.40789   0.00000  Uiso   1.00
C160   C     0.11849   0.89761   0.44175   0.00000  Uiso   1.00
C161   C     0.17404   0.91129   0.40829   0.00000  Uiso   1.00
H162   H     0.99679   0.96895   0.26482   0.00000  Uiso   1.00
H163   H     0.93627   0.94185   0.11006   0.00000  Uiso   1.00
H164   H     0.93577   0.00083   0.40718   0.00000  Uiso   1.00
H165   H     0.11829   0.97154   0.25911   0.00000  Uiso   1.00
H166   H     0.86917   0.90022   0.96715   0.00000  Uiso   1.00
H167   H     0.86815   0.02457   0.59366   0.00000  Uiso   1.00
H168   H     0.25304   0.96281   0.28143   0.00000  Uiso   1.00
H169   H     0.99700   0.87957   0.48564   0.00000  Uiso   1.00
H170   H     0.93649   0.84757   0.34299   0.00000  Uiso   1.00
H171   H     0.93600   0.90655   0.64011   0.00000  Uiso   1.00
H172   H     0.11852   0.87726   0.49204   0.00000  Uiso   1.00
H173   H     0.86936   0.82369   0.15621   0.00000  Uiso   1.00
H174   H     0.86834   0.94805   0.78272   0.00000  Uiso   1.00
H175   H     0.25322   0.88629   0.47048   0.00000  Uiso   1.00
O176   O     0.82944   0.84252   0.96387   0.00000  Uiso   1.00
O177   O     0.82811   0.00567   0.78583   0.00000  Uiso   1.00
O178   O     0.33307   0.92464   0.37618   0.00000  Uiso   1.00
N179   N     0.87753   0.88660   0.03122   0.00000  Uiso   1.00
N180   N     0.87657   0.00286   0.61696   0.00000  Uiso   1.00
N181   N     0.23640   0.94513   0.32507   0.00000  Uiso   1.00
N182   N     0.87763   0.84542   0.13295   0.00000  Uiso   1.00
N183   N     0.87667   0.96168   0.71869   0.00000  Uiso   1.00
N184   N     0.23650   0.90395   0.42679   0.00000  Uiso   1.00
C185   C     0.50316   0.55153   0.31541   0.00000  Uiso   1.00
C186   C     0.53601   0.57864   0.26194   0.00000  Uiso   1.00
C187   C     0.56369   0.57851   0.16032   0.00000  Uiso   1.00
C188   C     0.59134   0.60563   0.12594   0.00000  Uiso   1.00
C189   C     0.64238   0.64373   0.03305   0.00000  Uiso   1.00
C190   C     0.53629   0.54660   0.42337   0.00000  Uiso   1.00
C191   C     0.56419   0.51952   0.45748   0.00000  Uiso   1.00
C192   C     0.59207   0.51968   0.55900   0.00000  Uiso   1.00
C193   C     0.64350   0.50803   0.71677   0.00000  Uiso   1.00
C194   C     0.43712   0.56252   0.34291   0.00000  Uiso   1.00
C195   C     0.38164   0.54881   0.30940   0.00000  Uiso   1.00
C196   C     0.32602   0.56236   0.34319   0.00000  Uiso   1.00
C197   C     0.22348   0.57542   0.37603   0.00000  Uiso   1.00
C198   C     0.50305   0.59995   0.43505   0.00000  Uiso   1.00
C199   C     0.53595   0.60494   0.32693   0.00000  Uiso   1.00
C200   C     0.56356   0.63208   0.29269   0.00000  Uiso   1.00
C201   C     0.59128   0.63198   0.19103   0.00000  Uiso   1.00
C202   C     0.53623   0.57290   0.48835   0.00000  Uiso   1.00
C203   C     0.56406   0.57310   0.58985   0.00000  Uiso   1.00
C204   C     0.59201   0.54603   0.62410   0.00000  Uiso   1.00
C205   C     0.43705   0.58882   0.40789   0.00000  Uiso   1.00
C206   C     0.38151   0.60239   0.44175   0.00000  Uiso   1.00
C207   C     0.32596   0.58871   0.40829   0.00000  Uiso   1.00
H208   H     0.50321   0.53105   0.26482   0.00000  Uiso   1.00
H209   H     0.56373   0.55815   0.11006   0.00000  Uiso   1.00
H210   H     0.56423   0.49917   0.40718   0.00000  Uiso   1.00
H211   H     0.38171   0.52846   0.25911   0.00000  Uiso   1.00
H212   H     0.63083   0.59978   0.96715   0.00000  Uiso   1.00
H213   H     0.63185   0.47543   0.59366   0.00000  Uiso   1.00
H214   H     0.24696   0.53719   0.28143   0.00000  Uiso   1.00
H215   H     0.50300   0.62043   0.48564   0.00000  Uiso   1.00
H216   H     0.56351   0.65243   0.34299   0.00000  Uiso   1.00
H217   H     0.56400   0.59345   0.64011   0.00000  Uiso   1.00
H218   H     0.38148   0.62274   0.49204   0.00000  Uiso   1.00
H219   H     0.63064   0.67631   0.15621   0.00000  Uiso   1.00
H220   H     0.63166   0.55195   0.78272   0.00000  Uiso   1.00
H221   H     0.24678   0.61371   0.47048   0.00000  Uiso   1.00
O222   O     0.67056   0.65748   0.96387   0.00000  Uiso   1.00
O223   O     0.67189   0.49433   0.78583   0.00000  Uiso   1.00
O224   O     0.16693   0.57536   0.37618   0.00000  Uiso   1.00
N225   N     0.62247   0.61340   0.03122   0.00000  Uiso   1.00
N226   N     0.62343   0.49714   0.61696   0.00000  Uiso   1.00
N227   N     0.26360   0.55487   0.32507   0.00000  Uiso   1.00
N228   N     0.62237   0.65458   0.13295   0.00000  Uiso   1.00
N229   N     0.62333   0.53832   0.71869   0.00000  Uiso   1.00
N230   N     0.26350   0.59605   0.42679   0.00000  Uiso   1.00
C231   C     0.50316   0.05153   0.81541   0.00000  Uiso   1.00
C232   C     0.53601   0.07864   0.76194   0.00000  Uiso   1.00
C233   C     0.56369   0.07851   0.66032   0.00000  Uiso   1.00
C234   C     0.59134   0.10563   0.62594   0.00000  Uiso   1.00
C235   C     0.64238   0.14373   0.53305   0.00000  Uiso   1.00
C236   C     0.53629   0.04660   0.92337   0.00000  Uiso   1.00
C237   C     0.56419   0.01952   0.95748   0.00000  Uiso   1.00
C238   C     0.59207   0.01968   0.05900   0.00000  Uiso   1.00
C239   C     0.64350   0.00803   0.21677   0.00000  Uiso   1.00
C240   C     0.43712   0.06252   0.84291   0.00000  Uiso   1.00
C241   C     0.38164   0.04881   0.80940   0.00000  Uiso   1.00
C242   C     0.32602   0.06236   0.84319   0.00000  Uiso   1.00
C243   C     0.22348   0.07542   0.87603   0.00000  Uiso   1.00
C244   C     0.50305   0.09995   0.93505   0.00000  Uiso   1.00
C245   C     0.53595   0.10494   0.82693   0.00000  Uiso   1.00
C246   C     0.56356   0.13208   0.79269   0.00000  Uiso   1.00
C247   C     0.59128   0.13198   0.69103   0.00000  Uiso   1.00
C248   C     0.53623   0.07290   0.98835   0.00000  Uiso   1.00
C249   C     0.56406   0.07310   0.08985   0.00000  Uiso   1.00
C250   C     0.59201   0.04603   0.12410   0.00000  Uiso   1.00
C251   C     0.43705   0.08882   0.90789   0.00000  Uiso   1.00
C252   C     0.38151   0.10239   0.94175   0.00000  Uiso   1.00
C253   C     0.32596   0.08871   0.90829   0.00000  Uiso   1.00
H254   H     0.50321   0.03105   0.76482   0.00000  Uiso   1.00
H255   H     0.56373   0.05815   0.61006   0.00000  Uiso   1.00
H256   H     0.56423   0.99917   0.90718   0.00000  Uiso   1.00
H257   H     0.38171   0.02846   0.75911   0.00000  Uiso   1.00
H258   H     0.63083   0.09978   0.46715   0.00000  Uiso   1.00
H259   H     0.63185   0.97543   0.09366   0.00000  Uiso   1.00
H260   H     0.24696   0.03719   0.78143   0.00000  Uiso   1.00
H261   H     0.50300   0.12043   0.98564   0.00000  Uiso   1.00
H262   H     0.56351   0.15243   0.84299   0.00000  Uiso   1.00
H263   H     0.56400   0.09345   0.14011   0.00000  Uiso   1.00
H264   H     0.38148   0.12274   0.99204   0.00000  Uiso   1.00
H265   H     0.63064   0.17631   0.65621   0.00000  Uiso   1.00
H266   H     0.63166   0.05195   0.28272   0.00000  Uiso   1.00
H267   H     0.24678   0.11371   0.97048   0.00000  Uiso   1.00
O268   O     0.67056   0.15748   0.46387   0.00000  Uiso   1.00
O269   O     0.67189   0.99433   0.28583   0.00000  Uiso   1.00
O270   O     0.16693   0.07536   0.87618   0.00000  Uiso   1.00
N271   N     0.62247   0.11340   0.53122   0.00000  Uiso   1.00
N272   N     0.62343   0.99714   0.11696   0.00000  Uiso   1.00
N273   N     0.26360   0.05487   0.82507   0.00000  Uiso   1.00
N274   N     0.62237   0.15458   0.63295   0.00000  Uiso   1.00
N275   N     0.62333   0.03832   0.21869   0.00000  Uiso   1.00
N276   N     0.26350   0.09605   0.92679   0.00000  Uiso   1.00
C277   C     0.00316   0.55153   0.81541   0.00000  Uiso   1.00
C278   C     0.03601   0.57864   0.76194   0.00000  Uiso   1.00
C279   C     0.06369   0.57851   0.66032   0.00000  Uiso   1.00
C280   C     0.09134   0.60563   0.62594   0.00000  Uiso   1.00
C281   C     0.14238   0.64373   0.53305   0.00000  Uiso   1.00
C282   C     0.03629   0.54660   0.92337   0.00000  Uiso   1.00
C283   C     0.06419   0.51952   0.95748   0.00000  Uiso   1.00
C284   C     0.09207   0.51968   0.05900   0.00000  Uiso   1.00
C285   C     0.14350   0.50803   0.21677   0.00000  Uiso   1.00
C286   C     0.93712   0.56252   0.84291   0.00000  Uiso   1.00
C287   C     0.88164   0.54881   0.80940   0.00000  Uiso   1.00
C288   C     0.82602   0.56236   0.84319   0.00000  Uiso   1.00
C289   C     0.72348   0.57542   0.87603   0.00000  Uiso   1.00
C290   C     0.00305   0.59995   0.93505   0.00000  Uiso   1.00
C291   C     0.03595   0.60494   0.82693   0.00000  Uiso   1.00
C292   C     0.06356   0.63208   0.79269   0.00000  Uiso   1.00
C293   C     0.09128   0.63198   0.69103   0.00000  Uiso   1.00
C294   C     0.03623   0.57290   0.98835   0.00000  Uiso   1.00
C295   C     0.06406   0.57310   0.08985   0.00000  Uiso   1.00
C296   C     0.09201   0.54603   0.12410   0.00000  Uiso   1.00
C297   C     0.93705   0.58882   0.90789   0.00000  Uiso   1.00
C298   C     0.88151   0.60239   0.94175   0.00000  Uiso   1.00
C299   C     0.82596   0.58871   0.90829   0.00000  Uiso   1.00
H300   H     0.00321   0.53105   0.76482   0.00000  Uiso   1.00
H301   H     0.06373   0.55815   0.61006   0.00000  Uiso   1.00
H302   H     0.06423   0.49917   0.90718   0.00000  Uiso   1.00
H303   H     0.88171   0.52846   0.75911   0.00000  Uiso   1.00
H304   H     0.13083   0.59978   0.46715   0.00000  Uiso   1.00
H305   H     0.13185   0.47543   0.09366   0.00000  Uiso   1.00
H306   H     0.74696   0.53719   0.78143   0.00000  Uiso   1.00
H307   H     0.00300   0.62043   0.98564   0.00000  Uiso   1.00
H308   H     0.06351   0.65243   0.84299   0.00000  Uiso   1.00
H309   H     0.06400   0.59345   0.14011   0.00000  Uiso   1.00
H310   H     0.88148   0.62274   0.99204   0.00000  Uiso   1.00
H311   H     0.13064   0.67631   0.65621   0.00000  Uiso   1.00
H312   H     0.13166   0.55195   0.28272   0.00000  Uiso   1.00
H313   H     0.74678   0.61371   0.97048   0.00000  Uiso   1.00
O314   O     0.17056   0.65748   0.46387   0.00000  Uiso   1.00
O315   O     0.17189   0.49433   0.28583   0.00000  Uiso   1.00
O316   O     0.66693   0.57536   0.87618   0.00000  Uiso   1.00
N317   N     0.12247   0.61340   0.53122   0.00000  Uiso   1.00
N318   N     0.12343   0.49714   0.11696   0.00000  Uiso   1.00
N319   N     0.76360   0.55487   0.82507   0.00000  Uiso   1.00
N320   N     0.12237   0.65458   0.63295   0.00000  Uiso   1.00
N321   N     0.12333   0.53832   0.21869   0.00000  Uiso   1.00
N322   N     0.76350   0.59605   0.92679   0.00000  Uiso   1.00
C323   C     0.00316   0.05153   0.31541   0.00000  Uiso   1.00
C324   C     0.03601   0.07864   0.26194   0.00000  Uiso   1.00
C325   C     0.06369   0.07851   0.16032   0.00000  Uiso   1.00
C326   C     0.09134   0.10563   0.12594   0.00000  Uiso   1.00
C327   C     0.14238   0.14373   0.03305   0.00000  Uiso   1.00
C328   C     0.03629   0.04660   0.42337   0.00000  Uiso   1.00
C329   C     0.06419   0.01952   0.45748   0.00000  Uiso   1.00
C330   C     0.09207   0.01968   0.55900   0.00000  Uiso   1.00
C331   C     0.14350   0.00803   0.71677   0.00000  Uiso   1.00
C332   C     0.93712   0.06252   0.34291   0.00000  Uiso   1.00
C333   C     0.88164   0.04881   0.30940   0.00000  Uiso   1.00
C334   C     0.82602   0.06236   0.34319   0.00000  Uiso   1.00
C335   C     0.72348   0.07542   0.37603   0.00000  Uiso   1.00
C336   C     0.00305   0.09995   0.43505   0.00000  Uiso   1.00
C337   C     0.03595   0.10494   0.32693   0.00000  Uiso   1.00
C338   C     0.06356   0.13208   0.29269   0.00000  Uiso   1.00
C339   C     0.09128   0.13198   0.19103   0.00000  Uiso   1.00
C340   C     0.03623   0.07290   0.48835   0.00000  Uiso   1.00
C341   C     0.06406   0.07310   0.58985   0.00000  Uiso   1.00
C342   C     0.09201   0.04603   0.62410   0.00000  Uiso   1.00
C343   C     0.93705   0.08882   0.40789   0.00000  Uiso   1.00
C344   C     0.88151   0.10239   0.44175   0.00000  Uiso   1.00
C345   C     0.82596   0.08871   0.40829   0.00000  Uiso   1.00
H346   H     0.00321   0.03105   0.26482   0.00000  Uiso   1.00
H347   H     0.06373   0.05815   0.11006   0.00000  Uiso   1.00
H348   H     0.06423   0.99917   0.40718   0.00000  Uiso   1.00
H349   H     0.88171   0.02846   0.25911   0.00000  Uiso   1.00
H350   H     0.13083   0.09978   0.96715   0.00000  Uiso   1.00
H351   H     0.13185   0.97543   0.59366   0.00000  Uiso   1.00
H352   H     0.74696   0.03719   0.28143   0.00000  Uiso   1.00
H353   H     0.00300   0.12043   0.48564   0.00000  Uiso   1.00
H354   H     0.06351   0.15243   0.34299   0.00000  Uiso   1.00
H355   H     0.06400   0.09345   0.64011   0.00000  Uiso   1.00
H356   H     0.88148   0.12274   0.49204   0.00000  Uiso   1.00
H357   H     0.13064   0.17631   0.15621   0.00000  Uiso   1.00
H358   H     0.13166   0.05195   0.78272   0.00000  Uiso   1.00
H359   H     0.74678   0.11371   0.47048   0.00000  Uiso   1.00
O360   O     0.17056   0.15748   0.96387   0.00000  Uiso   1.00
O361   O     0.17189   0.99433   0.78583   0.00000  Uiso   1.00
O362   O     0.66693   0.07536   0.37618   0.00000  Uiso   1.00
N363   N     0.12247   0.11340   0.03122   0.00000  Uiso   1.00
N364   N     0.12343   0.99714   0.61696   0.00000  Uiso   1.00
N365   N     0.76360   0.05487   0.32507   0.00000  Uiso   1.00
N366   N     0.12237   0.15458   0.13295   0.00000  Uiso   1.00
N367   N     0.12333   0.03832   0.71869   0.00000  Uiso   1.00
N368   N     0.76350   0.09605   0.42679   0.00000  Uiso   1.00
C369   C     0.74684   0.80153   0.56541   0.00000  Uiso   1.00
C370   C     0.71399   0.82864   0.51194   0.00000  Uiso   1.00
C371   C     0.68631   0.82851   0.41032   0.00000  Uiso   1.00
C372   C     0.65866   0.85563   0.37594   0.00000  Uiso   1.00
C373   C     0.60762   0.89373   0.28305   0.00000  Uiso   1.00
C374   C     0.71371   0.79660   0.67337   0.00000  Uiso   1.00
C375   C     0.68581   0.76952   0.70748   0.00000  Uiso   1.00
C376   C     0.65793   0.76968   0.80900   0.00000  Uiso   1.00
C377   C     0.60650   0.75803   0.96677   0.00000  Uiso   1.00
C378   C     0.81288   0.81252   0.59291   0.00000  Uiso   1.00
C379   C     0.86836   0.79881   0.55940   0.00000  Uiso   1.00
C380   C     0.92398   0.81236   0.59319   0.00000  Uiso   1.00
C381   C     0.02652   0.82542   0.62603   0.00000  Uiso   1.00
C382   C     0.74695   0.84995   0.68505   0.00000  Uiso   1.00
C383   C     0.71405   0.85494   0.57693   0.00000  Uiso   1.00
C384   C     0.68644   0.88208   0.54269   0.00000  Uiso   1.00
C385   C     0.65872   0.88198   0.44103   0.00000  Uiso   1.00
C386   C     0.71377   0.82290   0.73835   0.00000  Uiso   1.00
C387   C     0.68594   0.82310   0.83985   0.00000  Uiso   1.00
C388   C     0.65799   0.79603   0.87410   0.00000  Uiso   1.00
C389   C     0.81295   0.83882   0.65789   0.00000  Uiso   1.00
C390   C     0.86849   0.85239   0.69175   0.00000  Uiso   1.00
C391   C     0.92404   0.83871   0.65829   0.00000  Uiso   1.00
H392   H     0.74679   0.78105   0.51482   0.00000  Uiso   1.00
H393   H     0.68627   0.80815   0.36006   0.00000  Uiso   1.00
H394   H     0.68577   0.74917   0.65718   0.00000  Uiso   1.00
H395   H     0.86829   0.77846   0.50911   0.00000  Uiso   1.00
H396   H     0.61917   0.84978   0.21715   0.00000  Uiso   1.00
H397   H     0.61815   0.72543   0.84366   0.00000  Uiso   1.00
H398   H     0.00304   0.78719   0.53143   0.00000  Uiso   1.00
H399   H     0.74700   0.87043   0.73564   0.00000  Uiso   1.00
H400   H     0.68649   0.90243   0.59299   0.00000  Uiso   1.00
H401   H     0.68600   0.84345   0.89011   0.00000  Uiso   1.00
H402   H     0.86852   0.87274   0.74204   0.00000  Uiso   1.00
H403   H     0.61936   0.92631   0.40621   0.00000  Uiso   1.00
H404   H     0.61834   0.80195   0.03272   0.00000  Uiso   1.00
H405   H     0.00322   0.86371   0.72048   0.00000  Uiso   1.00
O406   O     0.57944   0.90748   0.21387   0.00000  Uiso   1.00
O407   O     0.57811   0.74433   0.03583   0.00000  Uiso   1.00
O408   O     0.08307   0.82536   0.62618   0.00000  Uiso   1.00
N409   N     0.62753   0.86340   0.28122   0.00000  Uiso   1.00
N410   N     0.62657   0.74714   0.86696   0.00000  Uiso   1.00
N411   N     0.98640   0.80487   0.57507   0.00000  Uiso   1.00
N412   N     0.62763   0.90458   0.38295   0.00000  Uiso   1.00
N413   N     0.62667   0.78832   0.96869   0.00000  Uiso   1.00
N414   N     0.98650   0.84605   0.67679   0.00000  Uiso   1.00
C415   C     0.74684   0.30153   0.06541   0.00000  Uiso   1.00
C416   C     0.71399   0.32864   0.01194   0.00000  Uiso   1.00
C417   C     0.68631   0.32851   0.91032   0.00000  Uiso   1.00
C418   C     0.65866   0.35563   0.87594   0.00000  Uiso   1.00
C419   C     0.60762   0.39373   0.78305   0.00000  Uiso   1.00
C420   C     0.71371   0.29660   0.17337   0.00000  Uiso   1.00
C421   C     0.68581   0.26952   0.20748   0.00000  Uiso   1.00
C422   C     0.65793   0.26968   0.30900   0.00000  Uiso   1.00
C423   C     0.60650   0.25803   0.46677   0.00000  Uiso   1.00
C424   C     0.81288   0.31252   0.09291   0.00000  Uiso   1.00
C425   C     0.86836   0.29881   0.05940   0.00000  Uiso   1.00
C426   C     0.92398   0.31236   0.09319   0.00000  Uiso   1.00
C427   C     0.02652   0.32542   0.12603   0.00000  Uiso   1.00
C428   C     0.74695   0.34995   0.18505   0.00000  Uiso   1.00
C429   C     0.71405   0.35494   0.07693   0.00000  Uiso   1.00
C430   C     0.68644   0.38208   0.04269   0.00000  Uiso   1.00
C431   C     0.65872   0.38198   0.94103   0.00000  Uiso   1.00
C432   C     0.71377   0.32290   0.23835   0.00000  Uiso   1.00
C433   C     0.68594   0.32310   0.33985   0.00000  Uiso   1.00
C434   C     0.65799   0.29603   0.37410   0.00000  Uiso   1.00
C435   C     0.81295   0.33882   0.15789   0.00000  Uiso   1.00
C436   C     0.86849   0.35239   0.19175   0.00000  Uiso   1.00
C437   C     0.92404   0.33871   0.15829   0.00000  Uiso   1.00
H438   H     0.74679   0.28105   0.01482   0.00000  Uiso   1.00
H439   H     0.68627   0.30815   0.86006   0.00000  Uiso   1.00
H440   H     0.68577   0.24917   0.15718   0.00000  Uiso   1.00
H441   H     0.86829   0.27846   0.00911   0.00000  Uiso   1.00
H442   H     0.61917   0.34978   0.71715   0.00000  Uiso   1.00
H443   H     0.61815   0.22543   0.34366   0.00000  Uiso   1.00
H444   H     0.00304   0.28719   0.03143   0.00000  Uiso   1.00
H445   H     0.74700   0.37043   0.23564   0.00000  Uiso   1.00
H446   H     0.68649   0.40243   0.09299   0.00000  Uiso   1.00
H447   H     0.68600   0.34345   0.39011   0.00000  Uiso   1.00
H448   H     0.86852   0.37274   0.24204   0.00000  Uiso   1.00
H449   H     0.61936   0.42631   0.90621   0.00000  Uiso   1.00
H450   H     0.61834   0.30195   0.53272   0.00000  Uiso   1.00
H451   H     0.00322   0.36371   0.22048   0.00000  Uiso   1.00
O452   O     0.57944   0.40748   0.71387   0.00000  Uiso   1.00
O453   O     0.57811   0.24433   0.53583   0.00000  Uiso   1.00
O454   O     0.08307   0.32536   0.12618   0.00000  Uiso   1.00
N455   N     0.62753   0.36340   0.78122   0.00000  Uiso   1.00
N456   N     0.62657   0.24714   0.36696   0.00000  Uiso   1.00
N457   N     0.98640   0.30487   0.07507   0.00000  Uiso   1.00
N458   N     0.62763   0.40458   0.88295   0.00000  Uiso   1.00
N459   N     0.62667   0.28832   0.46869   0.00000  Uiso   1.00
N460   N     0.98650   0.34605   0.17679   0.00000  Uiso   1.00
C461   C     0.24684   0.80153   0.06541   0.00000  Uiso   1.00
C462   C     0.21399   0.82864   0.01194   0.00000  Uiso   1.00
C463   C     0.18631   0.82851   0.91032   0.00000  Uiso   1.00
C464   C     0.15866   0.85563   0.87594   0.00000  Uiso   1.00
C465   C     0.10762   0.89373   0.78305   0.00000  Uiso   1.00
C466   C     0.21371   0.79660   0.17337   0.00000  Uiso   1.00
C467   C     0.18581   0.76952   0.20748   0.00000  Uiso   1.00
C468   C     0.15793   0.76968   0.30900   0.00000  Uiso   1.00
C469   C     0.10650   0.75803   0.46677   0.00000  Uiso   1.00
C470   C     0.31288   0.81252   0.09291   0.00000  Uiso   1.00
C471   C     0.36836   0.79881   0.05940   0.00000  Uiso   1.00
C472   C     0.42398   0.81236   0.09319   0.00000  Uiso   1.00
C473   C     0.52652   0.82542   0.12603   0.00000  Uiso   1.00
C474   C     0.24695   0.84995   0.18505   0.00000  Uiso   1.00
C475   C     0.21405   0.85494   0.07693   0.00000  Uiso   1.00
C476   C     0.18644   0.88208   0.04269   0.00000  Uiso   1.00
C477   C     0.15872   0.88198   0.94103   0.00000  Uiso   1.00
C478   C     0.21377   0.82290   0.23835   0.00000  Uiso   1.00
C479   C     0.18594   0.82310   0.33985   0.00000  Uiso   1.00
C480   C     0.15799   0.79603   0.37410   0.00000  Uiso   1.00
C481   C     0.31295   0.83882   0.15789   0.00000  Uiso   1.00
C482   C     0.36849   0.85239   0.19175   0.00000  Uiso   1.00
C483   C     0.42404   0.83871   0.15829   0.00000  Uiso   1.00
H484   H     0.24679   0.78105   0.01482   0.00000  Uiso   1.00
H485   H     0.18627   0.80815   0.86006   0.00000  Uiso   1.00
H486   H     0.18577   0.74917   0.15718   0.00000  Uiso   1.00
H487   H     0.36829   0.77846   0.00911   0.00000  Uiso   1.00
H488   H     0.11917   0.84978   0.71715   0.00000  Uiso   1.00
H489   H     0.11815   0.72543   0.34366   0.00000  Uiso   1.00
H490   H     0.50304   0.78719   0.03143   0.00000  Uiso   1.00
H491   H     0.24700   0.87043   0.23564   0.00000  Uiso   1.00
H492   H     0.18649   0.90243   0.09299   0.00000  Uiso   1.00
H493   H     0.18600   0.84345   0.39011   0.00000  Uiso   1.00
H494   H     0.36852   0.87274   0.24204   0.00000  Uiso   1.00
H495   H     0.11936   0.92631   0.90621   0.00000  Uiso   1.00
H496   H     0.11834   0.80195   0.53272   0.00000  Uiso   1.00
H497   H     0.50322   0.86371   0.22048   0.00000  Uiso   1.00
O498   O     0.07944   0.90748   0.71387   0.00000  Uiso   1.00
O499   O     0.07811   0.74433   0.53583   0.00000  Uiso   1.00
O500   O     0.58307   0.82536   0.12618   0.00000  Uiso   1.00
N501   N     0.12753   0.86340   0.78122   0.00000  Uiso   1.00
N502   N     0.12657   0.74714   0.36696   0.00000  Uiso   1.00
N503   N     0.48640   0.80487   0.07507   0.00000  Uiso   1.00
N504   N     0.12763   0.90458   0.88295   0.00000  Uiso   1.00
N505   N     0.12667   0.78832   0.46869   0.00000  Uiso   1.00
N506   N     0.48650   0.84605   0.17679   0.00000  Uiso   1.00
C507   C     0.24684   0.30153   0.56541   0.00000  Uiso   1.00
C508   C     0.21399   0.32864   0.51194   0.00000  Uiso   1.00
C509   C     0.18631   0.32851   0.41032   0.00000  Uiso   1.00
C510   C     0.15866   0.35563   0.37594   0.00000  Uiso   1.00
C511   C     0.10762   0.39373   0.28305   0.00000  Uiso   1.00
C512   C     0.21371   0.29660   0.67337   0.00000  Uiso   1.00
C513   C     0.18581   0.26952   0.70748   0.00000  Uiso   1.00
C514   C     0.15793   0.26968   0.80900   0.00000  Uiso   1.00
C515   C     0.10650   0.25803   0.96677   0.00000  Uiso   1.00
C516   C     0.31288   0.31252   0.59291   0.00000  Uiso   1.00
C517   C     0.36836   0.29881   0.55940   0.00000  Uiso   1.00
C518   C     0.42398   0.31236   0.59319   0.00000  Uiso   1.00
C519   C     0.52652   0.32542   0.62603   0.00000  Uiso   1.00
C520   C     0.24695   0.34995   0.68505   0.00000  Uiso   1.00
C521   C     0.21405   0.35494   0.57693   0.00000  Uiso   1.00
C522   C     0.18644   0.38208   0.54269   0.00000  Uiso   1.00
C523   C     0.15872   0.38198   0.44103   0.00000  Uiso   1.00
C524   C     0.21377   0.32290   0.73835   0.00000  Uiso   1.00
C525   C     0.18594   0.32310   0.83985   0.00000  Uiso   1.00
C526   C     0.15799   0.29603   0.87410   0.00000  Uiso   1.00
C527   C     0.31295   0.33882   0.65789   0.00000  Uiso   1.00
C528   C     0.36849   0.35239   0.69175   0.00000  Uiso   1.00
C529   C     0.42404   0.33871   0.65829   0.00000  Uiso   1.00
H530   H     0.24679   0.28105   0.51482   0.00000  Uiso   1.00
H531   H     0.18627   0.30815   0.36006   0.00000  Uiso   1.00
H532   H     0.18577   0.24917   0.65718   0.00000  Uiso   1.00
H533   H     0.36829   0.27846   0.50911   0.00000  Uiso   1.00
H534   H     0.11917   0.34978   0.21715   0.00000  Uiso   1.00
H535   H     0.11815   0.22543   0.84366   0.00000  Uiso   1.00
H536   H     0.50304   0.28719   0.53143   0.00000  Uiso   1.00
H537   H     0.24700   0.37043   0.73564   0.00000  Uiso   1.00
H538   H     0.18649   0.40243   0.59299   0.00000  Uiso   1.00
H539   H     0.18600   0.34345   0.89011   0.00000  Uiso   1.00
H540   H     0.36852   0.37274   0.74204   0.00000  Uiso   1.00
H541   H     0.11936   0.42631   0.40621   0.00000  Uiso   1.00
H542   H     0.11834   0.30195   0.03272   0.00000  Uiso   1.00
H543   H     0.50322   0.36371   0.72048   0.00000  Uiso   1.00
O544   O     0.07944   0.40748   0.21387   0.00000  Uiso   1.00
O545   O     0.07811   0.24433   0.03583   0.00000  Uiso   1.00
O546   O     0.58307   0.32536   0.62618   0.00000  Uiso   1.00
N547   N     0.12753   0.36340   0.28122   0.00000  Uiso   1.00
N548   N     0.12657   0.24714   0.86696   0.00000  Uiso   1.00
N549   N     0.48640   0.30487   0.57507   0.00000  Uiso   1.00
N550   N     0.12763   0.40458   0.38295   0.00000  Uiso   1.00
N551   N     0.12667   0.28832   0.96869   0.00000  Uiso   1.00
N552   N     0.48650   0.34605   0.67679   0.00000  Uiso   1.00
C553   C     0.75316   0.69847   0.56541   0.00000  Uiso   1.00
C554   C     0.78601   0.67136   0.51194   0.00000  Uiso   1.00
C555   C     0.81369   0.67149   0.41032   0.00000  Uiso   1.00
C556   C     0.84134   0.64437   0.37594   0.00000  Uiso   1.00
C557   C     0.89238   0.60627   0.28305   0.00000  Uiso   1.00
C558   C     0.78629   0.70340   0.67337   0.00000  Uiso   1.00
C559   C     0.81419   0.73048   0.70748   0.00000  Uiso   1.00
C560   C     0.84207   0.73032   0.80900   0.00000  Uiso   1.00
C561   C     0.89350   0.74197   0.96677   0.00000  Uiso   1.00
C562   C     0.68712   0.68748   0.59291   0.00000  Uiso   1.00
C563   C     0.63164   0.70119   0.55940   0.00000  Uiso   1.00
C564   C     0.57602   0.68764   0.59319   0.00000  Uiso   1.00
C565   C     0.47348   0.67458   0.62603   0.00000  Uiso   1.00
C566   C     0.75305   0.65005   0.68505   0.00000  Uiso   1.00
C567   C     0.78595   0.64506   0.57693   0.00000  Uiso   1.00
C568   C     0.81356   0.61792   0.54269   0.00000  Uiso   1.00
C569   C     0.84128   0.61802   0.44103   0.00000  Uiso   1.00
C570   C     0.78623   0.67710   0.73835   0.00000  Uiso   1.00
C571   C     0.81406   0.67690   0.83985   0.00000  Uiso   1.00
C572   C     0.84201   0.70397   0.87410   0.00000  Uiso   1.00
C573   C     0.68705   0.66118   0.65789   0.00000  Uiso   1.00
C574   C     0.63151   0.64761   0.69175   0.00000  Uiso   1.00
C575   C     0.57596   0.66129   0.65829   0.00000  Uiso   1.00
H576   H     0.75321   0.71895   0.51482   0.00000  Uiso   1.00
H577   H     0.81373   0.69185   0.36006   0.00000  Uiso   1.00
H578   H     0.81423   0.75083   0.65718   0.00000  Uiso   1.00
H579   H     0.63171   0.72154   0.50911   0.00000  Uiso   1.00
H580   H     0.88083   0.65022   0.21715   0.00000  Uiso   1.00
H581   H     0.88185   0.77457   0.84366   0.00000  Uiso   1.00
H582   H     0.49696   0.71281   0.53143   0.00000  Uiso   1.00
H583   H     0.75300   0.62957   0.73564   0.00000  Uiso   1.00
H584   H     0.81351   0.59757   0.59299   0.00000  Uiso   1.00
H585   H     0.81400   0.65655   0.89011   0.00000  Uiso   1.00
H586   H     0.63148   0.62726   0.74204   0.00000  Uiso   1.00
H587   H     0.88064   0.57369   0.40621   0.00000  Uiso   1.00
H588   H     0.88166   0.69805   0.03272   0.00000  Uiso   1.00
H589   H     0.49678   0.63629   0.72048   0.00000  Uiso   1.00
O590   O     0.92056   0.59252   0.21387   0.00000  Uiso   1.00
O591   O     0.92189   0.75567   0.03583   0.00000  Uiso   1.00
O592   O     0.41693   0.67464   0.62618   0.00000  Uiso   1.00
N593   N     0.87247   0.63660   0.28122   0.00000  Uiso   1.00
N594   N     0.87343   0.75286   0.86696   0.00000  Uiso   1.00
N595   N     0.51360   0.69513   0.57507   0.00000  Uiso   1.00
N596   N     0.87237   0.59542   0.38295   0.00000  Uiso   1.00
N597   N     0.87333   0.71168   0.96869   0.00000  Uiso   1.00
N598   N     0.51350   0.65395   0.67679   0.00000  Uiso   1.00
C599   C     0.75316   0.19847   0.06541   0.00000  Uiso   1.00
C600   C     0.78601   0.17136   0.01194   0.00000  Uiso   1.00
C601   C     0.81369   0.17149   0.91032   0.00000  Uiso   1.00
C602   C     0.84134   0.14437   0.87594   0.00000  Uiso   1.00
C603   C     0.89238   0.10627   0.78305   0.00000  Uiso   1.00
C604   C     0.78629   0.20340   0.17337   0.00000  Uiso   1.00
C605   C     0.81419   0.23048   0.20748   0.00000  Uiso   1.00
C606   C     0.84207   0.23032   0.30900   0.00000  Uiso   1.00
C607   C     0.89350   0.24197   0.46677   0.00000  Uiso   1.00
C608   C     0.68712   0.18748   0.09291   0.00000  Uiso   1.00
C609   C     0.63164   0.20119   0.05940   0.00000  Uiso   1.00
C610   C     0.57602   0.18764   0.09319   0.00000  Uiso   1.00
C611   C     0.47348   0.17458   0.12603   0.00000  Uiso   1.00
C612   C     0.75305   0.15005   0.18505   0.00000  Uiso   1.00
C613   C     0.78595   0.14506   0.07693   0.00000  Uiso   1.00
C614   C     0.81356   0.11792   0.04269   0.00000  Uiso   1.00
C615   C     0.84128   0.11802   0.94103   0.00000  Uiso   1.00
C616   C     0.78623   0.17710   0.23835   0.00000  Uiso   1.00
C617   C     0.81406   0.17690   0.33985   0.00000  Uiso   1.00
C618   C     0.84201   0.20397   0.37410   0.00000  Uiso   1.00
C619   C     0.68705   0.16118   0.15789   0.00000  Uiso   1.00
C620   C     0.63151   0.14761   0.19175   0.00000  Uiso   1.00
C621   C     0.57596   0.16129   0.15829   0.00000  Uiso   1.00
H622   H     0.75321   0.21895   0.01482   0.00000  Uiso   1.00
H623   H     0.81373   0.19185   0.86006   0.00000  Uiso   1.00
H624   H     0.81423   0.25083   0.15718   0.00000  Uiso   1.00
H625   H     0.63171   0.22154   0.00911   0.00000  Uiso   1.00
H626   H     0.88083   0.15022   0.71715   0.00000  Uiso   1.00
H627   H     0.88185   0.27457   0.34366   0.00000  Uiso   1.00
H628   H     0.49696   0.21281   0.03143   0.00000  Uiso   1.00
H629   H     0.75300   0.12957   0.23564   0.00000  Uiso   1.00
H630   H     0.81351   0.09757   0.09299   0.00000  Uiso   1.00
H631   H     0.81400   0.15655   0.39011   0.00000  Uiso   1.00
H632   H     0.63148   0.12726   0.24204   0.00000  Uiso   1.00
H633   H     0.88064   0.07369   0.90621   0.00000  Uiso   1.00
H634   H     0.88166   0.19805   0.53272   0.00000  Uiso   1.00
H635   H     0.49678   0.13629   0.22048   0.00000  Uiso   1.00
O636   O     0.92056   0.09252   0.71387   0.00000  Uiso   1.00
O637   O     0.92189   0.25567   0.53583   0.00000  Uiso   1.00
O638   O     0.41693   0.17464   0.12618   0.00000  Uiso   1.00
N639   N     0.87247   0.13660   0.78122   0.00000  Uiso   1.00
N640   N     0.87343   0.25286   0.36696   0.00000  Uiso   1.00
N641   N     0.51360   0.19513   0.07507   0.00000  Uiso   1.00
N642   N     0.87237   0.09542   0.88295   0.00000  Uiso   1.00
N643   N     0.87333   0.21168   0.46869   0.00000  Uiso   1.00
N644   N     0.51350   0.15395   0.17679   0.00000  Uiso   1.00
C645   C     0.25316   0.69847   0.06541   0.00000  Uiso   1.00
C646   C     0.28601   0.67136   0.01194   0.00000  Uiso   1.00
C647   C     0.31369   0.67149   0.91032   0.00000  Uiso   1.00
C648   C     0.34134   0.64437   0.87594   0.00000  Uiso   1.00
C649   C     0.39238   0.60627   0.78305   0.00000  Uiso   1.00
C650   C     0.28629   0.70340   0.17337   0.00000  Uiso   1.00
C651   C     0.31419   0.73048   0.20748   0.00000  Uiso   1.00
C652   C     0.34207   0.73032   0.30900   0.00000  Uiso   1.00
C653   C     0.39350   0.74197   0.46677   0.00000  Uiso   1.00
C654   C     0.18712   0.68748   0.09291   0.00000  Uiso   1.00
C655   C     0.13164   0.70119   0.05940   0.00000  Uiso   1.00
C656   C     0.07602   0.68764   0.09319   0.00000  Uiso   1.00
C657   C     0.97348   0.67458   0.12603   0.00000  Uiso   1.00
C658   C     0.25305   0.65005   0.18505   0.00000  Uiso   1.00
C659   C     0.28595   0.64506   0.07693   0.00000  Uiso   1.00
C660   C     0.31356   0.61792   0.04269   0.00000  Uiso   1.00
C661   C     0.34128   0.61802   0.94103   0.00000  Uiso   1.00
C662   C     0.28623   0.67710   0.23835   0.00000  Uiso   1.00
C663   C     0.31406   0.67690   0.33985   0.00000  Uiso   1.00
C664   C     0.34201   0.70397   0.37410   0.00000  Uiso   1.00
C665   C     0.18705   0.66118   0.15789   0.00000  Uiso   1.00
C666   C     0.13151   0.64761   0.19175   0.00000  Uiso   1.00
C667   C     0.07596   0.66129   0.15829   0.00000  Uiso   1.00
H668   H     0.25321   0.71895   0.01482   0.00000  Uiso   1.00
H669   H     0.31373   0.69185   0.86006   0.00000  Uiso   1.00
H670   H     0.31423   0.75083   0.15718   0.00000  Uiso   1.00
H671   H     0.13171   0.72154   0.00911   0.00000  Uiso   1.00
H672   H     0.38083   0.65022   0.71715   0.00000  Uiso   1.00
H673   H     0.38185   0.77457   0.34366   0.00000  Uiso   1.00
H674   H     0.99696   0.71281   0.03143   0.00000  Uiso   1.00
H675   H     0.25300   0.62957   0.23564   0.00000  Uiso   1.00
H676   H     0.31351   0.59757   0.09299   0.00000  Uiso   1.00
H677   H     0.31400   0.65655   0.39011   0.00000  Uiso   1.00
H678   H     0.13148   0.62726   0.24204   0.00000  Uiso   1.00
H679   H     0.38064   0.57369   0.90621   0.00000  Uiso   1.00
H680   H     0.38166   0.69805   0.53272   0.00000  Uiso   1.00
H681   H     0.99678   0.63629   0.22048   0.00000  Uiso   1.00
O682   O     0.42056   0.59252   0.71387   0.00000  Uiso   1.00
O683   O     0.42189   0.75567   0.53583   0.00000  Uiso   1.00
O684   O     0.91693   0.67464   0.12618   0.00000  Uiso   1.00
N685   N     0.37247   0.63660   0.78122   0.00000  Uiso   1.00
N686   N     0.37343   0.75286   0.36696   0.00000  Uiso   1.00
N687   N     0.01360   0.69513   0.07507   0.00000  Uiso   1.00
N688   N     0.37237   0.59542   0.88295   0.00000  Uiso   1.00
N689   N     0.37333   0.71168   0.46869   0.00000  Uiso   1.00
N690   N     0.01350   0.65395   0.17679   0.00000  Uiso   1.00
C691   C     0.25316   0.19847   0.56541   0.00000  Uiso   1.00
C692   C     0.28601   0.17136   0.51194   0.00000  Uiso   1.00
C693   C     0.31369   0.17149   0.41032   0.00000  Uiso   1.00
C694   C     0.34134   0.14437   0.37594   0.00000  Uiso   1.00
C695   C     0.39238   0.10627   0.28305   0.00000  Uiso   1.00
C696   C     0.28629   0.20340   0.67337   0.00000  Uiso   1.00
C697   C     0.31419   0.23048   0.70748   0.00000  Uiso   1.00
C698   C     0.34207   0.23032   0.80900   0.00000  Uiso   1.00
C699   C     0.39350   0.24197   0.96677   0.00000  Uiso   1.00
C700   C     0.18712   0.18748   0.59291   0.00000  Uiso   1.00
C701   C     0.13164   0.20119   0.55940   0.00000  Uiso   1.00
C702   C     0.07602   0.18764   0.59319   0.00000  Uiso   1.00
C703   C     0.97348   0.17458   0.62603   0.00000  Uiso   1.00
C704   C     0.25305   0.15005   0.68505   0.00000  Uiso   1.00
C705   C     0.28595   0.14506   0.57693   0.00000  Uiso   1.00
C706   C     0.31356   0.11792   0.54269   0.00000  Uiso   1.00
C707   C     0.34128   0.11802   0.44103   0.00000  Uiso   1.00
C708   C     0.28623   0.17710   0.73835   0.00000  Uiso   1.00
C709   C     0.31406   0.17690   0.83985   0.00000  Uiso   1.00
C710   C     0.34201   0.20397   0.87410   0.00000  Uiso   1.00
C711   C     0.18705   0.16118   0.65789   0.00000  Uiso   1.00
C712   C     0.13151   0.14761   0.69175   0.00000  Uiso   1.00
C713   C     0.07596   0.16129   0.65829   0.00000  Uiso   1.00
H714   H     0.25321   0.21895   0.51482   0.00000  Uiso   1.00
H715   H     0.31373   0.19185   0.36006   0.00000  Uiso   1.00
H716   H     0.31423   0.25083   0.65718   0.00000  Uiso   1.00
H717   H     0.13171   0.22154   0.50911   0.00000  Uiso   1.00
H718   H     0.38083   0.15022   0.21715   0.00000  Uiso   1.00
H719   H     0.38185   0.27457   0.84366   0.00000  Uiso   1.00
H720   H     0.99696   0.21281   0.53143   0.00000  Uiso   1.00
H721   H     0.25300   0.12957   0.73564   0.00000  Uiso   1.00
H722   H     0.31351   0.09757   0.59299   0.00000  Uiso   1.00
H723   H     0.31400   0.15655   0.89011   0.00000  Uiso   1.00
H724   H     0.13148   0.12726   0.74204   0.00000  Uiso   1.00
H725   H     0.38064   0.07369   0.40621   0.00000  Uiso   1.00
H726   H     0.38166   0.19805   0.03272   0.00000  Uiso   1.00
H727   H     0.99678   0.13629   0.72048   0.00000  Uiso   1.00
O728   O     0.42056   0.09252   0.21387   0.00000  Uiso   1.00
O729   O     0.42189   0.25567   0.03583   0.00000  Uiso   1.00
O730   O     0.91693   0.17464   0.62618   0.00000  Uiso   1.00
N731   N     0.37247   0.13660   0.28122   0.00000  Uiso   1.00
N732   N     0.37343   0.25286   0.86696   0.00000  Uiso   1.00
N733   N     0.01360   0.19513   0.57507   0.00000  Uiso   1.00
N734   N     0.37237   0.09542   0.38295   0.00000  Uiso   1.00
N735   N     0.37333   0.21168   0.96869   0.00000  Uiso   1.00
N736   N     0.01350   0.15395   0.67679   0.00000  Uiso   1.00
