data_job_04504
_audit_creation_date              2018-12-19
_audit_creation_method            'Materials Studio'
_symmetry_space_group_name_H-M    'P1'
_symmetry_Int_Tables_number       1
_symmetry_cell_setting            triclinic
loop_
_symmetry_equiv_pos_as_xyz
  x,y,z
_cell_length_a                    26.1321
_cell_length_b                    31.0953
_cell_length_c                    12.3916
_cell_angle_alpha                 90.0000
_cell_angle_beta                  88.6478
_cell_angle_gamma                 90.0000
loop_
_atom_site_label
_atom_site_type_symbol
_atom_site_fract_x
_atom_site_fract_y
_atom_site_fract_z
_atom_site_U_iso_or_equiv
_atom_site_adp_type
_atom_site_occupancy
C1     C     0.10076   0.57620   0.76733   0.00000  Uiso   1.00
C2     C     0.12202   0.53063   0.77361   0.00000  Uiso   1.00
C3     C     0.17217   0.51855   0.74993   0.00000  Uiso   1.00
C4     C     0.18402   0.47526   0.76062   0.00000  Uiso   1.00
C5     C     0.72266   0.90907   0.76527   0.00000  Uiso   1.00
C6     C     0.05577   0.57396   0.69136   0.00000  Uiso   1.00
C7     C     0.05021   0.59833   0.59854   0.00000  Uiso   1.00
C8     C     0.00628   0.59153   0.54001   0.00000  Uiso   1.00
C9     C     0.94205   0.59264   0.41700   0.00000  Uiso   1.00
C10    C     0.07780   0.58604   0.87888   0.00000  Uiso   1.00
C11    C     0.09074   0.62058   0.94373   0.00000  Uiso   1.00
C12    C     0.06535   0.62395   0.04307   0.00000  Uiso   1.00
C13    C     0.03532   0.64381   0.21122   0.00000  Uiso   1.00
C14    C     0.03264   0.52079   0.82842   0.00000  Uiso   1.00
C15    C     0.08502   0.50053   0.80679   0.00000  Uiso   1.00
C16    C     0.09680   0.45724   0.81752   0.00000  Uiso   1.00
C17    C     0.14695   0.44511   0.79387   0.00000  Uiso   1.00
C18    C     0.01877   0.54387   0.72454   0.00000  Uiso   1.00
C19    C     0.97484   0.53702   0.66613   0.00000  Uiso   1.00
C20    C     0.96922   0.56137   0.57325   0.00000  Uiso   1.00
C21    C     0.04080   0.55594   0.91207   0.00000  Uiso   1.00
C22    C     0.01538   0.55926   0.01132   0.00000  Uiso   1.00
C23    C     0.02829   0.59379   0.07631   0.00000  Uiso   1.00
H24    H     0.12956   0.59964   0.74149   0.00000  Uiso   1.00
H25    H     0.20079   0.54186   0.72425   0.00000  Uiso   1.00
H26    H     0.07885   0.62163   0.57289   0.00000  Uiso   1.00
H27    H     0.11938   0.64386   0.91802   0.00000  Uiso   1.00
H28    H     0.76343   0.96452   0.71972   0.00000  Uiso   1.00
H29    H     0.00631   0.63273   0.40059   0.00000  Uiso   1.00
H30    H     0.09177   0.67962   0.12837   0.00000  Uiso   1.00
H31    H     0.00383   0.49735   0.85426   0.00000  Uiso   1.00
H32    H     0.06816   0.43396   0.84320   0.00000  Uiso   1.00
H33    H     0.94622   0.51373   0.69184   0.00000  Uiso   1.00
H34    H     0.98675   0.53597   0.03697   0.00000  Uiso   1.00
H35    H     0.65578   0.87694   0.81626   0.00000  Uiso   1.00
H36    H     0.89866   0.54516   0.49714   0.00000  Uiso   1.00
H37    H     0.98412   0.59205   0.22492   0.00000  Uiso   1.00
O38    O     0.75419   0.88087   0.75865   0.00000  Uiso   1.00
O39    O     0.91685   0.60156   0.33998   0.00000  Uiso   1.00
O40    O     0.02898   0.66308   0.29481   0.00000  Uiso   1.00
N41    N     0.72927   0.95261   0.74398   0.00000  Uiso   1.00
N42    N     0.98888   0.60987   0.44560   0.00000  Uiso   1.00
N43    N     0.06877   0.65372   0.12601   0.00000  Uiso   1.00
N44    N     0.67135   0.90548   0.79593   0.00000  Uiso   1.00
N45    N     0.93095   0.56275   0.49755   0.00000  Uiso   1.00
N46    N     0.01085   0.60659   0.17796   0.00000  Uiso   1.00
C47    C     0.12827   0.82655   0.80116   0.00000  Uiso   1.00
C48    C     0.17832   0.85174   0.80244   0.00000  Uiso   1.00
C49    C     0.18410   0.89498   0.77727   0.00000  Uiso   1.00
C50    C     0.23304   0.91205   0.78324   0.00000  Uiso   1.00
C51    C     0.80443   0.45500   0.78059   0.00000  Uiso   1.00
C52    C     0.13777   0.78865   0.72521   0.00000  Uiso   1.00
C53    C     0.10944   0.77884   0.63513   0.00000  Uiso   1.00
C54    C     0.12424   0.74279   0.57611   0.00000  Uiso   1.00
C55    C     0.13265   0.68778   0.45362   0.00000  Uiso   1.00
C56    C     0.12126   0.80734   0.91376   0.00000  Uiso   1.00
C57    C     0.07904   0.81324   0.98221   0.00000  Uiso   1.00
C58    C     0.07994   0.79292   0.08192   0.00000  Uiso   1.00
C59    C     0.06271   0.76692   0.25217   0.00000  Uiso   1.00
C60    C     0.20493   0.77996   0.85652   0.00000  Uiso   1.00
C61    C     0.21996   0.82643   0.83250   0.00000  Uiso   1.00
C62    C     0.26891   0.84344   0.83852   0.00000  Uiso   1.00
C63    C     0.27476   0.88670   0.81337   0.00000  Uiso   1.00
C64    C     0.17941   0.76334   0.75528   0.00000  Uiso   1.00
C65    C     0.19426   0.72730   0.69638   0.00000  Uiso   1.00
C66    C     0.16596   0.71744   0.60623   0.00000  Uiso   1.00
C67    C     0.16290   0.78203   0.94383   0.00000  Uiso   1.00
C68    C     0.16386   0.76170   0.04345   0.00000  Uiso   1.00
C69    C     0.12165   0.76757   0.11204   0.00000  Uiso   1.00
H70    H     0.09585   0.84625   0.77775   0.00000  Uiso   1.00
H71    H     0.15186   0.91455   0.75400   0.00000  Uiso   1.00
H72    H     0.07721   0.79843   0.61189   0.00000  Uiso   1.00
H73    H     0.04682   0.83282   0.95891   0.00000  Uiso   1.00
H74    H     0.23232   0.97912   0.74088   0.00000  Uiso   1.00
H75    H     0.07491   0.73426   0.44127   0.00000  Uiso   1.00
H76    H     0.01083   0.80678   0.17302   0.00000  Uiso   1.00
H77    H     0.23735   0.76026   0.87993   0.00000  Uiso   1.00
H78    H     0.30113   0.82385   0.86179   0.00000  Uiso   1.00
H79    H     0.22648   0.70772   0.71968   0.00000  Uiso   1.00
H80    H     0.19609   0.74212   0.06670   0.00000  Uiso   1.00
H81    H     0.85348   0.40550   0.82836   0.00000  Uiso   1.00
H82    H     0.19606   0.66063   0.52875   0.00000  Uiso   1.00
H83    H     0.13198   0.73316   0.26050   0.00000  Uiso   1.00
O84    O     0.83230   0.48568   0.77081   0.00000  Uiso   1.00
O85    O     0.12578   0.66443   0.37774   0.00000  Uiso   1.00
O86    O     0.04170   0.75958   0.33778   0.00000  Uiso   1.00
N87    N     0.25208   0.95307   0.76398   0.00000  Uiso   1.00
N88    N     0.10492   0.72414   0.48385   0.00000  Uiso   1.00
N89    N     0.04500   0.79193   0.16797   0.00000  Uiso   1.00
N90    N     0.31728   0.91345   0.81106   0.00000  Uiso   1.00
N91    N     0.17011   0.68452   0.53092   0.00000  Uiso   1.00
N92    N     0.11019   0.75232   0.21504   0.00000  Uiso   1.00
C93    C     0.90000   0.91786   0.96452   0.00000  Uiso   1.00
C94    C     0.87505   0.96209   0.97333   0.00000  Uiso   1.00
C95    C     0.82395   0.97119   0.95549   0.00000  Uiso   1.00
C96    C     0.80859   0.01370   0.96762   0.00000  Uiso   1.00
C97    C     0.26460   0.57748   0.97685   0.00000  Uiso   1.00
C98    C     0.94441   0.92267   0.88335   0.00000  Uiso   1.00
C99    C     0.95163   0.89863   0.78987   0.00000  Uiso   1.00
C100   C     0.99467   0.90795   0.72627   0.00000  Uiso   1.00
C101   C     0.05837   0.91051   0.59585   0.00000  Uiso   1.00
C102   C     0.92413   0.90945   0.07337   0.00000  Uiso   1.00
C103   C     0.91431   0.87428   0.13964   0.00000  Uiso   1.00
C104   C     0.94027   0.87246   0.23601   0.00000  Uiso   1.00
C105   C     0.97248   0.85449   0.40061   0.00000  Uiso   1.00
C106   C     0.96359   0.97715   0.01780   0.00000  Uiso   1.00
C107   C     0.90959   0.99429   0.00227   0.00000  Uiso   1.00
C108   C     0.89430   0.03679   0.01444   0.00000  Uiso   1.00
C109   C     0.84319   0.04596   0.99662   0.00000  Uiso   1.00
C110   C     0.97895   0.95488   0.91229   0.00000  Uiso   1.00
C111   C     0.02198   0.96423   0.84882   0.00000  Uiso   1.00
C112   C     0.02926   0.94021   0.75526   0.00000  Uiso   1.00
C113   C     0.95866   0.94165   0.10231   0.00000  Uiso   1.00
C114   C     0.98465   0.93988   0.19859   0.00000  Uiso   1.00
C115   C     0.97487   0.90472   0.26500   0.00000  Uiso   1.00
H116   H     0.87312   0.89279   0.94198   0.00000  Uiso   1.00
H117   H     0.79724   0.94626   0.93308   0.00000  Uiso   1.00
H118   H     0.92490   0.87371   0.76750   0.00000  Uiso   1.00
H119   H     0.88758   0.84937   0.11721   0.00000  Uiso   1.00
H120   H     0.22835   0.51976   0.93594   0.00000  Uiso   1.00
H121   H     0.99754   0.86676   0.58682   0.00000  Uiso   1.00
H122   H     0.91884   0.81543   0.32426   0.00000  Uiso   1.00
H123   H     0.99048   0.00222   0.04033   0.00000  Uiso   1.00
H124   H     0.92103   0.06171   0.03684   0.00000  Uiso   1.00
H125   H     0.04870   0.98915   0.87125   0.00000  Uiso   1.00
H126   H     0.01137   0.96481   0.22096   0.00000  Uiso   1.00
H127   H     0.32882   0.61346   0.02015   0.00000  Uiso   1.00
H128   H     0.09802   0.96046   0.67103   0.00000  Uiso   1.00
H129   H     0.01931   0.90913   0.40847   0.00000  Uiso   1.00
O130   O     0.23079   0.60377   0.97393   0.00000  Uiso   1.00
O131   O     0.08397   0.90303   0.51591   0.00000  Uiso   1.00
O132   O     0.98071   0.83569   0.48342   0.00000  Uiso   1.00
N133   N     0.26152   0.53365   0.95626   0.00000  Uiso   1.00
N134   N     0.01320   0.89061   0.62984   0.00000  Uiso   1.00
N135   N     0.93963   0.84261   0.31928   0.00000  Uiso   1.00
N136   N     0.31559   0.58406   0.00157   0.00000  Uiso   1.00
N137   N     0.06727   0.94103   0.67516   0.00000  Uiso   1.00
N138   N     0.99369   0.89303   0.36459   0.00000  Uiso   1.00
C139   C     0.86904   0.67827   0.95564   0.00000  Uiso   1.00
C140   C     0.82041   0.65115   0.95807   0.00000  Uiso   1.00
C141   C     0.81727   0.60800   0.93045   0.00000  Uiso   1.00
C142   C     0.76925   0.58898   0.93803   0.00000  Uiso   1.00
C143   C     0.20032   0.04332   0.93657   0.00000  Uiso   1.00
C144   C     0.85817   0.71652   0.88265   0.00000  Uiso   1.00
C145   C     0.88678   0.72833   0.79164   0.00000  Uiso   1.00
C146   C     0.87055   0.76435   0.73575   0.00000  Uiso   1.00
C147   C     0.86027   0.82020   0.61726   0.00000  Uiso   1.00
C148   C     0.87393   0.69659   0.06908   0.00000  Uiso   1.00
C149   C     0.91579   0.69166   0.13481   0.00000  Uiso   1.00
C150   C     0.91283   0.71091   0.23587   0.00000  Uiso   1.00
C151   C     0.92701   0.73581   0.40683   0.00000  Uiso   1.00
C152   C     0.78934   0.72124   0.01822   0.00000  Uiso   1.00
C153   C     0.77712   0.67449   0.99205   0.00000  Uiso   1.00
C154   C     0.72909   0.65554   0.99968   0.00000  Uiso   1.00
C155   C     0.72588   0.61236   0.97208   0.00000  Uiso   1.00
C156   C     0.81488   0.73986   0.91664   0.00000  Uiso   1.00
C157   C     0.79861   0.77587   0.86088   0.00000  Uiso   1.00
C158   C     0.82719   0.78773   0.76980   0.00000  Uiso   1.00
C159   C     0.83064   0.71993   0.10307   0.00000  Uiso   1.00
C160   C     0.82762   0.73920   0.20405   0.00000  Uiso   1.00
C161   C     0.86947   0.73429   0.26992   0.00000  Uiso   1.00
H162   H     0.90274   0.66011   0.92918   0.00000  Uiso   1.00
H163   H     0.85078   0.58995   0.90414   0.00000  Uiso   1.00
H164   H     0.92028   0.71027   0.76536   0.00000  Uiso   1.00
H165   H     0.94929   0.67360   0.10848   0.00000  Uiso   1.00
H166   H     0.77407   0.52246   0.89133   0.00000  Uiso   1.00
H167   H     0.92064   0.77617   0.59874   0.00000  Uiso   1.00
H168   H     0.98180   0.69884   0.32227   0.00000  Uiso   1.00
H169   H     0.75564   0.73941   0.04468   0.00000  Uiso   1.00
H170   H     0.69560   0.67360   0.02599   0.00000  Uiso   1.00
H171   H     0.76511   0.79393   0.88721   0.00000  Uiso   1.00
H172   H     0.79411   0.75725   0.23032   0.00000  Uiso   1.00
H173   H     0.14812   0.09036   0.99022   0.00000  Uiso   1.00
H174   H     0.79470   0.84407   0.69763   0.00000  Uiso   1.00
H175   H     0.85585   0.76674   0.42116   0.00000  Uiso   1.00
O176   O     0.17425   0.01169   0.92636   0.00000  Uiso   1.00
O177   O     0.86655   0.84455   0.54250   0.00000  Uiso   1.00
O178   O     0.94679   0.74310   0.49175   0.00000  Uiso   1.00
N179   N     0.75267   0.54747   0.91719   0.00000  Uiso   1.00
N180   N     0.88970   0.78467   0.64362   0.00000  Uiso   1.00
N181   N     0.94688   0.71239   0.32005   0.00000  Uiso   1.00
N182   N     0.68490   0.58401   0.97040   0.00000  Uiso   1.00
N183   N     0.82193   0.82121   0.69684   0.00000  Uiso   1.00
N184   N     0.87911   0.74892   0.37326   0.00000  Uiso   1.00
C185   C     0.60076   0.07620   0.76733   0.00000  Uiso   1.00
C186   C     0.62202   0.03063   0.77361   0.00000  Uiso   1.00
C187   C     0.67217   0.01855   0.74993   0.00000  Uiso   1.00
C188   C     0.68402   0.97526   0.76062   0.00000  Uiso   1.00
C189   C     0.22266   0.40907   0.76527   0.00000  Uiso   1.00
C190   C     0.55577   0.07396   0.69136   0.00000  Uiso   1.00
C191   C     0.55021   0.09833   0.59854   0.00000  Uiso   1.00
C192   C     0.50628   0.09153   0.54001   0.00000  Uiso   1.00
C193   C     0.44205   0.09264   0.41700   0.00000  Uiso   1.00
C194   C     0.57780   0.08604   0.87888   0.00000  Uiso   1.00
C195   C     0.59074   0.12058   0.94373   0.00000  Uiso   1.00
C196   C     0.56535   0.12395   0.04307   0.00000  Uiso   1.00
C197   C     0.53532   0.14381   0.21122   0.00000  Uiso   1.00
C198   C     0.53264   0.02079   0.82842   0.00000  Uiso   1.00
C199   C     0.58502   0.00053   0.80679   0.00000  Uiso   1.00
C200   C     0.59680   0.95724   0.81752   0.00000  Uiso   1.00
C201   C     0.64695   0.94511   0.79387   0.00000  Uiso   1.00
C202   C     0.51877   0.04387   0.72454   0.00000  Uiso   1.00
C203   C     0.47484   0.03702   0.66613   0.00000  Uiso   1.00
C204   C     0.46922   0.06137   0.57325   0.00000  Uiso   1.00
C205   C     0.54080   0.05594   0.91207   0.00000  Uiso   1.00
C206   C     0.51538   0.05926   0.01132   0.00000  Uiso   1.00
C207   C     0.52829   0.09379   0.07631   0.00000  Uiso   1.00
H208   H     0.62956   0.09964   0.74149   0.00000  Uiso   1.00
H209   H     0.70079   0.04186   0.72425   0.00000  Uiso   1.00
H210   H     0.57885   0.12163   0.57289   0.00000  Uiso   1.00
H211   H     0.61938   0.14386   0.91802   0.00000  Uiso   1.00
H212   H     0.26343   0.46452   0.71972   0.00000  Uiso   1.00
H213   H     0.50631   0.13273   0.40059   0.00000  Uiso   1.00
H214   H     0.59177   0.17962   0.12837   0.00000  Uiso   1.00
H215   H     0.50383   0.99735   0.85426   0.00000  Uiso   1.00
H216   H     0.56816   0.93396   0.84320   0.00000  Uiso   1.00
H217   H     0.44622   0.01373   0.69184   0.00000  Uiso   1.00
H218   H     0.48675   0.03597   0.03697   0.00000  Uiso   1.00
H219   H     0.15578   0.37694   0.81626   0.00000  Uiso   1.00
H220   H     0.39866   0.04516   0.49714   0.00000  Uiso   1.00
H221   H     0.48412   0.09205   0.22492   0.00000  Uiso   1.00
O222   O     0.25419   0.38087   0.75865   0.00000  Uiso   1.00
O223   O     0.41685   0.10156   0.33998   0.00000  Uiso   1.00
O224   O     0.52898   0.16308   0.29481   0.00000  Uiso   1.00
N225   N     0.22927   0.45261   0.74398   0.00000  Uiso   1.00
N226   N     0.48888   0.10987   0.44560   0.00000  Uiso   1.00
N227   N     0.56877   0.15372   0.12601   0.00000  Uiso   1.00
N228   N     0.17135   0.40548   0.79593   0.00000  Uiso   1.00
N229   N     0.43095   0.06275   0.49755   0.00000  Uiso   1.00
N230   N     0.51085   0.10659   0.17796   0.00000  Uiso   1.00
C231   C     0.62827   0.32655   0.80116   0.00000  Uiso   1.00
C232   C     0.67832   0.35174   0.80244   0.00000  Uiso   1.00
C233   C     0.68410   0.39498   0.77727   0.00000  Uiso   1.00
C234   C     0.73304   0.41205   0.78324   0.00000  Uiso   1.00
C235   C     0.30443   0.95500   0.78059   0.00000  Uiso   1.00
C236   C     0.63777   0.28865   0.72521   0.00000  Uiso   1.00
C237   C     0.60944   0.27884   0.63513   0.00000  Uiso   1.00
C238   C     0.62424   0.24279   0.57611   0.00000  Uiso   1.00
C239   C     0.63265   0.18778   0.45362   0.00000  Uiso   1.00
C240   C     0.62126   0.30734   0.91376   0.00000  Uiso   1.00
C241   C     0.57904   0.31324   0.98221   0.00000  Uiso   1.00
C242   C     0.57994   0.29292   0.08192   0.00000  Uiso   1.00
C243   C     0.56271   0.26692   0.25217   0.00000  Uiso   1.00
C244   C     0.70493   0.27996   0.85652   0.00000  Uiso   1.00
C245   C     0.71996   0.32643   0.83250   0.00000  Uiso   1.00
C246   C     0.76891   0.34344   0.83852   0.00000  Uiso   1.00
C247   C     0.77476   0.38670   0.81337   0.00000  Uiso   1.00
C248   C     0.67941   0.26334   0.75528   0.00000  Uiso   1.00
C249   C     0.69426   0.22730   0.69638   0.00000  Uiso   1.00
C250   C     0.66596   0.21744   0.60623   0.00000  Uiso   1.00
C251   C     0.66290   0.28203   0.94383   0.00000  Uiso   1.00
C252   C     0.66386   0.26170   0.04345   0.00000  Uiso   1.00
C253   C     0.62165   0.26757   0.11204   0.00000  Uiso   1.00
H254   H     0.59585   0.34625   0.77775   0.00000  Uiso   1.00
H255   H     0.65186   0.41455   0.75400   0.00000  Uiso   1.00
H256   H     0.57721   0.29843   0.61189   0.00000  Uiso   1.00
H257   H     0.54682   0.33282   0.95891   0.00000  Uiso   1.00
H258   H     0.73232   0.47912   0.74088   0.00000  Uiso   1.00
H259   H     0.57491   0.23426   0.44127   0.00000  Uiso   1.00
H260   H     0.51083   0.30678   0.17302   0.00000  Uiso   1.00
H261   H     0.73735   0.26026   0.87993   0.00000  Uiso   1.00
H262   H     0.80113   0.32385   0.86179   0.00000  Uiso   1.00
H263   H     0.72648   0.20772   0.71968   0.00000  Uiso   1.00
H264   H     0.69609   0.24212   0.06670   0.00000  Uiso   1.00
H265   H     0.35348   0.90550   0.82836   0.00000  Uiso   1.00
H266   H     0.69606   0.16063   0.52875   0.00000  Uiso   1.00
H267   H     0.63198   0.23316   0.26050   0.00000  Uiso   1.00
O268   O     0.33230   0.98568   0.77081   0.00000  Uiso   1.00
O269   O     0.62578   0.16443   0.37774   0.00000  Uiso   1.00
O270   O     0.54170   0.25958   0.33778   0.00000  Uiso   1.00
N271   N     0.75208   0.45307   0.76398   0.00000  Uiso   1.00
N272   N     0.60492   0.22414   0.48385   0.00000  Uiso   1.00
N273   N     0.54500   0.29193   0.16797   0.00000  Uiso   1.00
N274   N     0.81728   0.41345   0.81106   0.00000  Uiso   1.00
N275   N     0.67011   0.18452   0.53092   0.00000  Uiso   1.00
N276   N     0.61019   0.25232   0.21504   0.00000  Uiso   1.00
C277   C     0.40000   0.41786   0.96452   0.00000  Uiso   1.00
C278   C     0.37505   0.46209   0.97333   0.00000  Uiso   1.00
C279   C     0.32395   0.47119   0.95549   0.00000  Uiso   1.00
C280   C     0.30859   0.51370   0.96762   0.00000  Uiso   1.00
C281   C     0.76460   0.07748   0.97685   0.00000  Uiso   1.00
C282   C     0.44441   0.42267   0.88335   0.00000  Uiso   1.00
C283   C     0.45163   0.39863   0.78987   0.00000  Uiso   1.00
C284   C     0.49467   0.40795   0.72627   0.00000  Uiso   1.00
C285   C     0.55837   0.41051   0.59585   0.00000  Uiso   1.00
C286   C     0.42413   0.40945   0.07337   0.00000  Uiso   1.00
C287   C     0.41431   0.37428   0.13964   0.00000  Uiso   1.00
C288   C     0.44027   0.37246   0.23601   0.00000  Uiso   1.00
C289   C     0.47248   0.35449   0.40061   0.00000  Uiso   1.00
C290   C     0.46359   0.47715   0.01780   0.00000  Uiso   1.00
C291   C     0.40959   0.49429   0.00227   0.00000  Uiso   1.00
C292   C     0.39430   0.53679   0.01444   0.00000  Uiso   1.00
C293   C     0.34319   0.54596   0.99662   0.00000  Uiso   1.00
C294   C     0.47895   0.45488   0.91229   0.00000  Uiso   1.00
C295   C     0.52198   0.46423   0.84882   0.00000  Uiso   1.00
C296   C     0.52926   0.44021   0.75526   0.00000  Uiso   1.00
C297   C     0.45866   0.44165   0.10231   0.00000  Uiso   1.00
C298   C     0.48465   0.43988   0.19859   0.00000  Uiso   1.00
C299   C     0.47487   0.40472   0.26500   0.00000  Uiso   1.00
H300   H     0.37312   0.39279   0.94198   0.00000  Uiso   1.00
H301   H     0.29724   0.44626   0.93308   0.00000  Uiso   1.00
H302   H     0.42490   0.37371   0.76750   0.00000  Uiso   1.00
H303   H     0.38758   0.34937   0.11721   0.00000  Uiso   1.00
H304   H     0.72835   0.01976   0.93594   0.00000  Uiso   1.00
H305   H     0.49754   0.36676   0.58682   0.00000  Uiso   1.00
H306   H     0.41884   0.31543   0.32426   0.00000  Uiso   1.00
H307   H     0.49048   0.50222   0.04033   0.00000  Uiso   1.00
H308   H     0.42103   0.56171   0.03684   0.00000  Uiso   1.00
H309   H     0.54870   0.48915   0.87125   0.00000  Uiso   1.00
H310   H     0.51137   0.46481   0.22096   0.00000  Uiso   1.00
H311   H     0.82882   0.11346   0.02015   0.00000  Uiso   1.00
H312   H     0.59802   0.46046   0.67103   0.00000  Uiso   1.00
H313   H     0.51931   0.40913   0.40847   0.00000  Uiso   1.00
O314   O     0.73079   0.10377   0.97393   0.00000  Uiso   1.00
O315   O     0.58397   0.40303   0.51591   0.00000  Uiso   1.00
O316   O     0.48071   0.33569   0.48342   0.00000  Uiso   1.00
N317   N     0.76152   0.03365   0.95626   0.00000  Uiso   1.00
N318   N     0.51320   0.39061   0.62984   0.00000  Uiso   1.00
N319   N     0.43963   0.34261   0.31928   0.00000  Uiso   1.00
N320   N     0.81559   0.08406   0.00157   0.00000  Uiso   1.00
N321   N     0.56727   0.44103   0.67516   0.00000  Uiso   1.00
N322   N     0.49369   0.39303   0.36459   0.00000  Uiso   1.00
C323   C     0.36904   0.17827   0.95564   0.00000  Uiso   1.00
C324   C     0.32041   0.15115   0.95807   0.00000  Uiso   1.00
C325   C     0.31727   0.10800   0.93045   0.00000  Uiso   1.00
C326   C     0.26925   0.08898   0.93803   0.00000  Uiso   1.00
C327   C     0.70032   0.54332   0.93657   0.00000  Uiso   1.00
C328   C     0.35817   0.21652   0.88265   0.00000  Uiso   1.00
C329   C     0.38678   0.22833   0.79164   0.00000  Uiso   1.00
C330   C     0.37055   0.26435   0.73575   0.00000  Uiso   1.00
C331   C     0.36027   0.32020   0.61726   0.00000  Uiso   1.00
C332   C     0.37393   0.19659   0.06908   0.00000  Uiso   1.00
C333   C     0.41579   0.19166   0.13481   0.00000  Uiso   1.00
C334   C     0.41283   0.21091   0.23587   0.00000  Uiso   1.00
C335   C     0.42701   0.23581   0.40683   0.00000  Uiso   1.00
C336   C     0.28934   0.22124   0.01822   0.00000  Uiso   1.00
C337   C     0.27712   0.17449   0.99205   0.00000  Uiso   1.00
C338   C     0.22909   0.15554   0.99968   0.00000  Uiso   1.00
C339   C     0.22588   0.11236   0.97208   0.00000  Uiso   1.00
C340   C     0.31488   0.23986   0.91664   0.00000  Uiso   1.00
C341   C     0.29861   0.27587   0.86088   0.00000  Uiso   1.00
C342   C     0.32719   0.28773   0.76980   0.00000  Uiso   1.00
C343   C     0.33064   0.21993   0.10307   0.00000  Uiso   1.00
C344   C     0.32762   0.23920   0.20405   0.00000  Uiso   1.00
C345   C     0.36947   0.23429   0.26992   0.00000  Uiso   1.00
H346   H     0.40274   0.16011   0.92918   0.00000  Uiso   1.00
H347   H     0.35078   0.08995   0.90414   0.00000  Uiso   1.00
H348   H     0.42028   0.21027   0.76536   0.00000  Uiso   1.00
H349   H     0.44929   0.17360   0.10848   0.00000  Uiso   1.00
H350   H     0.27407   0.02246   0.89133   0.00000  Uiso   1.00
H351   H     0.42064   0.27617   0.59874   0.00000  Uiso   1.00
H352   H     0.48180   0.19884   0.32227   0.00000  Uiso   1.00
H353   H     0.25564   0.23941   0.04468   0.00000  Uiso   1.00
H354   H     0.19560   0.17360   0.02599   0.00000  Uiso   1.00
H355   H     0.26511   0.29393   0.88721   0.00000  Uiso   1.00
H356   H     0.29411   0.25725   0.23032   0.00000  Uiso   1.00
H357   H     0.64812   0.59036   0.99022   0.00000  Uiso   1.00
H358   H     0.29470   0.34407   0.69763   0.00000  Uiso   1.00
H359   H     0.35585   0.26674   0.42116   0.00000  Uiso   1.00
O360   O     0.67425   0.51169   0.92636   0.00000  Uiso   1.00
O361   O     0.36655   0.34455   0.54250   0.00000  Uiso   1.00
O362   O     0.44679   0.24310   0.49175   0.00000  Uiso   1.00
N363   N     0.25267   0.04747   0.91719   0.00000  Uiso   1.00
N364   N     0.38970   0.28467   0.64362   0.00000  Uiso   1.00
N365   N     0.44688   0.21239   0.32005   0.00000  Uiso   1.00
N366   N     0.18490   0.08401   0.97040   0.00000  Uiso   1.00
N367   N     0.32193   0.32121   0.69684   0.00000  Uiso   1.00
N368   N     0.37911   0.24892   0.37326   0.00000  Uiso   1.00
C369   C     0.10076   0.42380   0.26733   0.00000  Uiso   1.00
C370   C     0.12202   0.46937   0.27361   0.00000  Uiso   1.00
C371   C     0.17217   0.48145   0.24993   0.00000  Uiso   1.00
C372   C     0.18402   0.52474   0.26062   0.00000  Uiso   1.00
C373   C     0.72266   0.09093   0.26527   0.00000  Uiso   1.00
C374   C     0.05577   0.42604   0.19136   0.00000  Uiso   1.00
C375   C     0.05021   0.40167   0.09854   0.00000  Uiso   1.00
C376   C     0.00628   0.40847   0.04001   0.00000  Uiso   1.00
C377   C     0.94205   0.40736   0.91700   0.00000  Uiso   1.00
C378   C     0.07780   0.41396   0.37888   0.00000  Uiso   1.00
C379   C     0.09074   0.37942   0.44373   0.00000  Uiso   1.00
C380   C     0.06535   0.37605   0.54307   0.00000  Uiso   1.00
C381   C     0.03532   0.35619   0.71122   0.00000  Uiso   1.00
C382   C     0.03264   0.47921   0.32842   0.00000  Uiso   1.00
C383   C     0.08502   0.49947   0.30679   0.00000  Uiso   1.00
C384   C     0.09680   0.54276   0.31752   0.00000  Uiso   1.00
C385   C     0.14695   0.55489   0.29387   0.00000  Uiso   1.00
C386   C     0.01877   0.45613   0.22454   0.00000  Uiso   1.00
C387   C     0.97484   0.46298   0.16613   0.00000  Uiso   1.00
C388   C     0.96922   0.43863   0.07325   0.00000  Uiso   1.00
C389   C     0.04080   0.44406   0.41207   0.00000  Uiso   1.00
C390   C     0.01538   0.44074   0.51132   0.00000  Uiso   1.00
C391   C     0.02829   0.40621   0.57631   0.00000  Uiso   1.00
H392   H     0.12956   0.40036   0.24149   0.00000  Uiso   1.00
H393   H     0.20079   0.45814   0.22425   0.00000  Uiso   1.00
H394   H     0.07885   0.37837   0.07289   0.00000  Uiso   1.00
H395   H     0.11938   0.35614   0.41802   0.00000  Uiso   1.00
H396   H     0.76343   0.03548   0.21972   0.00000  Uiso   1.00
H397   H     0.00631   0.36727   0.90059   0.00000  Uiso   1.00
H398   H     0.09177   0.32038   0.62837   0.00000  Uiso   1.00
H399   H     0.00383   0.50265   0.35426   0.00000  Uiso   1.00
H400   H     0.06816   0.56604   0.34320   0.00000  Uiso   1.00
H401   H     0.94622   0.48627   0.19184   0.00000  Uiso   1.00
H402   H     0.98675   0.46403   0.53697   0.00000  Uiso   1.00
H403   H     0.65578   0.12306   0.31626   0.00000  Uiso   1.00
H404   H     0.89866   0.45484   0.99714   0.00000  Uiso   1.00
H405   H     0.98412   0.40795   0.72492   0.00000  Uiso   1.00
O406   O     0.75419   0.11913   0.25865   0.00000  Uiso   1.00
O407   O     0.91685   0.39844   0.83998   0.00000  Uiso   1.00
O408   O     0.02898   0.33692   0.79481   0.00000  Uiso   1.00
N409   N     0.72927   0.04739   0.24398   0.00000  Uiso   1.00
N410   N     0.98888   0.39013   0.94560   0.00000  Uiso   1.00
N411   N     0.06877   0.34628   0.62601   0.00000  Uiso   1.00
N412   N     0.67135   0.09452   0.29593   0.00000  Uiso   1.00
N413   N     0.93095   0.43725   0.99755   0.00000  Uiso   1.00
N414   N     0.01085   0.39341   0.67796   0.00000  Uiso   1.00
C415   C     0.12827   0.17345   0.30116   0.00000  Uiso   1.00
C416   C     0.17832   0.14826   0.30244   0.00000  Uiso   1.00
C417   C     0.18410   0.10502   0.27727   0.00000  Uiso   1.00
C418   C     0.23304   0.08795   0.28324   0.00000  Uiso   1.00
C419   C     0.80443   0.54500   0.28059   0.00000  Uiso   1.00
C420   C     0.13777   0.21135   0.22521   0.00000  Uiso   1.00
C421   C     0.10944   0.22116   0.13513   0.00000  Uiso   1.00
C422   C     0.12424   0.25721   0.07611   0.00000  Uiso   1.00
C423   C     0.13265   0.31222   0.95362   0.00000  Uiso   1.00
C424   C     0.12126   0.19266   0.41376   0.00000  Uiso   1.00
C425   C     0.07904   0.18676   0.48221   0.00000  Uiso   1.00
C426   C     0.07994   0.20708   0.58192   0.00000  Uiso   1.00
C427   C     0.06271   0.23308   0.75217   0.00000  Uiso   1.00
C428   C     0.20493   0.22004   0.35652   0.00000  Uiso   1.00
C429   C     0.21996   0.17357   0.33250   0.00000  Uiso   1.00
C430   C     0.26891   0.15656   0.33852   0.00000  Uiso   1.00
C431   C     0.27476   0.11330   0.31337   0.00000  Uiso   1.00
C432   C     0.17941   0.23666   0.25528   0.00000  Uiso   1.00
C433   C     0.19426   0.27270   0.19638   0.00000  Uiso   1.00
C434   C     0.16596   0.28256   0.10623   0.00000  Uiso   1.00
C435   C     0.16290   0.21797   0.44383   0.00000  Uiso   1.00
C436   C     0.16386   0.23830   0.54345   0.00000  Uiso   1.00
C437   C     0.12165   0.23243   0.61204   0.00000  Uiso   1.00
H438   H     0.09585   0.15375   0.27775   0.00000  Uiso   1.00
H439   H     0.15186   0.08545   0.25400   0.00000  Uiso   1.00
H440   H     0.07721   0.20157   0.11189   0.00000  Uiso   1.00
H441   H     0.04682   0.16718   0.45891   0.00000  Uiso   1.00
H442   H     0.23232   0.02088   0.24088   0.00000  Uiso   1.00
H443   H     0.07491   0.26574   0.94127   0.00000  Uiso   1.00
H444   H     0.01083   0.19322   0.67302   0.00000  Uiso   1.00
H445   H     0.23735   0.23974   0.37993   0.00000  Uiso   1.00
H446   H     0.30113   0.17615   0.36179   0.00000  Uiso   1.00
H447   H     0.22648   0.29228   0.21968   0.00000  Uiso   1.00
H448   H     0.19609   0.25788   0.56670   0.00000  Uiso   1.00
H449   H     0.85348   0.59450   0.32836   0.00000  Uiso   1.00
H450   H     0.19606   0.33937   0.02875   0.00000  Uiso   1.00
H451   H     0.13198   0.26684   0.76050   0.00000  Uiso   1.00
O452   O     0.83230   0.51432   0.27081   0.00000  Uiso   1.00
O453   O     0.12578   0.33557   0.87774   0.00000  Uiso   1.00
O454   O     0.04170   0.24042   0.83778   0.00000  Uiso   1.00
N455   N     0.25208   0.04693   0.26398   0.00000  Uiso   1.00
N456   N     0.10492   0.27586   0.98385   0.00000  Uiso   1.00
N457   N     0.04500   0.20807   0.66797   0.00000  Uiso   1.00
N458   N     0.31728   0.08655   0.31106   0.00000  Uiso   1.00
N459   N     0.17011   0.31548   0.03092   0.00000  Uiso   1.00
N460   N     0.11019   0.24768   0.71504   0.00000  Uiso   1.00
C461   C     0.90000   0.08214   0.46452   0.00000  Uiso   1.00
C462   C     0.87505   0.03791   0.47333   0.00000  Uiso   1.00
C463   C     0.82395   0.02881   0.45549   0.00000  Uiso   1.00
C464   C     0.80859   0.98630   0.46762   0.00000  Uiso   1.00
C465   C     0.26460   0.42252   0.47685   0.00000  Uiso   1.00
C466   C     0.94441   0.07733   0.38335   0.00000  Uiso   1.00
C467   C     0.95163   0.10137   0.28987   0.00000  Uiso   1.00
C468   C     0.99467   0.09205   0.22627   0.00000  Uiso   1.00
C469   C     0.05837   0.08949   0.09585   0.00000  Uiso   1.00
C470   C     0.92413   0.09055   0.57337   0.00000  Uiso   1.00
C471   C     0.91431   0.12572   0.63964   0.00000  Uiso   1.00
C472   C     0.94027   0.12754   0.73601   0.00000  Uiso   1.00
C473   C     0.97248   0.14551   0.90061   0.00000  Uiso   1.00
C474   C     0.96359   0.02285   0.51780   0.00000  Uiso   1.00
C475   C     0.90959   0.00571   0.50227   0.00000  Uiso   1.00
C476   C     0.89430   0.96321   0.51444   0.00000  Uiso   1.00
C477   C     0.84319   0.95404   0.49662   0.00000  Uiso   1.00
C478   C     0.97895   0.04512   0.41229   0.00000  Uiso   1.00
C479   C     0.02198   0.03577   0.34882   0.00000  Uiso   1.00
C480   C     0.02926   0.05979   0.25526   0.00000  Uiso   1.00
C481   C     0.95866   0.05835   0.60231   0.00000  Uiso   1.00
C482   C     0.98465   0.06012   0.69859   0.00000  Uiso   1.00
C483   C     0.97487   0.09528   0.76500   0.00000  Uiso   1.00
H484   H     0.87312   0.10721   0.44198   0.00000  Uiso   1.00
H485   H     0.79724   0.05374   0.43308   0.00000  Uiso   1.00
H486   H     0.92490   0.12629   0.26750   0.00000  Uiso   1.00
H487   H     0.88758   0.15063   0.61721   0.00000  Uiso   1.00
H488   H     0.22835   0.48024   0.43594   0.00000  Uiso   1.00
H489   H     0.99754   0.13324   0.08682   0.00000  Uiso   1.00
H490   H     0.91884   0.18457   0.82426   0.00000  Uiso   1.00
H491   H     0.99048   0.99778   0.54033   0.00000  Uiso   1.00
H492   H     0.92103   0.93829   0.53684   0.00000  Uiso   1.00
H493   H     0.04870   0.01085   0.37125   0.00000  Uiso   1.00
H494   H     0.01137   0.03519   0.72096   0.00000  Uiso   1.00
H495   H     0.32882   0.38654   0.52015   0.00000  Uiso   1.00
H496   H     0.09802   0.03954   0.17103   0.00000  Uiso   1.00
H497   H     0.01931   0.09087   0.90847   0.00000  Uiso   1.00
O498   O     0.23079   0.39623   0.47393   0.00000  Uiso   1.00
O499   O     0.08397   0.09697   0.01591   0.00000  Uiso   1.00
O500   O     0.98071   0.16431   0.98342   0.00000  Uiso   1.00
N501   N     0.26152   0.46635   0.45626   0.00000  Uiso   1.00
N502   N     0.01320   0.10939   0.12984   0.00000  Uiso   1.00
N503   N     0.93963   0.15739   0.81928   0.00000  Uiso   1.00
N504   N     0.31559   0.41594   0.50157   0.00000  Uiso   1.00
N505   N     0.06727   0.05897   0.17516   0.00000  Uiso   1.00
N506   N     0.99369   0.10697   0.86459   0.00000  Uiso   1.00
C507   C     0.86904   0.32173   0.45564   0.00000  Uiso   1.00
C508   C     0.82041   0.34885   0.45807   0.00000  Uiso   1.00
C509   C     0.81727   0.39200   0.43045   0.00000  Uiso   1.00
C510   C     0.76925   0.41102   0.43803   0.00000  Uiso   1.00
C511   C     0.20032   0.95668   0.43657   0.00000  Uiso   1.00
C512   C     0.85817   0.28348   0.38265   0.00000  Uiso   1.00
C513   C     0.88678   0.27167   0.29164   0.00000  Uiso   1.00
C514   C     0.87055   0.23565   0.23575   0.00000  Uiso   1.00
C515   C     0.86027   0.17980   0.11726   0.00000  Uiso   1.00
C516   C     0.87393   0.30341   0.56908   0.00000  Uiso   1.00
C517   C     0.91579   0.30834   0.63481   0.00000  Uiso   1.00
C518   C     0.91283   0.28909   0.73587   0.00000  Uiso   1.00
C519   C     0.92701   0.26419   0.90683   0.00000  Uiso   1.00
C520   C     0.78934   0.27876   0.51822   0.00000  Uiso   1.00
C521   C     0.77712   0.32551   0.49205   0.00000  Uiso   1.00
C522   C     0.72909   0.34446   0.49968   0.00000  Uiso   1.00
C523   C     0.72588   0.38764   0.47208   0.00000  Uiso   1.00
C524   C     0.81488   0.26014   0.41664   0.00000  Uiso   1.00
C525   C     0.79861   0.22413   0.36088   0.00000  Uiso   1.00
C526   C     0.82719   0.21227   0.26980   0.00000  Uiso   1.00
C527   C     0.83064   0.28007   0.60307   0.00000  Uiso   1.00
C528   C     0.82762   0.26080   0.70405   0.00000  Uiso   1.00
C529   C     0.86947   0.26571   0.76992   0.00000  Uiso   1.00
H530   H     0.90274   0.33989   0.42918   0.00000  Uiso   1.00
H531   H     0.85078   0.41005   0.40414   0.00000  Uiso   1.00
H532   H     0.92028   0.28973   0.26536   0.00000  Uiso   1.00
H533   H     0.94929   0.32640   0.60848   0.00000  Uiso   1.00
H534   H     0.77407   0.47754   0.39133   0.00000  Uiso   1.00
H535   H     0.92064   0.22383   0.09874   0.00000  Uiso   1.00
H536   H     0.98180   0.30116   0.82227   0.00000  Uiso   1.00
H537   H     0.75564   0.26059   0.54468   0.00000  Uiso   1.00
H538   H     0.69560   0.32640   0.52599   0.00000  Uiso   1.00
H539   H     0.76511   0.20607   0.38721   0.00000  Uiso   1.00
H540   H     0.79411   0.24275   0.73032   0.00000  Uiso   1.00
H541   H     0.14812   0.90964   0.49022   0.00000  Uiso   1.00
H542   H     0.79470   0.15593   0.19763   0.00000  Uiso   1.00
H543   H     0.85585   0.23326   0.92116   0.00000  Uiso   1.00
O544   O     0.17425   0.98831   0.42636   0.00000  Uiso   1.00
O545   O     0.86655   0.15545   0.04250   0.00000  Uiso   1.00
O546   O     0.94679   0.25690   0.99175   0.00000  Uiso   1.00
N547   N     0.75267   0.45253   0.41719   0.00000  Uiso   1.00
N548   N     0.88970   0.21533   0.14362   0.00000  Uiso   1.00
N549   N     0.94688   0.28761   0.82005   0.00000  Uiso   1.00
N550   N     0.68490   0.41599   0.47040   0.00000  Uiso   1.00
N551   N     0.82193   0.17879   0.19684   0.00000  Uiso   1.00
N552   N     0.87911   0.25108   0.87326   0.00000  Uiso   1.00
C553   C     0.60076   0.92380   0.26733   0.00000  Uiso   1.00
C554   C     0.62202   0.96937   0.27361   0.00000  Uiso   1.00
C555   C     0.67217   0.98145   0.24993   0.00000  Uiso   1.00
C556   C     0.68402   0.02474   0.26062   0.00000  Uiso   1.00
C557   C     0.22266   0.59093   0.26527   0.00000  Uiso   1.00
C558   C     0.55577   0.92604   0.19136   0.00000  Uiso   1.00
C559   C     0.55021   0.90167   0.09854   0.00000  Uiso   1.00
C560   C     0.50628   0.90847   0.04001   0.00000  Uiso   1.00
C561   C     0.44205   0.90736   0.91700   0.00000  Uiso   1.00
C562   C     0.57780   0.91396   0.37888   0.00000  Uiso   1.00
C563   C     0.59074   0.87942   0.44373   0.00000  Uiso   1.00
C564   C     0.56535   0.87605   0.54307   0.00000  Uiso   1.00
C565   C     0.53532   0.85619   0.71122   0.00000  Uiso   1.00
C566   C     0.53264   0.97921   0.32842   0.00000  Uiso   1.00
C567   C     0.58502   0.99947   0.30679   0.00000  Uiso   1.00
C568   C     0.59680   0.04276   0.31752   0.00000  Uiso   1.00
C569   C     0.64695   0.05489   0.29387   0.00000  Uiso   1.00
C570   C     0.51877   0.95613   0.22454   0.00000  Uiso   1.00
C571   C     0.47484   0.96298   0.16613   0.00000  Uiso   1.00
C572   C     0.46922   0.93863   0.07325   0.00000  Uiso   1.00
C573   C     0.54080   0.94406   0.41207   0.00000  Uiso   1.00
C574   C     0.51538   0.94074   0.51132   0.00000  Uiso   1.00
C575   C     0.52829   0.90621   0.57631   0.00000  Uiso   1.00
H576   H     0.62956   0.90036   0.24149   0.00000  Uiso   1.00
H577   H     0.70079   0.95814   0.22425   0.00000  Uiso   1.00
H578   H     0.57885   0.87837   0.07289   0.00000  Uiso   1.00
H579   H     0.61938   0.85614   0.41802   0.00000  Uiso   1.00
H580   H     0.26343   0.53548   0.21972   0.00000  Uiso   1.00
H581   H     0.50631   0.86727   0.90059   0.00000  Uiso   1.00
H582   H     0.59177   0.82038   0.62837   0.00000  Uiso   1.00
H583   H     0.50383   0.00265   0.35426   0.00000  Uiso   1.00
H584   H     0.56816   0.06604   0.34320   0.00000  Uiso   1.00
H585   H     0.44622   0.98627   0.19184   0.00000  Uiso   1.00
H586   H     0.48675   0.96403   0.53697   0.00000  Uiso   1.00
H587   H     0.15578   0.62306   0.31626   0.00000  Uiso   1.00
H588   H     0.39866   0.95484   0.99714   0.00000  Uiso   1.00
H589   H     0.48412   0.90795   0.72492   0.00000  Uiso   1.00
O590   O     0.25419   0.61913   0.25865   0.00000  Uiso   1.00
O591   O     0.41685   0.89844   0.83998   0.00000  Uiso   1.00
O592   O     0.52898   0.83692   0.79481   0.00000  Uiso   1.00
N593   N     0.22927   0.54739   0.24398   0.00000  Uiso   1.00
N594   N     0.48888   0.89013   0.94560   0.00000  Uiso   1.00
N595   N     0.56877   0.84628   0.62601   0.00000  Uiso   1.00
N596   N     0.17135   0.59452   0.29593   0.00000  Uiso   1.00
N597   N     0.43095   0.93725   0.99755   0.00000  Uiso   1.00
N598   N     0.51085   0.89341   0.67796   0.00000  Uiso   1.00
C599   C     0.62827   0.67345   0.30116   0.00000  Uiso   1.00
C600   C     0.67832   0.64826   0.30244   0.00000  Uiso   1.00
C601   C     0.68410   0.60502   0.27727   0.00000  Uiso   1.00
C602   C     0.73304   0.58795   0.28324   0.00000  Uiso   1.00
C603   C     0.30443   0.04500   0.28059   0.00000  Uiso   1.00
C604   C     0.63777   0.71135   0.22521   0.00000  Uiso   1.00
C605   C     0.60944   0.72116   0.13513   0.00000  Uiso   1.00
C606   C     0.62424   0.75721   0.07611   0.00000  Uiso   1.00
C607   C     0.63265   0.81222   0.95362   0.00000  Uiso   1.00
C608   C     0.62126   0.69266   0.41376   0.00000  Uiso   1.00
C609   C     0.57904   0.68676   0.48221   0.00000  Uiso   1.00
C610   C     0.57994   0.70708   0.58192   0.00000  Uiso   1.00
C611   C     0.56271   0.73308   0.75217   0.00000  Uiso   1.00
C612   C     0.70493   0.72004   0.35652   0.00000  Uiso   1.00
C613   C     0.71996   0.67357   0.33250   0.00000  Uiso   1.00
C614   C     0.76891   0.65656   0.33852   0.00000  Uiso   1.00
C615   C     0.77476   0.61330   0.31337   0.00000  Uiso   1.00
C616   C     0.67941   0.73666   0.25528   0.00000  Uiso   1.00
C617   C     0.69426   0.77270   0.19638   0.00000  Uiso   1.00
C618   C     0.66596   0.78256   0.10623   0.00000  Uiso   1.00
C619   C     0.66290   0.71797   0.44383   0.00000  Uiso   1.00
C620   C     0.66386   0.73830   0.54345   0.00000  Uiso   1.00
C621   C     0.62165   0.73243   0.61204   0.00000  Uiso   1.00
H622   H     0.59585   0.65375   0.27775   0.00000  Uiso   1.00
H623   H     0.65186   0.58545   0.25400   0.00000  Uiso   1.00
H624   H     0.57721   0.70157   0.11189   0.00000  Uiso   1.00
H625   H     0.54682   0.66718   0.45891   0.00000  Uiso   1.00
H626   H     0.73232   0.52088   0.24088   0.00000  Uiso   1.00
H627   H     0.57491   0.76574   0.94127   0.00000  Uiso   1.00
H628   H     0.51083   0.69322   0.67302   0.00000  Uiso   1.00
H629   H     0.73735   0.73974   0.37993   0.00000  Uiso   1.00
H630   H     0.80113   0.67615   0.36179   0.00000  Uiso   1.00
H631   H     0.72648   0.79228   0.21968   0.00000  Uiso   1.00
H632   H     0.69609   0.75788   0.56670   0.00000  Uiso   1.00
H633   H     0.35348   0.09450   0.32836   0.00000  Uiso   1.00
H634   H     0.69606   0.83937   0.02875   0.00000  Uiso   1.00
H635   H     0.63198   0.76684   0.76050   0.00000  Uiso   1.00
O636   O     0.33230   0.01432   0.27081   0.00000  Uiso   1.00
O637   O     0.62578   0.83557   0.87774   0.00000  Uiso   1.00
O638   O     0.54170   0.74042   0.83778   0.00000  Uiso   1.00
N639   N     0.75208   0.54693   0.26398   0.00000  Uiso   1.00
N640   N     0.60492   0.77586   0.98385   0.00000  Uiso   1.00
N641   N     0.54500   0.70807   0.66797   0.00000  Uiso   1.00
N642   N     0.81728   0.58655   0.31106   0.00000  Uiso   1.00
N643   N     0.67011   0.81548   0.03092   0.00000  Uiso   1.00
N644   N     0.61019   0.74768   0.71504   0.00000  Uiso   1.00
C645   C     0.40000   0.58214   0.46452   0.00000  Uiso   1.00
C646   C     0.37505   0.53791   0.47333   0.00000  Uiso   1.00
C647   C     0.32395   0.52881   0.45549   0.00000  Uiso   1.00
C648   C     0.30859   0.48630   0.46762   0.00000  Uiso   1.00
C649   C     0.76460   0.92252   0.47685   0.00000  Uiso   1.00
C650   C     0.44441   0.57733   0.38335   0.00000  Uiso   1.00
C651   C     0.45163   0.60137   0.28987   0.00000  Uiso   1.00
C652   C     0.49467   0.59205   0.22627   0.00000  Uiso   1.00
C653   C     0.55837   0.58949   0.09585   0.00000  Uiso   1.00
C654   C     0.42413   0.59055   0.57337   0.00000  Uiso   1.00
C655   C     0.41431   0.62572   0.63964   0.00000  Uiso   1.00
C656   C     0.44027   0.62754   0.73601   0.00000  Uiso   1.00
C657   C     0.47248   0.64551   0.90061   0.00000  Uiso   1.00
C658   C     0.46359   0.52285   0.51780   0.00000  Uiso   1.00
C659   C     0.40959   0.50571   0.50227   0.00000  Uiso   1.00
C660   C     0.39430   0.46321   0.51444   0.00000  Uiso   1.00
C661   C     0.34319   0.45404   0.49662   0.00000  Uiso   1.00
C662   C     0.47895   0.54512   0.41229   0.00000  Uiso   1.00
C663   C     0.52198   0.53577   0.34882   0.00000  Uiso   1.00
C664   C     0.52926   0.55979   0.25526   0.00000  Uiso   1.00
C665   C     0.45866   0.55835   0.60231   0.00000  Uiso   1.00
C666   C     0.48465   0.56012   0.69859   0.00000  Uiso   1.00
C667   C     0.47487   0.59528   0.76500   0.00000  Uiso   1.00
H668   H     0.37312   0.60721   0.44198   0.00000  Uiso   1.00
H669   H     0.29724   0.55374   0.43308   0.00000  Uiso   1.00
H670   H     0.42490   0.62629   0.26750   0.00000  Uiso   1.00
H671   H     0.38758   0.65063   0.61721   0.00000  Uiso   1.00
H672   H     0.72835   0.98024   0.43594   0.00000  Uiso   1.00
H673   H     0.49754   0.63324   0.08682   0.00000  Uiso   1.00
H674   H     0.41884   0.68457   0.82426   0.00000  Uiso   1.00
H675   H     0.49048   0.49778   0.54033   0.00000  Uiso   1.00
H676   H     0.42103   0.43829   0.53684   0.00000  Uiso   1.00
H677   H     0.54870   0.51085   0.37125   0.00000  Uiso   1.00
H678   H     0.51137   0.53519   0.72096   0.00000  Uiso   1.00
H679   H     0.82882   0.88654   0.52015   0.00000  Uiso   1.00
H680   H     0.59802   0.53954   0.17103   0.00000  Uiso   1.00
H681   H     0.51931   0.59087   0.90847   0.00000  Uiso   1.00
O682   O     0.73079   0.89623   0.47393   0.00000  Uiso   1.00
O683   O     0.58397   0.59697   0.01591   0.00000  Uiso   1.00
O684   O     0.48071   0.66431   0.98342   0.00000  Uiso   1.00
N685   N     0.76152   0.96635   0.45626   0.00000  Uiso   1.00
N686   N     0.51320   0.60939   0.12984   0.00000  Uiso   1.00
N687   N     0.43963   0.65739   0.81928   0.00000  Uiso   1.00
N688   N     0.81559   0.91594   0.50157   0.00000  Uiso   1.00
N689   N     0.56727   0.55897   0.17516   0.00000  Uiso   1.00
N690   N     0.49369   0.60697   0.86459   0.00000  Uiso   1.00
C691   C     0.36904   0.82173   0.45564   0.00000  Uiso   1.00
C692   C     0.32041   0.84885   0.45807   0.00000  Uiso   1.00
C693   C     0.31727   0.89200   0.43045   0.00000  Uiso   1.00
C694   C     0.26925   0.91102   0.43803   0.00000  Uiso   1.00
C695   C     0.70032   0.45668   0.43657   0.00000  Uiso   1.00
C696   C     0.35817   0.78348   0.38265   0.00000  Uiso   1.00
C697   C     0.38678   0.77167   0.29164   0.00000  Uiso   1.00
C698   C     0.37055   0.73565   0.23575   0.00000  Uiso   1.00
C699   C     0.36027   0.67980   0.11726   0.00000  Uiso   1.00
C700   C     0.37393   0.80341   0.56908   0.00000  Uiso   1.00
C701   C     0.41579   0.80834   0.63481   0.00000  Uiso   1.00
C702   C     0.41283   0.78909   0.73587   0.00000  Uiso   1.00
C703   C     0.42701   0.76419   0.90683   0.00000  Uiso   1.00
C704   C     0.28934   0.77876   0.51822   0.00000  Uiso   1.00
C705   C     0.27712   0.82551   0.49205   0.00000  Uiso   1.00
C706   C     0.22909   0.84446   0.49968   0.00000  Uiso   1.00
C707   C     0.22588   0.88764   0.47208   0.00000  Uiso   1.00
C708   C     0.31488   0.76014   0.41664   0.00000  Uiso   1.00
C709   C     0.29861   0.72413   0.36088   0.00000  Uiso   1.00
C710   C     0.32719   0.71227   0.26980   0.00000  Uiso   1.00
C711   C     0.33064   0.78007   0.60307   0.00000  Uiso   1.00
C712   C     0.32762   0.76080   0.70405   0.00000  Uiso   1.00
C713   C     0.36947   0.76571   0.76992   0.00000  Uiso   1.00
H714   H     0.40274   0.83989   0.42918   0.00000  Uiso   1.00
H715   H     0.35078   0.91005   0.40414   0.00000  Uiso   1.00
H716   H     0.42028   0.78973   0.26536   0.00000  Uiso   1.00
H717   H     0.44929   0.82640   0.60848   0.00000  Uiso   1.00
H718   H     0.27407   0.97754   0.39133   0.00000  Uiso   1.00
H719   H     0.42064   0.72383   0.09874   0.00000  Uiso   1.00
H720   H     0.48180   0.80116   0.82227   0.00000  Uiso   1.00
H721   H     0.25564   0.76059   0.54468   0.00000  Uiso   1.00
H722   H     0.19560   0.82640   0.52599   0.00000  Uiso   1.00
H723   H     0.26511   0.70607   0.38721   0.00000  Uiso   1.00
H724   H     0.29411   0.74275   0.73032   0.00000  Uiso   1.00
H725   H     0.64812   0.40964   0.49022   0.00000  Uiso   1.00
H726   H     0.29470   0.65593   0.19763   0.00000  Uiso   1.00
H727   H     0.35585   0.73326   0.92116   0.00000  Uiso   1.00
O728   O     0.67425   0.48831   0.42636   0.00000  Uiso   1.00
O729   O     0.36655   0.65545   0.04250   0.00000  Uiso   1.00
O730   O     0.44679   0.75690   0.99175   0.00000  Uiso   1.00
N731   N     0.25267   0.95253   0.41719   0.00000  Uiso   1.00
N732   N     0.38970   0.71533   0.14362   0.00000  Uiso   1.00
N733   N     0.44688   0.78761   0.82005   0.00000  Uiso   1.00
N734   N     0.18490   0.91599   0.47040   0.00000  Uiso   1.00
N735   N     0.32193   0.67879   0.19684   0.00000  Uiso   1.00
N736   N     0.37911   0.75108   0.87326   0.00000  Uiso   1.00
