data_job_02569
_audit_creation_date              2018-12-19
_audit_creation_method            'Materials Studio'
_symmetry_space_group_name_H-M    'P1'
_symmetry_Int_Tables_number       1
_symmetry_cell_setting            triclinic
loop_
_symmetry_equiv_pos_as_xyz
  x,y,z
_cell_length_a                    40.5100
_cell_length_b                    40.5100
_cell_length_c                    8.0276
_cell_angle_alpha                 90.0000
_cell_angle_beta                  90.0000
_cell_angle_gamma                 90.0000
loop_
_atom_site_label
_atom_site_type_symbol
_atom_site_fract_x
_atom_site_fract_y
_atom_site_fract_z
_atom_site_U_iso_or_equiv
_atom_site_adp_type
_atom_site_occupancy
C1     C     0.63867   0.57840   0.17667   0.00000  Uiso   1.00
C2     C     0.62459   0.60210   0.04727   0.00000  Uiso   1.00
C3     C     0.61434   0.63424   0.07733   0.00000  Uiso   1.00
C4     C     0.60219   0.65189   0.94238   0.00000  Uiso   1.00
C5     C     0.58059   0.69081   0.76570   0.00000  Uiso   1.00
C6     C     0.61683   0.54776   0.17129   0.00000  Uiso   1.00
C7     C     0.60005   0.53421   0.30563   0.00000  Uiso   1.00
C8     C     0.58137   0.50612   0.27507   0.00000  Uiso   1.00
C9     C     0.54774   0.46067   0.29096   0.00000  Uiso   1.00
C10    C     0.67228   0.56767   0.11056   0.00000  Uiso   1.00
C11    C     0.70213   0.57085   0.19386   0.00000  Uiso   1.00
C12    C     0.73014   0.55952   0.11218   0.00000  Uiso   1.00
C13    C     0.78262   0.54498   0.03378   0.00000  Uiso   1.00
C14    C     0.63532   0.55261   0.88354   0.00000  Uiso   1.00
C15    C     0.62277   0.58808   0.88806   0.00000  Uiso   1.00
C16    C     0.61064   0.60570   0.75302   0.00000  Uiso   1.00
C17    C     0.60037   0.63786   0.78287   0.00000  Uiso   1.00
C18    C     0.61501   0.53375   0.01208   0.00000  Uiso   1.00
C19    C     0.59635   0.50567   0.98132   0.00000  Uiso   1.00
C20    C     0.57955   0.49209   0.11557   0.00000  Uiso   1.00
C21    C     0.67047   0.55366   0.95134   0.00000  Uiso   1.00
C22    C     0.69843   0.54232   0.86953   0.00000  Uiso   1.00
C23    C     0.72832   0.54548   0.95268   0.00000  Uiso   1.00
H24    H     0.64008   0.58931   0.30063   0.00000  Uiso   1.00
H25    H     0.61574   0.64507   0.20057   0.00000  Uiso   1.00
H26    H     0.60146   0.54506   0.42883   0.00000  Uiso   1.00
H27    H     0.70353   0.58170   0.31706   0.00000  Uiso   1.00
H28    H     0.58795   0.70071   0.01944   0.00000  Uiso   1.00
H29    H     0.55785   0.48982   0.50075   0.00000  Uiso   1.00
H30    H     0.77308   0.56708   0.26507   0.00000  Uiso   1.00
H31    H     0.63391   0.54170   0.75958   0.00000  Uiso   1.00
H32    H     0.60923   0.59485   0.62982   0.00000  Uiso   1.00
H33    H     0.59495   0.49483   0.85809   0.00000  Uiso   1.00
H34    H     0.69702   0.53148   0.74632   0.00000  Uiso   1.00
H35    H     0.58266   0.65995   0.55620   0.00000  Uiso   1.00
H36    H     0.55256   0.44906   0.03752   0.00000  Uiso   1.00
H37    H     0.76779   0.52632   0.80183   0.00000  Uiso   1.00
O38    O     0.56918   0.71615   0.71223   0.00000  Uiso   1.00
O39    O     0.52969   0.43947   0.34371   0.00000  Uiso   1.00
O40    O     0.81207   0.54083   0.03450   0.00000  Uiso   1.00
N41    N     0.59010   0.68382   0.92821   0.00000  Uiso   1.00
N42    N     0.56195   0.48666   0.37821   0.00000  Uiso   1.00
N43    N     0.76317   0.55888   0.15789   0.00000  Uiso   1.00
N44    N     0.58726   0.66189   0.67895   0.00000  Uiso   1.00
N45    N     0.55911   0.46473   0.12894   0.00000  Uiso   1.00
N46    N     0.76033   0.53695   0.90862   0.00000  Uiso   1.00
C47    C     0.13867   0.07840   0.67667   0.00000  Uiso   1.00
C48    C     0.12459   0.10210   0.54727   0.00000  Uiso   1.00
C49    C     0.11434   0.13424   0.57733   0.00000  Uiso   1.00
C50    C     0.10219   0.15189   0.44238   0.00000  Uiso   1.00
C51    C     0.08059   0.19081   0.26570   0.00000  Uiso   1.00
C52    C     0.11683   0.04776   0.67129   0.00000  Uiso   1.00
C53    C     0.10005   0.03421   0.80563   0.00000  Uiso   1.00
C54    C     0.08137   0.00612   0.77507   0.00000  Uiso   1.00
C55    C     0.04774   0.96067   0.79096   0.00000  Uiso   1.00
C56    C     0.17228   0.06767   0.61056   0.00000  Uiso   1.00
C57    C     0.20213   0.07085   0.69386   0.00000  Uiso   1.00
C58    C     0.23014   0.05952   0.61218   0.00000  Uiso   1.00
C59    C     0.28262   0.04498   0.53378   0.00000  Uiso   1.00
C60    C     0.13532   0.05261   0.38354   0.00000  Uiso   1.00
C61    C     0.12277   0.08808   0.38806   0.00000  Uiso   1.00
C62    C     0.11064   0.10570   0.25302   0.00000  Uiso   1.00
C63    C     0.10037   0.13786   0.28287   0.00000  Uiso   1.00
C64    C     0.11501   0.03375   0.51208   0.00000  Uiso   1.00
C65    C     0.09635   0.00567   0.48132   0.00000  Uiso   1.00
C66    C     0.07955   0.99209   0.61557   0.00000  Uiso   1.00
C67    C     0.17047   0.05366   0.45134   0.00000  Uiso   1.00
C68    C     0.19843   0.04232   0.36953   0.00000  Uiso   1.00
C69    C     0.22832   0.04548   0.45268   0.00000  Uiso   1.00
H70    H     0.14008   0.08931   0.80063   0.00000  Uiso   1.00
H71    H     0.11574   0.14507   0.70057   0.00000  Uiso   1.00
H72    H     0.10146   0.04506   0.92883   0.00000  Uiso   1.00
H73    H     0.20353   0.08170   0.81706   0.00000  Uiso   1.00
H74    H     0.08795   0.20071   0.51944   0.00000  Uiso   1.00
H75    H     0.05785   0.98982   0.00075   0.00000  Uiso   1.00
H76    H     0.27308   0.06708   0.76507   0.00000  Uiso   1.00
H77    H     0.13391   0.04170   0.25958   0.00000  Uiso   1.00
H78    H     0.10923   0.09485   0.12982   0.00000  Uiso   1.00
H79    H     0.09495   0.99483   0.35809   0.00000  Uiso   1.00
H80    H     0.19702   0.03148   0.24632   0.00000  Uiso   1.00
H81    H     0.08266   0.15995   0.05620   0.00000  Uiso   1.00
H82    H     0.05256   0.94906   0.53752   0.00000  Uiso   1.00
H83    H     0.26779   0.02632   0.30183   0.00000  Uiso   1.00
O84    O     0.06918   0.21615   0.21223   0.00000  Uiso   1.00
O85    O     0.02969   0.93947   0.84371   0.00000  Uiso   1.00
O86    O     0.31207   0.04083   0.53450   0.00000  Uiso   1.00
N87    N     0.09010   0.18382   0.42821   0.00000  Uiso   1.00
N88    N     0.06195   0.98666   0.87821   0.00000  Uiso   1.00
N89    N     0.26317   0.05888   0.65789   0.00000  Uiso   1.00
N90    N     0.08726   0.16189   0.17895   0.00000  Uiso   1.00
N91    N     0.05911   0.96473   0.62894   0.00000  Uiso   1.00
N92    N     0.26033   0.03695   0.40862   0.00000  Uiso   1.00
C93    C     0.86133   0.92160   0.67667   0.00000  Uiso   1.00
C94    C     0.87541   0.89790   0.54727   0.00000  Uiso   1.00
C95    C     0.88566   0.86576   0.57733   0.00000  Uiso   1.00
C96    C     0.89781   0.84811   0.44238   0.00000  Uiso   1.00
C97    C     0.91941   0.80919   0.26570   0.00000  Uiso   1.00
C98    C     0.88317   0.95224   0.67129   0.00000  Uiso   1.00
C99    C     0.89995   0.96579   0.80563   0.00000  Uiso   1.00
C100   C     0.91863   0.99388   0.77507   0.00000  Uiso   1.00
C101   C     0.95226   0.03933   0.79096   0.00000  Uiso   1.00
C102   C     0.82772   0.93233   0.61056   0.00000  Uiso   1.00
C103   C     0.79787   0.92915   0.69386   0.00000  Uiso   1.00
C104   C     0.76986   0.94048   0.61218   0.00000  Uiso   1.00
C105   C     0.71738   0.95502   0.53378   0.00000  Uiso   1.00
C106   C     0.86468   0.94739   0.38354   0.00000  Uiso   1.00
C107   C     0.87723   0.91192   0.38806   0.00000  Uiso   1.00
C108   C     0.88936   0.89430   0.25302   0.00000  Uiso   1.00
C109   C     0.89963   0.86214   0.28287   0.00000  Uiso   1.00
C110   C     0.88499   0.96625   0.51208   0.00000  Uiso   1.00
C111   C     0.90365   0.99433   0.48132   0.00000  Uiso   1.00
C112   C     0.92045   0.00791   0.61557   0.00000  Uiso   1.00
C113   C     0.82953   0.94634   0.45134   0.00000  Uiso   1.00
C114   C     0.80157   0.95768   0.36953   0.00000  Uiso   1.00
C115   C     0.77168   0.95452   0.45268   0.00000  Uiso   1.00
H116   H     0.85992   0.91069   0.80063   0.00000  Uiso   1.00
H117   H     0.88426   0.85493   0.70057   0.00000  Uiso   1.00
H118   H     0.89854   0.95494   0.92883   0.00000  Uiso   1.00
H119   H     0.79647   0.91830   0.81706   0.00000  Uiso   1.00
H120   H     0.91205   0.79929   0.51944   0.00000  Uiso   1.00
H121   H     0.94215   0.01018   0.00075   0.00000  Uiso   1.00
H122   H     0.72692   0.93292   0.76507   0.00000  Uiso   1.00
H123   H     0.86609   0.95830   0.25958   0.00000  Uiso   1.00
H124   H     0.89077   0.90515   0.12982   0.00000  Uiso   1.00
H125   H     0.90505   0.00517   0.35809   0.00000  Uiso   1.00
H126   H     0.80298   0.96852   0.24632   0.00000  Uiso   1.00
H127   H     0.91734   0.84005   0.05620   0.00000  Uiso   1.00
H128   H     0.94744   0.05094   0.53752   0.00000  Uiso   1.00
H129   H     0.73221   0.97368   0.30183   0.00000  Uiso   1.00
O130   O     0.93082   0.78385   0.21223   0.00000  Uiso   1.00
O131   O     0.97031   0.06053   0.84371   0.00000  Uiso   1.00
O132   O     0.68793   0.95917   0.53450   0.00000  Uiso   1.00
N133   N     0.90990   0.81618   0.42821   0.00000  Uiso   1.00
N134   N     0.93805   0.01334   0.87821   0.00000  Uiso   1.00
N135   N     0.73683   0.94112   0.65789   0.00000  Uiso   1.00
N136   N     0.91274   0.83811   0.17895   0.00000  Uiso   1.00
N137   N     0.94089   0.03527   0.62894   0.00000  Uiso   1.00
N138   N     0.73967   0.96305   0.40862   0.00000  Uiso   1.00
C139   C     0.36133   0.42160   0.17667   0.00000  Uiso   1.00
C140   C     0.37541   0.39790   0.04727   0.00000  Uiso   1.00
C141   C     0.38566   0.36576   0.07733   0.00000  Uiso   1.00
C142   C     0.39781   0.34811   0.94238   0.00000  Uiso   1.00
C143   C     0.41941   0.30919   0.76570   0.00000  Uiso   1.00
C144   C     0.38317   0.45224   0.17129   0.00000  Uiso   1.00
C145   C     0.39995   0.46579   0.30563   0.00000  Uiso   1.00
C146   C     0.41863   0.49388   0.27507   0.00000  Uiso   1.00
C147   C     0.45226   0.53933   0.29096   0.00000  Uiso   1.00
C148   C     0.32772   0.43233   0.11056   0.00000  Uiso   1.00
C149   C     0.29787   0.42915   0.19386   0.00000  Uiso   1.00
C150   C     0.26986   0.44048   0.11218   0.00000  Uiso   1.00
C151   C     0.21738   0.45502   0.03378   0.00000  Uiso   1.00
C152   C     0.36468   0.44739   0.88354   0.00000  Uiso   1.00
C153   C     0.37723   0.41192   0.88806   0.00000  Uiso   1.00
C154   C     0.38936   0.39430   0.75302   0.00000  Uiso   1.00
C155   C     0.39963   0.36214   0.78287   0.00000  Uiso   1.00
C156   C     0.38499   0.46625   0.01208   0.00000  Uiso   1.00
C157   C     0.40365   0.49433   0.98132   0.00000  Uiso   1.00
C158   C     0.42045   0.50791   0.11557   0.00000  Uiso   1.00
C159   C     0.32953   0.44634   0.95134   0.00000  Uiso   1.00
C160   C     0.30157   0.45768   0.86953   0.00000  Uiso   1.00
C161   C     0.27168   0.45452   0.95268   0.00000  Uiso   1.00
H162   H     0.35992   0.41069   0.30063   0.00000  Uiso   1.00
H163   H     0.38426   0.35493   0.20057   0.00000  Uiso   1.00
H164   H     0.39854   0.45494   0.42883   0.00000  Uiso   1.00
H165   H     0.29647   0.41830   0.31706   0.00000  Uiso   1.00
H166   H     0.41205   0.29929   0.01944   0.00000  Uiso   1.00
H167   H     0.44215   0.51018   0.50075   0.00000  Uiso   1.00
H168   H     0.22692   0.43292   0.26507   0.00000  Uiso   1.00
H169   H     0.36609   0.45830   0.75958   0.00000  Uiso   1.00
H170   H     0.39077   0.40515   0.62982   0.00000  Uiso   1.00
H171   H     0.40505   0.50517   0.85809   0.00000  Uiso   1.00
H172   H     0.30298   0.46852   0.74632   0.00000  Uiso   1.00
H173   H     0.41734   0.34005   0.55620   0.00000  Uiso   1.00
H174   H     0.44744   0.55094   0.03752   0.00000  Uiso   1.00
H175   H     0.23221   0.47368   0.80183   0.00000  Uiso   1.00
O176   O     0.43082   0.28385   0.71223   0.00000  Uiso   1.00
O177   O     0.47031   0.56053   0.34371   0.00000  Uiso   1.00
O178   O     0.18793   0.45917   0.03450   0.00000  Uiso   1.00
N179   N     0.40990   0.31618   0.92821   0.00000  Uiso   1.00
N180   N     0.43805   0.51334   0.37821   0.00000  Uiso   1.00
N181   N     0.23683   0.44112   0.15789   0.00000  Uiso   1.00
N182   N     0.41274   0.33811   0.67895   0.00000  Uiso   1.00
N183   N     0.44089   0.53527   0.12894   0.00000  Uiso   1.00
N184   N     0.23967   0.46305   0.90862   0.00000  Uiso   1.00
C185   C     0.42160   0.13867   0.42667   0.00000  Uiso   1.00
C186   C     0.39790   0.12459   0.29727   0.00000  Uiso   1.00
C187   C     0.36576   0.11434   0.32733   0.00000  Uiso   1.00
C188   C     0.34811   0.10219   0.19238   0.00000  Uiso   1.00
C189   C     0.30919   0.08059   0.01570   0.00000  Uiso   1.00
C190   C     0.45224   0.11683   0.42129   0.00000  Uiso   1.00
C191   C     0.46579   0.10005   0.55563   0.00000  Uiso   1.00
C192   C     0.49388   0.08137   0.52507   0.00000  Uiso   1.00
C193   C     0.53933   0.04774   0.54096   0.00000  Uiso   1.00
C194   C     0.43233   0.17228   0.36056   0.00000  Uiso   1.00
C195   C     0.42915   0.20213   0.44386   0.00000  Uiso   1.00
C196   C     0.44048   0.23014   0.36218   0.00000  Uiso   1.00
C197   C     0.45502   0.28262   0.28378   0.00000  Uiso   1.00
C198   C     0.44739   0.13532   0.13354   0.00000  Uiso   1.00
C199   C     0.41192   0.12277   0.13806   0.00000  Uiso   1.00
C200   C     0.39430   0.11064   0.00302   0.00000  Uiso   1.00
C201   C     0.36214   0.10037   0.03287   0.00000  Uiso   1.00
C202   C     0.46625   0.11501   0.26208   0.00000  Uiso   1.00
C203   C     0.49433   0.09635   0.23132   0.00000  Uiso   1.00
C204   C     0.50791   0.07955   0.36557   0.00000  Uiso   1.00
C205   C     0.44634   0.17047   0.20134   0.00000  Uiso   1.00
C206   C     0.45768   0.19843   0.11953   0.00000  Uiso   1.00
C207   C     0.45452   0.22832   0.20268   0.00000  Uiso   1.00
H208   H     0.41069   0.14008   0.55063   0.00000  Uiso   1.00
H209   H     0.35493   0.11574   0.45057   0.00000  Uiso   1.00
H210   H     0.45494   0.10146   0.67883   0.00000  Uiso   1.00
H211   H     0.41830   0.20353   0.56706   0.00000  Uiso   1.00
H212   H     0.29929   0.08795   0.26944   0.00000  Uiso   1.00
H213   H     0.51018   0.05785   0.75075   0.00000  Uiso   1.00
H214   H     0.43292   0.27308   0.51507   0.00000  Uiso   1.00
H215   H     0.45830   0.13391   0.00958   0.00000  Uiso   1.00
H216   H     0.40515   0.10923   0.87982   0.00000  Uiso   1.00
H217   H     0.50517   0.09495   0.10809   0.00000  Uiso   1.00
H218   H     0.46852   0.19702   0.99632   0.00000  Uiso   1.00
H219   H     0.34005   0.08266   0.80620   0.00000  Uiso   1.00
H220   H     0.55094   0.05256   0.28752   0.00000  Uiso   1.00
H221   H     0.47368   0.26779   0.05183   0.00000  Uiso   1.00
O222   O     0.28385   0.06918   0.96223   0.00000  Uiso   1.00
O223   O     0.56053   0.02969   0.59371   0.00000  Uiso   1.00
O224   O     0.45917   0.31207   0.28450   0.00000  Uiso   1.00
N225   N     0.31618   0.09010   0.17821   0.00000  Uiso   1.00
N226   N     0.51334   0.06195   0.62821   0.00000  Uiso   1.00
N227   N     0.44112   0.26317   0.40789   0.00000  Uiso   1.00
N228   N     0.33811   0.08726   0.92895   0.00000  Uiso   1.00
N229   N     0.53527   0.05911   0.37894   0.00000  Uiso   1.00
N230   N     0.46305   0.26033   0.15862   0.00000  Uiso   1.00
C231   C     0.92160   0.63867   0.92667   0.00000  Uiso   1.00
C232   C     0.89790   0.62459   0.79727   0.00000  Uiso   1.00
C233   C     0.86576   0.61434   0.82733   0.00000  Uiso   1.00
C234   C     0.84811   0.60219   0.69238   0.00000  Uiso   1.00
C235   C     0.80919   0.58059   0.51570   0.00000  Uiso   1.00
C236   C     0.95224   0.61683   0.92129   0.00000  Uiso   1.00
C237   C     0.96579   0.60005   0.05563   0.00000  Uiso   1.00
C238   C     0.99388   0.58137   0.02507   0.00000  Uiso   1.00
C239   C     0.03933   0.54774   0.04096   0.00000  Uiso   1.00
C240   C     0.93233   0.67228   0.86056   0.00000  Uiso   1.00
C241   C     0.92915   0.70213   0.94386   0.00000  Uiso   1.00
C242   C     0.94048   0.73014   0.86218   0.00000  Uiso   1.00
C243   C     0.95502   0.78262   0.78378   0.00000  Uiso   1.00
C244   C     0.94739   0.63532   0.63354   0.00000  Uiso   1.00
C245   C     0.91192   0.62277   0.63806   0.00000  Uiso   1.00
C246   C     0.89430   0.61064   0.50302   0.00000  Uiso   1.00
C247   C     0.86214   0.60037   0.53287   0.00000  Uiso   1.00
C248   C     0.96625   0.61501   0.76208   0.00000  Uiso   1.00
C249   C     0.99433   0.59635   0.73132   0.00000  Uiso   1.00
C250   C     0.00791   0.57955   0.86557   0.00000  Uiso   1.00
C251   C     0.94634   0.67047   0.70134   0.00000  Uiso   1.00
C252   C     0.95768   0.69843   0.61953   0.00000  Uiso   1.00
C253   C     0.95452   0.72832   0.70268   0.00000  Uiso   1.00
H254   H     0.91069   0.64008   0.05063   0.00000  Uiso   1.00
H255   H     0.85493   0.61574   0.95057   0.00000  Uiso   1.00
H256   H     0.95494   0.60146   0.17883   0.00000  Uiso   1.00
H257   H     0.91830   0.70353   0.06706   0.00000  Uiso   1.00
H258   H     0.79929   0.58795   0.76944   0.00000  Uiso   1.00
H259   H     0.01018   0.55785   0.25075   0.00000  Uiso   1.00
H260   H     0.93292   0.77308   0.01507   0.00000  Uiso   1.00
H261   H     0.95830   0.63391   0.50958   0.00000  Uiso   1.00
H262   H     0.90515   0.60923   0.37982   0.00000  Uiso   1.00
H263   H     0.00517   0.59495   0.60809   0.00000  Uiso   1.00
H264   H     0.96852   0.69702   0.49632   0.00000  Uiso   1.00
H265   H     0.84005   0.58266   0.30620   0.00000  Uiso   1.00
H266   H     0.05094   0.55256   0.78752   0.00000  Uiso   1.00
H267   H     0.97368   0.76779   0.55183   0.00000  Uiso   1.00
O268   O     0.78385   0.56918   0.46223   0.00000  Uiso   1.00
O269   O     0.06053   0.52969   0.09371   0.00000  Uiso   1.00
O270   O     0.95917   0.81207   0.78450   0.00000  Uiso   1.00
N271   N     0.81618   0.59010   0.67821   0.00000  Uiso   1.00
N272   N     0.01334   0.56195   0.12821   0.00000  Uiso   1.00
N273   N     0.94112   0.76317   0.90789   0.00000  Uiso   1.00
N274   N     0.83811   0.58726   0.42895   0.00000  Uiso   1.00
N275   N     0.03527   0.55911   0.87894   0.00000  Uiso   1.00
N276   N     0.96305   0.76033   0.65862   0.00000  Uiso   1.00
C277   C     0.07840   0.36133   0.92667   0.00000  Uiso   1.00
C278   C     0.10210   0.37541   0.79727   0.00000  Uiso   1.00
C279   C     0.13424   0.38566   0.82733   0.00000  Uiso   1.00
C280   C     0.15189   0.39781   0.69238   0.00000  Uiso   1.00
C281   C     0.19081   0.41941   0.51570   0.00000  Uiso   1.00
C282   C     0.04776   0.38317   0.92129   0.00000  Uiso   1.00
C283   C     0.03421   0.39995   0.05563   0.00000  Uiso   1.00
C284   C     0.00612   0.41863   0.02507   0.00000  Uiso   1.00
C285   C     0.96067   0.45226   0.04096   0.00000  Uiso   1.00
C286   C     0.06767   0.32772   0.86056   0.00000  Uiso   1.00
C287   C     0.07085   0.29787   0.94386   0.00000  Uiso   1.00
C288   C     0.05952   0.26986   0.86218   0.00000  Uiso   1.00
C289   C     0.04498   0.21738   0.78378   0.00000  Uiso   1.00
C290   C     0.05261   0.36468   0.63354   0.00000  Uiso   1.00
C291   C     0.08808   0.37723   0.63806   0.00000  Uiso   1.00
C292   C     0.10570   0.38936   0.50302   0.00000  Uiso   1.00
C293   C     0.13786   0.39963   0.53287   0.00000  Uiso   1.00
C294   C     0.03375   0.38499   0.76208   0.00000  Uiso   1.00
C295   C     0.00567   0.40365   0.73132   0.00000  Uiso   1.00
C296   C     0.99209   0.42045   0.86557   0.00000  Uiso   1.00
C297   C     0.05366   0.32953   0.70134   0.00000  Uiso   1.00
C298   C     0.04232   0.30157   0.61953   0.00000  Uiso   1.00
C299   C     0.04548   0.27168   0.70268   0.00000  Uiso   1.00
H300   H     0.08931   0.35992   0.05063   0.00000  Uiso   1.00
H301   H     0.14507   0.38426   0.95057   0.00000  Uiso   1.00
H302   H     0.04506   0.39854   0.17883   0.00000  Uiso   1.00
H303   H     0.08170   0.29647   0.06706   0.00000  Uiso   1.00
H304   H     0.20071   0.41205   0.76944   0.00000  Uiso   1.00
H305   H     0.98982   0.44215   0.25075   0.00000  Uiso   1.00
H306   H     0.06708   0.22692   0.01507   0.00000  Uiso   1.00
H307   H     0.04170   0.36609   0.50958   0.00000  Uiso   1.00
H308   H     0.09485   0.39077   0.37982   0.00000  Uiso   1.00
H309   H     0.99483   0.40505   0.60809   0.00000  Uiso   1.00
H310   H     0.03148   0.30298   0.49632   0.00000  Uiso   1.00
H311   H     0.15995   0.41734   0.30620   0.00000  Uiso   1.00
H312   H     0.94906   0.44744   0.78752   0.00000  Uiso   1.00
H313   H     0.02632   0.23221   0.55183   0.00000  Uiso   1.00
O314   O     0.21615   0.43082   0.46223   0.00000  Uiso   1.00
O315   O     0.93947   0.47031   0.09371   0.00000  Uiso   1.00
O316   O     0.04083   0.18793   0.78450   0.00000  Uiso   1.00
N317   N     0.18382   0.40990   0.67821   0.00000  Uiso   1.00
N318   N     0.98666   0.43805   0.12821   0.00000  Uiso   1.00
N319   N     0.05888   0.23683   0.90789   0.00000  Uiso   1.00
N320   N     0.16189   0.41274   0.42895   0.00000  Uiso   1.00
N321   N     0.96473   0.44089   0.87894   0.00000  Uiso   1.00
N322   N     0.03695   0.23967   0.65862   0.00000  Uiso   1.00
C323   C     0.57840   0.86133   0.42667   0.00000  Uiso   1.00
C324   C     0.60210   0.87541   0.29727   0.00000  Uiso   1.00
C325   C     0.63424   0.88566   0.32733   0.00000  Uiso   1.00
C326   C     0.65189   0.89781   0.19238   0.00000  Uiso   1.00
C327   C     0.69081   0.91941   0.01570   0.00000  Uiso   1.00
C328   C     0.54776   0.88317   0.42129   0.00000  Uiso   1.00
C329   C     0.53421   0.89995   0.55563   0.00000  Uiso   1.00
C330   C     0.50612   0.91863   0.52507   0.00000  Uiso   1.00
C331   C     0.46067   0.95226   0.54096   0.00000  Uiso   1.00
C332   C     0.56767   0.82772   0.36056   0.00000  Uiso   1.00
C333   C     0.57085   0.79787   0.44386   0.00000  Uiso   1.00
C334   C     0.55952   0.76986   0.36218   0.00000  Uiso   1.00
C335   C     0.54498   0.71738   0.28378   0.00000  Uiso   1.00
C336   C     0.55261   0.86468   0.13354   0.00000  Uiso   1.00
C337   C     0.58808   0.87723   0.13806   0.00000  Uiso   1.00
C338   C     0.60570   0.88936   0.00302   0.00000  Uiso   1.00
C339   C     0.63786   0.89963   0.03287   0.00000  Uiso   1.00
C340   C     0.53375   0.88499   0.26208   0.00000  Uiso   1.00
C341   C     0.50567   0.90365   0.23132   0.00000  Uiso   1.00
C342   C     0.49209   0.92045   0.36557   0.00000  Uiso   1.00
C343   C     0.55366   0.82953   0.20134   0.00000  Uiso   1.00
C344   C     0.54232   0.80157   0.11953   0.00000  Uiso   1.00
C345   C     0.54548   0.77168   0.20268   0.00000  Uiso   1.00
H346   H     0.58931   0.85992   0.55063   0.00000  Uiso   1.00
H347   H     0.64507   0.88426   0.45057   0.00000  Uiso   1.00
H348   H     0.54506   0.89854   0.67883   0.00000  Uiso   1.00
H349   H     0.58170   0.79647   0.56706   0.00000  Uiso   1.00
H350   H     0.70071   0.91205   0.26944   0.00000  Uiso   1.00
H351   H     0.48982   0.94215   0.75075   0.00000  Uiso   1.00
H352   H     0.56708   0.72692   0.51507   0.00000  Uiso   1.00
H353   H     0.54170   0.86609   0.00958   0.00000  Uiso   1.00
H354   H     0.59485   0.89077   0.87982   0.00000  Uiso   1.00
H355   H     0.49483   0.90505   0.10809   0.00000  Uiso   1.00
H356   H     0.53148   0.80298   0.99632   0.00000  Uiso   1.00
H357   H     0.65995   0.91734   0.80620   0.00000  Uiso   1.00
H358   H     0.44906   0.94744   0.28752   0.00000  Uiso   1.00
H359   H     0.52632   0.73221   0.05183   0.00000  Uiso   1.00
O360   O     0.71615   0.93082   0.96223   0.00000  Uiso   1.00
O361   O     0.43947   0.97031   0.59371   0.00000  Uiso   1.00
O362   O     0.54083   0.68793   0.28450   0.00000  Uiso   1.00
N363   N     0.68382   0.90990   0.17821   0.00000  Uiso   1.00
N364   N     0.48666   0.93805   0.62821   0.00000  Uiso   1.00
N365   N     0.55888   0.73683   0.40789   0.00000  Uiso   1.00
N366   N     0.66189   0.91274   0.92895   0.00000  Uiso   1.00
N367   N     0.46473   0.94089   0.37894   0.00000  Uiso   1.00
N368   N     0.53695   0.73967   0.15862   0.00000  Uiso   1.00
C369   C     0.36133   0.92160   0.07333   0.00000  Uiso   1.00
C370   C     0.37541   0.89790   0.20273   0.00000  Uiso   1.00
C371   C     0.38566   0.86576   0.17267   0.00000  Uiso   1.00
C372   C     0.39781   0.84811   0.30762   0.00000  Uiso   1.00
C373   C     0.41941   0.80919   0.48430   0.00000  Uiso   1.00
C374   C     0.38317   0.95224   0.07871   0.00000  Uiso   1.00
C375   C     0.39995   0.96579   0.94437   0.00000  Uiso   1.00
C376   C     0.41863   0.99388   0.97493   0.00000  Uiso   1.00
C377   C     0.45226   0.03933   0.95904   0.00000  Uiso   1.00
C378   C     0.32772   0.93233   0.13944   0.00000  Uiso   1.00
C379   C     0.29787   0.92915   0.05614   0.00000  Uiso   1.00
C380   C     0.26986   0.94048   0.13782   0.00000  Uiso   1.00
C381   C     0.21738   0.95502   0.21622   0.00000  Uiso   1.00
C382   C     0.36468   0.94739   0.36646   0.00000  Uiso   1.00
C383   C     0.37723   0.91192   0.36194   0.00000  Uiso   1.00
C384   C     0.38936   0.89430   0.49698   0.00000  Uiso   1.00
C385   C     0.39963   0.86214   0.46713   0.00000  Uiso   1.00
C386   C     0.38499   0.96625   0.23792   0.00000  Uiso   1.00
C387   C     0.40365   0.99433   0.26868   0.00000  Uiso   1.00
C388   C     0.42045   0.00791   0.13443   0.00000  Uiso   1.00
C389   C     0.32953   0.94634   0.29866   0.00000  Uiso   1.00
C390   C     0.30157   0.95768   0.38047   0.00000  Uiso   1.00
C391   C     0.27168   0.95452   0.29732   0.00000  Uiso   1.00
H392   H     0.35992   0.91069   0.94937   0.00000  Uiso   1.00
H393   H     0.38426   0.85493   0.04943   0.00000  Uiso   1.00
H394   H     0.39854   0.95494   0.82117   0.00000  Uiso   1.00
H395   H     0.29647   0.91830   0.93294   0.00000  Uiso   1.00
H396   H     0.41205   0.79929   0.23056   0.00000  Uiso   1.00
H397   H     0.44215   0.01018   0.74925   0.00000  Uiso   1.00
H398   H     0.22692   0.93292   0.98493   0.00000  Uiso   1.00
H399   H     0.36609   0.95830   0.49042   0.00000  Uiso   1.00
H400   H     0.39077   0.90515   0.62018   0.00000  Uiso   1.00
H401   H     0.40505   0.00517   0.39191   0.00000  Uiso   1.00
H402   H     0.30298   0.96852   0.50368   0.00000  Uiso   1.00
H403   H     0.41734   0.84005   0.69380   0.00000  Uiso   1.00
H404   H     0.44744   0.05094   0.21248   0.00000  Uiso   1.00
H405   H     0.23221   0.97368   0.44817   0.00000  Uiso   1.00
O406   O     0.43082   0.78385   0.53777   0.00000  Uiso   1.00
O407   O     0.47031   0.06053   0.90629   0.00000  Uiso   1.00
O408   O     0.18793   0.95917   0.21550   0.00000  Uiso   1.00
N409   N     0.40990   0.81618   0.32179   0.00000  Uiso   1.00
N410   N     0.43805   0.01334   0.87179   0.00000  Uiso   1.00
N411   N     0.23683   0.94112   0.09211   0.00000  Uiso   1.00
N412   N     0.41274   0.83811   0.57105   0.00000  Uiso   1.00
N413   N     0.44089   0.03527   0.12106   0.00000  Uiso   1.00
N414   N     0.23967   0.96305   0.34138   0.00000  Uiso   1.00
C415   C     0.86133   0.42160   0.57333   0.00000  Uiso   1.00
C416   C     0.87541   0.39790   0.70273   0.00000  Uiso   1.00
C417   C     0.88566   0.36576   0.67267   0.00000  Uiso   1.00
C418   C     0.89781   0.34811   0.80762   0.00000  Uiso   1.00
C419   C     0.91941   0.30919   0.98430   0.00000  Uiso   1.00
C420   C     0.88317   0.45224   0.57871   0.00000  Uiso   1.00
C421   C     0.89995   0.46579   0.44437   0.00000  Uiso   1.00
C422   C     0.91863   0.49388   0.47493   0.00000  Uiso   1.00
C423   C     0.95226   0.53933   0.45904   0.00000  Uiso   1.00
C424   C     0.82772   0.43233   0.63944   0.00000  Uiso   1.00
C425   C     0.79787   0.42915   0.55614   0.00000  Uiso   1.00
C426   C     0.76986   0.44048   0.63782   0.00000  Uiso   1.00
C427   C     0.71738   0.45502   0.71622   0.00000  Uiso   1.00
C428   C     0.86468   0.44739   0.86646   0.00000  Uiso   1.00
C429   C     0.87723   0.41192   0.86194   0.00000  Uiso   1.00
C430   C     0.88936   0.39430   0.99698   0.00000  Uiso   1.00
C431   C     0.89963   0.36214   0.96713   0.00000  Uiso   1.00
C432   C     0.88499   0.46625   0.73792   0.00000  Uiso   1.00
C433   C     0.90365   0.49433   0.76868   0.00000  Uiso   1.00
C434   C     0.92045   0.50791   0.63443   0.00000  Uiso   1.00
C435   C     0.82953   0.44634   0.79866   0.00000  Uiso   1.00
C436   C     0.80157   0.45768   0.88047   0.00000  Uiso   1.00
C437   C     0.77168   0.45452   0.79732   0.00000  Uiso   1.00
H438   H     0.85992   0.41069   0.44937   0.00000  Uiso   1.00
H439   H     0.88426   0.35493   0.54943   0.00000  Uiso   1.00
H440   H     0.89854   0.45494   0.32117   0.00000  Uiso   1.00
H441   H     0.79647   0.41830   0.43294   0.00000  Uiso   1.00
H442   H     0.91205   0.29929   0.73056   0.00000  Uiso   1.00
H443   H     0.94215   0.51018   0.24925   0.00000  Uiso   1.00
H444   H     0.72692   0.43292   0.48493   0.00000  Uiso   1.00
H445   H     0.86609   0.45830   0.99042   0.00000  Uiso   1.00
H446   H     0.89077   0.40515   0.12018   0.00000  Uiso   1.00
H447   H     0.90505   0.50517   0.89191   0.00000  Uiso   1.00
H448   H     0.80298   0.46852   0.00368   0.00000  Uiso   1.00
H449   H     0.91734   0.34005   0.19380   0.00000  Uiso   1.00
H450   H     0.94744   0.55094   0.71248   0.00000  Uiso   1.00
H451   H     0.73221   0.47368   0.94817   0.00000  Uiso   1.00
O452   O     0.93082   0.28385   0.03777   0.00000  Uiso   1.00
O453   O     0.97031   0.56053   0.40629   0.00000  Uiso   1.00
O454   O     0.68793   0.45917   0.71550   0.00000  Uiso   1.00
N455   N     0.90990   0.31618   0.82179   0.00000  Uiso   1.00
N456   N     0.93805   0.51334   0.37179   0.00000  Uiso   1.00
N457   N     0.73683   0.44112   0.59211   0.00000  Uiso   1.00
N458   N     0.91274   0.33811   0.07105   0.00000  Uiso   1.00
N459   N     0.94089   0.53527   0.62106   0.00000  Uiso   1.00
N460   N     0.73967   0.46305   0.84138   0.00000  Uiso   1.00
C461   C     0.13867   0.57840   0.57333   0.00000  Uiso   1.00
C462   C     0.12459   0.60210   0.70273   0.00000  Uiso   1.00
C463   C     0.11434   0.63424   0.67267   0.00000  Uiso   1.00
C464   C     0.10219   0.65189   0.80762   0.00000  Uiso   1.00
C465   C     0.08059   0.69081   0.98430   0.00000  Uiso   1.00
C466   C     0.11683   0.54776   0.57871   0.00000  Uiso   1.00
C467   C     0.10005   0.53421   0.44437   0.00000  Uiso   1.00
C468   C     0.08137   0.50612   0.47493   0.00000  Uiso   1.00
C469   C     0.04774   0.46067   0.45904   0.00000  Uiso   1.00
C470   C     0.17228   0.56767   0.63944   0.00000  Uiso   1.00
C471   C     0.20213   0.57085   0.55614   0.00000  Uiso   1.00
C472   C     0.23014   0.55952   0.63782   0.00000  Uiso   1.00
C473   C     0.28262   0.54498   0.71622   0.00000  Uiso   1.00
C474   C     0.13532   0.55261   0.86646   0.00000  Uiso   1.00
C475   C     0.12277   0.58808   0.86194   0.00000  Uiso   1.00
C476   C     0.11064   0.60570   0.99698   0.00000  Uiso   1.00
C477   C     0.10037   0.63786   0.96713   0.00000  Uiso   1.00
C478   C     0.11501   0.53375   0.73792   0.00000  Uiso   1.00
C479   C     0.09635   0.50567   0.76868   0.00000  Uiso   1.00
C480   C     0.07955   0.49209   0.63443   0.00000  Uiso   1.00
C481   C     0.17047   0.55366   0.79866   0.00000  Uiso   1.00
C482   C     0.19843   0.54232   0.88047   0.00000  Uiso   1.00
C483   C     0.22832   0.54548   0.79732   0.00000  Uiso   1.00
H484   H     0.14008   0.58931   0.44937   0.00000  Uiso   1.00
H485   H     0.11574   0.64507   0.54943   0.00000  Uiso   1.00
H486   H     0.10146   0.54506   0.32117   0.00000  Uiso   1.00
H487   H     0.20353   0.58170   0.43294   0.00000  Uiso   1.00
H488   H     0.08795   0.70071   0.73056   0.00000  Uiso   1.00
H489   H     0.05785   0.48982   0.24925   0.00000  Uiso   1.00
H490   H     0.27308   0.56708   0.48493   0.00000  Uiso   1.00
H491   H     0.13391   0.54170   0.99042   0.00000  Uiso   1.00
H492   H     0.10923   0.59485   0.12018   0.00000  Uiso   1.00
H493   H     0.09495   0.49483   0.89191   0.00000  Uiso   1.00
H494   H     0.19702   0.53148   0.00368   0.00000  Uiso   1.00
H495   H     0.08266   0.65995   0.19380   0.00000  Uiso   1.00
H496   H     0.05256   0.44906   0.71248   0.00000  Uiso   1.00
H497   H     0.26779   0.52632   0.94817   0.00000  Uiso   1.00
O498   O     0.06918   0.71615   0.03777   0.00000  Uiso   1.00
O499   O     0.02969   0.43947   0.40629   0.00000  Uiso   1.00
O500   O     0.31207   0.54083   0.71550   0.00000  Uiso   1.00
N501   N     0.09010   0.68382   0.82179   0.00000  Uiso   1.00
N502   N     0.06195   0.48666   0.37179   0.00000  Uiso   1.00
N503   N     0.26317   0.55888   0.59211   0.00000  Uiso   1.00
N504   N     0.08726   0.66189   0.07105   0.00000  Uiso   1.00
N505   N     0.05911   0.46473   0.62106   0.00000  Uiso   1.00
N506   N     0.26033   0.53695   0.84138   0.00000  Uiso   1.00
C507   C     0.63867   0.07840   0.07333   0.00000  Uiso   1.00
C508   C     0.62459   0.10210   0.20273   0.00000  Uiso   1.00
C509   C     0.61434   0.13424   0.17267   0.00000  Uiso   1.00
C510   C     0.60219   0.15189   0.30762   0.00000  Uiso   1.00
C511   C     0.58059   0.19081   0.48430   0.00000  Uiso   1.00
C512   C     0.61683   0.04776   0.07871   0.00000  Uiso   1.00
C513   C     0.60005   0.03421   0.94437   0.00000  Uiso   1.00
C514   C     0.58137   0.00612   0.97493   0.00000  Uiso   1.00
C515   C     0.54774   0.96067   0.95904   0.00000  Uiso   1.00
C516   C     0.67228   0.06767   0.13944   0.00000  Uiso   1.00
C517   C     0.70213   0.07085   0.05614   0.00000  Uiso   1.00
C518   C     0.73014   0.05952   0.13782   0.00000  Uiso   1.00
C519   C     0.78262   0.04498   0.21622   0.00000  Uiso   1.00
C520   C     0.63532   0.05261   0.36646   0.00000  Uiso   1.00
C521   C     0.62277   0.08808   0.36194   0.00000  Uiso   1.00
C522   C     0.61064   0.10570   0.49698   0.00000  Uiso   1.00
C523   C     0.60037   0.13786   0.46713   0.00000  Uiso   1.00
C524   C     0.61501   0.03375   0.23792   0.00000  Uiso   1.00
C525   C     0.59635   0.00567   0.26868   0.00000  Uiso   1.00
C526   C     0.57955   0.99209   0.13443   0.00000  Uiso   1.00
C527   C     0.67047   0.05366   0.29866   0.00000  Uiso   1.00
C528   C     0.69843   0.04232   0.38047   0.00000  Uiso   1.00
C529   C     0.72832   0.04548   0.29732   0.00000  Uiso   1.00
H530   H     0.64008   0.08931   0.94937   0.00000  Uiso   1.00
H531   H     0.61574   0.14507   0.04943   0.00000  Uiso   1.00
H532   H     0.60146   0.04506   0.82117   0.00000  Uiso   1.00
H533   H     0.70353   0.08170   0.93294   0.00000  Uiso   1.00
H534   H     0.58795   0.20071   0.23056   0.00000  Uiso   1.00
H535   H     0.55785   0.98982   0.74925   0.00000  Uiso   1.00
H536   H     0.77308   0.06708   0.98493   0.00000  Uiso   1.00
H537   H     0.63391   0.04170   0.49042   0.00000  Uiso   1.00
H538   H     0.60923   0.09485   0.62018   0.00000  Uiso   1.00
H539   H     0.59495   0.99483   0.39191   0.00000  Uiso   1.00
H540   H     0.69702   0.03148   0.50368   0.00000  Uiso   1.00
H541   H     0.58266   0.15995   0.69380   0.00000  Uiso   1.00
H542   H     0.55256   0.94906   0.21248   0.00000  Uiso   1.00
H543   H     0.76779   0.02632   0.44817   0.00000  Uiso   1.00
O544   O     0.56918   0.21615   0.53777   0.00000  Uiso   1.00
O545   O     0.52969   0.93947   0.90629   0.00000  Uiso   1.00
O546   O     0.81207   0.04083   0.21550   0.00000  Uiso   1.00
N547   N     0.59010   0.18382   0.32179   0.00000  Uiso   1.00
N548   N     0.56195   0.98666   0.87179   0.00000  Uiso   1.00
N549   N     0.76317   0.05888   0.09211   0.00000  Uiso   1.00
N550   N     0.58726   0.16189   0.57105   0.00000  Uiso   1.00
N551   N     0.55911   0.96473   0.12106   0.00000  Uiso   1.00
N552   N     0.76033   0.03695   0.34138   0.00000  Uiso   1.00
C553   C     0.57840   0.36133   0.82333   0.00000  Uiso   1.00
C554   C     0.60210   0.37541   0.95273   0.00000  Uiso   1.00
C555   C     0.63424   0.38566   0.92267   0.00000  Uiso   1.00
C556   C     0.65189   0.39781   0.05762   0.00000  Uiso   1.00
C557   C     0.69081   0.41941   0.23430   0.00000  Uiso   1.00
C558   C     0.54776   0.38317   0.82871   0.00000  Uiso   1.00
C559   C     0.53421   0.39995   0.69437   0.00000  Uiso   1.00
C560   C     0.50612   0.41863   0.72493   0.00000  Uiso   1.00
C561   C     0.46067   0.45226   0.70904   0.00000  Uiso   1.00
C562   C     0.56767   0.32772   0.88944   0.00000  Uiso   1.00
C563   C     0.57085   0.29787   0.80614   0.00000  Uiso   1.00
C564   C     0.55952   0.26986   0.88782   0.00000  Uiso   1.00
C565   C     0.54498   0.21738   0.96622   0.00000  Uiso   1.00
C566   C     0.55261   0.36468   0.11646   0.00000  Uiso   1.00
C567   C     0.58808   0.37723   0.11194   0.00000  Uiso   1.00
C568   C     0.60570   0.38936   0.24698   0.00000  Uiso   1.00
C569   C     0.63786   0.39963   0.21713   0.00000  Uiso   1.00
C570   C     0.53375   0.38499   0.98792   0.00000  Uiso   1.00
C571   C     0.50567   0.40365   0.01868   0.00000  Uiso   1.00
C572   C     0.49209   0.42045   0.88443   0.00000  Uiso   1.00
C573   C     0.55366   0.32953   0.04866   0.00000  Uiso   1.00
C574   C     0.54232   0.30157   0.13047   0.00000  Uiso   1.00
C575   C     0.54548   0.27168   0.04732   0.00000  Uiso   1.00
H576   H     0.58931   0.35992   0.69937   0.00000  Uiso   1.00
H577   H     0.64507   0.38426   0.79943   0.00000  Uiso   1.00
H578   H     0.54506   0.39854   0.57117   0.00000  Uiso   1.00
H579   H     0.58170   0.29647   0.68294   0.00000  Uiso   1.00
H580   H     0.70071   0.41205   0.98056   0.00000  Uiso   1.00
H581   H     0.48982   0.44215   0.49925   0.00000  Uiso   1.00
H582   H     0.56708   0.22692   0.73493   0.00000  Uiso   1.00
H583   H     0.54170   0.36609   0.24042   0.00000  Uiso   1.00
H584   H     0.59485   0.39077   0.37018   0.00000  Uiso   1.00
H585   H     0.49483   0.40505   0.14191   0.00000  Uiso   1.00
H586   H     0.53148   0.30298   0.25368   0.00000  Uiso   1.00
H587   H     0.65995   0.41734   0.44380   0.00000  Uiso   1.00
H588   H     0.44906   0.44744   0.96248   0.00000  Uiso   1.00
H589   H     0.52632   0.23221   0.19817   0.00000  Uiso   1.00
O590   O     0.71615   0.43082   0.28777   0.00000  Uiso   1.00
O591   O     0.43947   0.47031   0.65629   0.00000  Uiso   1.00
O592   O     0.54083   0.18793   0.96550   0.00000  Uiso   1.00
N593   N     0.68382   0.40990   0.07179   0.00000  Uiso   1.00
N594   N     0.48666   0.43805   0.62179   0.00000  Uiso   1.00
N595   N     0.55888   0.23683   0.84211   0.00000  Uiso   1.00
N596   N     0.66189   0.41274   0.32105   0.00000  Uiso   1.00
N597   N     0.46473   0.44089   0.87106   0.00000  Uiso   1.00
N598   N     0.53695   0.23967   0.09138   0.00000  Uiso   1.00
C599   C     0.07840   0.86133   0.32333   0.00000  Uiso   1.00
C600   C     0.10210   0.87541   0.45273   0.00000  Uiso   1.00
C601   C     0.13424   0.88566   0.42267   0.00000  Uiso   1.00
C602   C     0.15189   0.89781   0.55762   0.00000  Uiso   1.00
C603   C     0.19081   0.91941   0.73430   0.00000  Uiso   1.00
C604   C     0.04776   0.88317   0.32871   0.00000  Uiso   1.00
C605   C     0.03421   0.89995   0.19437   0.00000  Uiso   1.00
C606   C     0.00612   0.91863   0.22493   0.00000  Uiso   1.00
C607   C     0.96067   0.95226   0.20904   0.00000  Uiso   1.00
C608   C     0.06767   0.82772   0.38944   0.00000  Uiso   1.00
C609   C     0.07085   0.79787   0.30614   0.00000  Uiso   1.00
C610   C     0.05952   0.76986   0.38782   0.00000  Uiso   1.00
C611   C     0.04498   0.71738   0.46622   0.00000  Uiso   1.00
C612   C     0.05261   0.86468   0.61646   0.00000  Uiso   1.00
C613   C     0.08808   0.87723   0.61194   0.00000  Uiso   1.00
C614   C     0.10570   0.88936   0.74698   0.00000  Uiso   1.00
C615   C     0.13786   0.89963   0.71713   0.00000  Uiso   1.00
C616   C     0.03375   0.88499   0.48792   0.00000  Uiso   1.00
C617   C     0.00567   0.90365   0.51868   0.00000  Uiso   1.00
C618   C     0.99209   0.92045   0.38443   0.00000  Uiso   1.00
C619   C     0.05366   0.82953   0.54866   0.00000  Uiso   1.00
C620   C     0.04232   0.80157   0.63047   0.00000  Uiso   1.00
C621   C     0.04548   0.77168   0.54732   0.00000  Uiso   1.00
H622   H     0.08931   0.85992   0.19937   0.00000  Uiso   1.00
H623   H     0.14507   0.88426   0.29943   0.00000  Uiso   1.00
H624   H     0.04506   0.89854   0.07117   0.00000  Uiso   1.00
H625   H     0.08170   0.79647   0.18294   0.00000  Uiso   1.00
H626   H     0.20071   0.91205   0.48056   0.00000  Uiso   1.00
H627   H     0.98982   0.94215   0.99925   0.00000  Uiso   1.00
H628   H     0.06708   0.72692   0.23493   0.00000  Uiso   1.00
H629   H     0.04170   0.86609   0.74042   0.00000  Uiso   1.00
H630   H     0.09485   0.89077   0.87018   0.00000  Uiso   1.00
H631   H     0.99483   0.90505   0.64191   0.00000  Uiso   1.00
H632   H     0.03148   0.80298   0.75368   0.00000  Uiso   1.00
H633   H     0.15995   0.91734   0.94380   0.00000  Uiso   1.00
H634   H     0.94906   0.94744   0.46248   0.00000  Uiso   1.00
H635   H     0.02632   0.73221   0.69817   0.00000  Uiso   1.00
O636   O     0.21615   0.93082   0.78777   0.00000  Uiso   1.00
O637   O     0.93947   0.97031   0.15629   0.00000  Uiso   1.00
O638   O     0.04083   0.68793   0.46550   0.00000  Uiso   1.00
N639   N     0.18382   0.90990   0.57179   0.00000  Uiso   1.00
N640   N     0.98666   0.93805   0.12179   0.00000  Uiso   1.00
N641   N     0.05888   0.73683   0.34211   0.00000  Uiso   1.00
N642   N     0.16189   0.91274   0.82105   0.00000  Uiso   1.00
N643   N     0.96473   0.94089   0.37106   0.00000  Uiso   1.00
N644   N     0.03695   0.73967   0.59138   0.00000  Uiso   1.00
C645   C     0.92160   0.13867   0.32333   0.00000  Uiso   1.00
C646   C     0.89790   0.12459   0.45273   0.00000  Uiso   1.00
C647   C     0.86576   0.11434   0.42267   0.00000  Uiso   1.00
C648   C     0.84811   0.10219   0.55762   0.00000  Uiso   1.00
C649   C     0.80919   0.08059   0.73430   0.00000  Uiso   1.00
C650   C     0.95224   0.11683   0.32871   0.00000  Uiso   1.00
C651   C     0.96579   0.10005   0.19437   0.00000  Uiso   1.00
C652   C     0.99388   0.08137   0.22493   0.00000  Uiso   1.00
C653   C     0.03933   0.04774   0.20904   0.00000  Uiso   1.00
C654   C     0.93233   0.17228   0.38944   0.00000  Uiso   1.00
C655   C     0.92915   0.20213   0.30614   0.00000  Uiso   1.00
C656   C     0.94048   0.23014   0.38782   0.00000  Uiso   1.00
C657   C     0.95502   0.28262   0.46622   0.00000  Uiso   1.00
C658   C     0.94739   0.13532   0.61646   0.00000  Uiso   1.00
C659   C     0.91192   0.12277   0.61194   0.00000  Uiso   1.00
C660   C     0.89430   0.11064   0.74698   0.00000  Uiso   1.00
C661   C     0.86214   0.10037   0.71713   0.00000  Uiso   1.00
C662   C     0.96625   0.11501   0.48792   0.00000  Uiso   1.00
C663   C     0.99433   0.09635   0.51868   0.00000  Uiso   1.00
C664   C     0.00791   0.07955   0.38443   0.00000  Uiso   1.00
C665   C     0.94634   0.17047   0.54866   0.00000  Uiso   1.00
C666   C     0.95768   0.19843   0.63047   0.00000  Uiso   1.00
C667   C     0.95452   0.22832   0.54732   0.00000  Uiso   1.00
H668   H     0.91069   0.14008   0.19937   0.00000  Uiso   1.00
H669   H     0.85493   0.11574   0.29943   0.00000  Uiso   1.00
H670   H     0.95494   0.10146   0.07117   0.00000  Uiso   1.00
H671   H     0.91830   0.20353   0.18294   0.00000  Uiso   1.00
H672   H     0.79929   0.08795   0.48056   0.00000  Uiso   1.00
H673   H     0.01018   0.05785   0.99925   0.00000  Uiso   1.00
H674   H     0.93292   0.27308   0.23493   0.00000  Uiso   1.00
H675   H     0.95830   0.13391   0.74042   0.00000  Uiso   1.00
H676   H     0.90515   0.10923   0.87018   0.00000  Uiso   1.00
H677   H     0.00517   0.09495   0.64191   0.00000  Uiso   1.00
H678   H     0.96852   0.19702   0.75368   0.00000  Uiso   1.00
H679   H     0.84005   0.08266   0.94380   0.00000  Uiso   1.00
H680   H     0.05094   0.05256   0.46248   0.00000  Uiso   1.00
H681   H     0.97368   0.26779   0.69817   0.00000  Uiso   1.00
O682   O     0.78385   0.06918   0.78777   0.00000  Uiso   1.00
O683   O     0.06053   0.02969   0.15629   0.00000  Uiso   1.00
O684   O     0.95917   0.31207   0.46550   0.00000  Uiso   1.00
N685   N     0.81618   0.09010   0.57179   0.00000  Uiso   1.00
N686   N     0.01334   0.06195   0.12179   0.00000  Uiso   1.00
N687   N     0.94112   0.26317   0.34211   0.00000  Uiso   1.00
N688   N     0.83811   0.08726   0.82105   0.00000  Uiso   1.00
N689   N     0.03527   0.05911   0.37106   0.00000  Uiso   1.00
N690   N     0.96305   0.26033   0.59138   0.00000  Uiso   1.00
C691   C     0.42160   0.63867   0.82333   0.00000  Uiso   1.00
C692   C     0.39790   0.62459   0.95273   0.00000  Uiso   1.00
C693   C     0.36576   0.61434   0.92267   0.00000  Uiso   1.00
C694   C     0.34811   0.60219   0.05762   0.00000  Uiso   1.00
C695   C     0.30919   0.58059   0.23430   0.00000  Uiso   1.00
C696   C     0.45224   0.61683   0.82871   0.00000  Uiso   1.00
C697   C     0.46579   0.60005   0.69437   0.00000  Uiso   1.00
C698   C     0.49388   0.58137   0.72493   0.00000  Uiso   1.00
C699   C     0.53933   0.54774   0.70904   0.00000  Uiso   1.00
C700   C     0.43233   0.67228   0.88944   0.00000  Uiso   1.00
C701   C     0.42915   0.70213   0.80614   0.00000  Uiso   1.00
C702   C     0.44048   0.73014   0.88782   0.00000  Uiso   1.00
C703   C     0.45502   0.78262   0.96622   0.00000  Uiso   1.00
C704   C     0.44739   0.63532   0.11646   0.00000  Uiso   1.00
C705   C     0.41192   0.62277   0.11194   0.00000  Uiso   1.00
C706   C     0.39430   0.61064   0.24698   0.00000  Uiso   1.00
C707   C     0.36214   0.60037   0.21713   0.00000  Uiso   1.00
C708   C     0.46625   0.61501   0.98792   0.00000  Uiso   1.00
C709   C     0.49433   0.59635   0.01868   0.00000  Uiso   1.00
C710   C     0.50791   0.57955   0.88443   0.00000  Uiso   1.00
C711   C     0.44634   0.67047   0.04866   0.00000  Uiso   1.00
C712   C     0.45768   0.69843   0.13047   0.00000  Uiso   1.00
C713   C     0.45452   0.72832   0.04732   0.00000  Uiso   1.00
H714   H     0.41069   0.64008   0.69937   0.00000  Uiso   1.00
H715   H     0.35493   0.61574   0.79943   0.00000  Uiso   1.00
H716   H     0.45494   0.60146   0.57117   0.00000  Uiso   1.00
H717   H     0.41830   0.70353   0.68294   0.00000  Uiso   1.00
H718   H     0.29929   0.58795   0.98056   0.00000  Uiso   1.00
H719   H     0.51018   0.55785   0.49925   0.00000  Uiso   1.00
H720   H     0.43292   0.77308   0.73493   0.00000  Uiso   1.00
H721   H     0.45830   0.63391   0.24042   0.00000  Uiso   1.00
H722   H     0.40515   0.60923   0.37018   0.00000  Uiso   1.00
H723   H     0.50517   0.59495   0.14191   0.00000  Uiso   1.00
H724   H     0.46852   0.69702   0.25368   0.00000  Uiso   1.00
H725   H     0.34005   0.58266   0.44380   0.00000  Uiso   1.00
H726   H     0.55094   0.55256   0.96248   0.00000  Uiso   1.00
H727   H     0.47368   0.76779   0.19817   0.00000  Uiso   1.00
O728   O     0.28385   0.56918   0.28777   0.00000  Uiso   1.00
O729   O     0.56053   0.52969   0.65629   0.00000  Uiso   1.00
O730   O     0.45917   0.81207   0.96550   0.00000  Uiso   1.00
N731   N     0.31618   0.59010   0.07179   0.00000  Uiso   1.00
N732   N     0.51334   0.56195   0.62179   0.00000  Uiso   1.00
N733   N     0.44112   0.76317   0.84211   0.00000  Uiso   1.00
N734   N     0.33811   0.58726   0.32105   0.00000  Uiso   1.00
N735   N     0.53527   0.55911   0.87106   0.00000  Uiso   1.00
N736   N     0.46305   0.76033   0.09138   0.00000  Uiso   1.00
