data_job_05149
_audit_creation_date              2018-12-19
_audit_creation_method            'Materials Studio'
_symmetry_space_group_name_H-M    'P1'
_symmetry_Int_Tables_number       1
_symmetry_cell_setting            triclinic
loop_
_symmetry_equiv_pos_as_xyz
  x,y,z
_cell_length_a                    53.9898
_cell_length_b                    15.9388
_cell_length_c                    12.3847
_cell_angle_alpha                 90.0000
_cell_angle_beta                  90.0000
_cell_angle_gamma                 90.0000
loop_
_atom_site_label
_atom_site_type_symbol
_atom_site_fract_x
_atom_site_fract_y
_atom_site_fract_z
_atom_site_U_iso_or_equiv
_atom_site_adp_type
_atom_site_occupancy
C1     C     0.69741   0.16752   0.43101   0.00000  Uiso   1.00
C2     C     0.68544   0.25384   0.42110   0.00000  Uiso   1.00
C3     C     0.68576   0.31614   0.49937   0.00000  Uiso   1.00
C4     C     0.67374   0.39073   0.47480   0.00000  Uiso   1.00
C5     C     0.65696   0.52296   0.47455   0.00000  Uiso   1.00
C6     C     0.67676   0.10403   0.41146   0.00000  Uiso   1.00
C7     C     0.66979   0.04037   0.48161   0.00000  Uiso   1.00
C8     C     0.65046   0.98884   0.44892   0.00000  Uiso   1.00
C9     C     0.62021   0.88845   0.43366   0.00000  Uiso   1.00
C10    C     0.71499   0.15954   0.33519   0.00000  Uiso   1.00
C11    C     0.74016   0.14253   0.34122   0.00000  Uiso   1.00
C12    C     0.75301   0.13773   0.24431   0.00000  Uiso   1.00
C13    C     0.78212   0.12353   0.11063   0.00000  Uiso   1.00
C14    C     0.67547   0.18920   0.24820   0.00000  Uiso   1.00
C15    C     0.67352   0.26561   0.32181   0.00000  Uiso   1.00
C16    C     0.66150   0.34013   0.29711   0.00000  Uiso   1.00
C17    C     0.66180   0.40253   0.37533   0.00000  Uiso   1.00
C18    C     0.66484   0.11581   0.31217   0.00000  Uiso   1.00
C19    C     0.64552   0.06436   0.27936   0.00000  Uiso   1.00
C20    C     0.63852   0.00064   0.34945   0.00000  Uiso   1.00
C21    C     0.70307   0.17132   0.23590   0.00000  Uiso   1.00
C22    C     0.71589   0.16653   0.13896   0.00000  Uiso   1.00
C23    C     0.74108   0.14953   0.14484   0.00000  Uiso   1.00
H24    H     0.70668   0.15834   0.50831   0.00000  Uiso   1.00
H25    H     0.69498   0.30700   0.57621   0.00000  Uiso   1.00
H26    H     0.67901   0.03126   0.55844   0.00000  Uiso   1.00
H27    H     0.74937   0.13342   0.41807   0.00000  Uiso   1.00
H28    H     0.67676   0.47699   0.60770   0.00000  Uiso   1.00
H29    H     0.64308   0.89557   0.57024   0.00000  Uiso   1.00
H30    H     0.79145   0.11099   0.27423   0.00000  Uiso   1.00
H31    H     0.66619   0.19837   0.17090   0.00000  Uiso   1.00
H32    H     0.65228   0.34923   0.22027   0.00000  Uiso   1.00
H33    H     0.63630   0.07349   0.20251   0.00000  Uiso   1.00
H34    H     0.70666   0.17565   0.06214   0.00000  Uiso   1.00
H35    H     0.64209   0.51127   0.31882   0.00000  Uiso   1.00
H36    H     0.60842   0.92984   0.28135   0.00000  Uiso   1.00
H37    H     0.75679   0.14527   0.98534   0.00000  Uiso   1.00
O38    O     0.65099   0.59263   0.50184   0.00000  Uiso   1.00
O39    O     0.60682   0.82983   0.45268   0.00000  Uiso   1.00
O40    O     0.80147   0.11246   0.06433   0.00000  Uiso   1.00
N41    N     0.67051   0.46436   0.53293   0.00000  Uiso   1.00
N42    N     0.63903   0.92078   0.49791   0.00000  Uiso   1.00
N43    N     0.77774   0.12215   0.22117   0.00000  Uiso   1.00
N44    N     0.65186   0.48280   0.37748   0.00000  Uiso   1.00
N45    N     0.62037   0.93922   0.34246   0.00000  Uiso   1.00
N46    N     0.75909   0.14060   0.06572   0.00000  Uiso   1.00
C47    C     0.69741   0.66752   0.93101   0.00000  Uiso   1.00
C48    C     0.68544   0.75384   0.92110   0.00000  Uiso   1.00
C49    C     0.68576   0.81614   0.99937   0.00000  Uiso   1.00
C50    C     0.67374   0.89073   0.97480   0.00000  Uiso   1.00
C51    C     0.65696   0.02296   0.97455   0.00000  Uiso   1.00
C52    C     0.67676   0.60403   0.91146   0.00000  Uiso   1.00
C53    C     0.66979   0.54037   0.98161   0.00000  Uiso   1.00
C54    C     0.65046   0.48884   0.94892   0.00000  Uiso   1.00
C55    C     0.62021   0.38845   0.93366   0.00000  Uiso   1.00
C56    C     0.71499   0.65954   0.83519   0.00000  Uiso   1.00
C57    C     0.74016   0.64253   0.84122   0.00000  Uiso   1.00
C58    C     0.75301   0.63773   0.74431   0.00000  Uiso   1.00
C59    C     0.78212   0.62353   0.61063   0.00000  Uiso   1.00
C60    C     0.67547   0.68920   0.74820   0.00000  Uiso   1.00
C61    C     0.67352   0.76561   0.82181   0.00000  Uiso   1.00
C62    C     0.66150   0.84013   0.79711   0.00000  Uiso   1.00
C63    C     0.66180   0.90253   0.87533   0.00000  Uiso   1.00
C64    C     0.66484   0.61581   0.81217   0.00000  Uiso   1.00
C65    C     0.64552   0.56436   0.77936   0.00000  Uiso   1.00
C66    C     0.63852   0.50064   0.84945   0.00000  Uiso   1.00
C67    C     0.70307   0.67132   0.73590   0.00000  Uiso   1.00
C68    C     0.71589   0.66653   0.63896   0.00000  Uiso   1.00
C69    C     0.74108   0.64953   0.64484   0.00000  Uiso   1.00
H70    H     0.70668   0.65834   0.00831   0.00000  Uiso   1.00
H71    H     0.69498   0.80700   0.07621   0.00000  Uiso   1.00
H72    H     0.67901   0.53126   0.05844   0.00000  Uiso   1.00
H73    H     0.74937   0.63342   0.91807   0.00000  Uiso   1.00
H74    H     0.67676   0.97699   0.10770   0.00000  Uiso   1.00
H75    H     0.64308   0.39557   0.07024   0.00000  Uiso   1.00
H76    H     0.79145   0.61099   0.77423   0.00000  Uiso   1.00
H77    H     0.66619   0.69837   0.67090   0.00000  Uiso   1.00
H78    H     0.65228   0.84923   0.72027   0.00000  Uiso   1.00
H79    H     0.63630   0.57349   0.70251   0.00000  Uiso   1.00
H80    H     0.70666   0.67565   0.56214   0.00000  Uiso   1.00
H81    H     0.64209   0.01127   0.81882   0.00000  Uiso   1.00
H82    H     0.60842   0.42984   0.78135   0.00000  Uiso   1.00
H83    H     0.75679   0.64527   0.48534   0.00000  Uiso   1.00
O84    O     0.65099   0.09263   0.00184   0.00000  Uiso   1.00
O85    O     0.60682   0.32983   0.95268   0.00000  Uiso   1.00
O86    O     0.80147   0.61246   0.56433   0.00000  Uiso   1.00
N87    N     0.67051   0.96436   0.03293   0.00000  Uiso   1.00
N88    N     0.63903   0.42078   0.99791   0.00000  Uiso   1.00
N89    N     0.77774   0.62215   0.72117   0.00000  Uiso   1.00
N90    N     0.65186   0.98280   0.87748   0.00000  Uiso   1.00
N91    N     0.62037   0.43922   0.84246   0.00000  Uiso   1.00
N92    N     0.75909   0.64060   0.56572   0.00000  Uiso   1.00
C93    C     0.19741   0.16752   0.93101   0.00000  Uiso   1.00
C94    C     0.18544   0.25384   0.92110   0.00000  Uiso   1.00
C95    C     0.18576   0.31614   0.99937   0.00000  Uiso   1.00
C96    C     0.17374   0.39073   0.97480   0.00000  Uiso   1.00
C97    C     0.15696   0.52296   0.97455   0.00000  Uiso   1.00
C98    C     0.17676   0.10403   0.91146   0.00000  Uiso   1.00
C99    C     0.16979   0.04037   0.98161   0.00000  Uiso   1.00
C100   C     0.15046   0.98884   0.94892   0.00000  Uiso   1.00
C101   C     0.12021   0.88845   0.93366   0.00000  Uiso   1.00
C102   C     0.21499   0.15954   0.83519   0.00000  Uiso   1.00
C103   C     0.24016   0.14253   0.84122   0.00000  Uiso   1.00
C104   C     0.25301   0.13773   0.74431   0.00000  Uiso   1.00
C105   C     0.28212   0.12353   0.61063   0.00000  Uiso   1.00
C106   C     0.17547   0.18920   0.74820   0.00000  Uiso   1.00
C107   C     0.17352   0.26561   0.82181   0.00000  Uiso   1.00
C108   C     0.16150   0.34013   0.79711   0.00000  Uiso   1.00
C109   C     0.16180   0.40253   0.87533   0.00000  Uiso   1.00
C110   C     0.16484   0.11581   0.81217   0.00000  Uiso   1.00
C111   C     0.14552   0.06436   0.77936   0.00000  Uiso   1.00
C112   C     0.13852   0.00064   0.84945   0.00000  Uiso   1.00
C113   C     0.20307   0.17132   0.73590   0.00000  Uiso   1.00
C114   C     0.21589   0.16653   0.63896   0.00000  Uiso   1.00
C115   C     0.24108   0.14953   0.64484   0.00000  Uiso   1.00
H116   H     0.20668   0.15834   0.00831   0.00000  Uiso   1.00
H117   H     0.19498   0.30700   0.07621   0.00000  Uiso   1.00
H118   H     0.17901   0.03126   0.05844   0.00000  Uiso   1.00
H119   H     0.24937   0.13342   0.91807   0.00000  Uiso   1.00
H120   H     0.17676   0.47699   0.10770   0.00000  Uiso   1.00
H121   H     0.14308   0.89557   0.07024   0.00000  Uiso   1.00
H122   H     0.29145   0.11099   0.77423   0.00000  Uiso   1.00
H123   H     0.16619   0.19837   0.67090   0.00000  Uiso   1.00
H124   H     0.15228   0.34923   0.72027   0.00000  Uiso   1.00
H125   H     0.13630   0.07349   0.70251   0.00000  Uiso   1.00
H126   H     0.20666   0.17565   0.56214   0.00000  Uiso   1.00
H127   H     0.14209   0.51127   0.81882   0.00000  Uiso   1.00
H128   H     0.10842   0.92984   0.78135   0.00000  Uiso   1.00
H129   H     0.25679   0.14527   0.48534   0.00000  Uiso   1.00
O130   O     0.15099   0.59263   0.00184   0.00000  Uiso   1.00
O131   O     0.10682   0.82983   0.95268   0.00000  Uiso   1.00
O132   O     0.30147   0.11246   0.56433   0.00000  Uiso   1.00
N133   N     0.17051   0.46436   0.03293   0.00000  Uiso   1.00
N134   N     0.13903   0.92078   0.99791   0.00000  Uiso   1.00
N135   N     0.27774   0.12215   0.72117   0.00000  Uiso   1.00
N136   N     0.15186   0.48280   0.87748   0.00000  Uiso   1.00
N137   N     0.12037   0.93922   0.84246   0.00000  Uiso   1.00
N138   N     0.25909   0.14060   0.56572   0.00000  Uiso   1.00
C139   C     0.19741   0.66752   0.43101   0.00000  Uiso   1.00
C140   C     0.18544   0.75384   0.42110   0.00000  Uiso   1.00
C141   C     0.18576   0.81614   0.49937   0.00000  Uiso   1.00
C142   C     0.17374   0.89073   0.47480   0.00000  Uiso   1.00
C143   C     0.15696   0.02296   0.47455   0.00000  Uiso   1.00
C144   C     0.17676   0.60403   0.41146   0.00000  Uiso   1.00
C145   C     0.16979   0.54037   0.48161   0.00000  Uiso   1.00
C146   C     0.15046   0.48884   0.44892   0.00000  Uiso   1.00
C147   C     0.12021   0.38845   0.43366   0.00000  Uiso   1.00
C148   C     0.21499   0.65954   0.33519   0.00000  Uiso   1.00
C149   C     0.24016   0.64253   0.34122   0.00000  Uiso   1.00
C150   C     0.25301   0.63773   0.24431   0.00000  Uiso   1.00
C151   C     0.28212   0.62353   0.11063   0.00000  Uiso   1.00
C152   C     0.17547   0.68920   0.24820   0.00000  Uiso   1.00
C153   C     0.17352   0.76561   0.32181   0.00000  Uiso   1.00
C154   C     0.16150   0.84013   0.29711   0.00000  Uiso   1.00
C155   C     0.16180   0.90253   0.37533   0.00000  Uiso   1.00
C156   C     0.16484   0.61581   0.31217   0.00000  Uiso   1.00
C157   C     0.14552   0.56436   0.27936   0.00000  Uiso   1.00
C158   C     0.13852   0.50064   0.34945   0.00000  Uiso   1.00
C159   C     0.20307   0.67132   0.23590   0.00000  Uiso   1.00
C160   C     0.21589   0.66653   0.13896   0.00000  Uiso   1.00
C161   C     0.24108   0.64953   0.14484   0.00000  Uiso   1.00
H162   H     0.20668   0.65834   0.50831   0.00000  Uiso   1.00
H163   H     0.19498   0.80700   0.57621   0.00000  Uiso   1.00
H164   H     0.17901   0.53126   0.55844   0.00000  Uiso   1.00
H165   H     0.24937   0.63342   0.41807   0.00000  Uiso   1.00
H166   H     0.17676   0.97699   0.60770   0.00000  Uiso   1.00
H167   H     0.14308   0.39557   0.57024   0.00000  Uiso   1.00
H168   H     0.29145   0.61099   0.27423   0.00000  Uiso   1.00
H169   H     0.16619   0.69837   0.17090   0.00000  Uiso   1.00
H170   H     0.15228   0.84923   0.22027   0.00000  Uiso   1.00
H171   H     0.13630   0.57349   0.20251   0.00000  Uiso   1.00
H172   H     0.20666   0.67565   0.06214   0.00000  Uiso   1.00
H173   H     0.14209   0.01127   0.31882   0.00000  Uiso   1.00
H174   H     0.10842   0.42984   0.28135   0.00000  Uiso   1.00
H175   H     0.25679   0.64527   0.98534   0.00000  Uiso   1.00
O176   O     0.15099   0.09263   0.50184   0.00000  Uiso   1.00
O177   O     0.10682   0.32983   0.45268   0.00000  Uiso   1.00
O178   O     0.30147   0.61246   0.06433   0.00000  Uiso   1.00
N179   N     0.17051   0.96436   0.53293   0.00000  Uiso   1.00
N180   N     0.13903   0.42078   0.49791   0.00000  Uiso   1.00
N181   N     0.27774   0.62215   0.22117   0.00000  Uiso   1.00
N182   N     0.15186   0.98280   0.37748   0.00000  Uiso   1.00
N183   N     0.12037   0.43922   0.34246   0.00000  Uiso   1.00
N184   N     0.25909   0.64060   0.06572   0.00000  Uiso   1.00
C185   C     0.30259   0.83248   0.43101   0.00000  Uiso   1.00
C186   C     0.31456   0.74616   0.42110   0.00000  Uiso   1.00
C187   C     0.31424   0.68386   0.49937   0.00000  Uiso   1.00
C188   C     0.32626   0.60927   0.47480   0.00000  Uiso   1.00
C189   C     0.34304   0.47704   0.47455   0.00000  Uiso   1.00
C190   C     0.32324   0.89597   0.41146   0.00000  Uiso   1.00
C191   C     0.33021   0.95963   0.48161   0.00000  Uiso   1.00
C192   C     0.34954   0.01116   0.44892   0.00000  Uiso   1.00
C193   C     0.37979   0.11155   0.43366   0.00000  Uiso   1.00
C194   C     0.28501   0.84046   0.33519   0.00000  Uiso   1.00
C195   C     0.25984   0.85747   0.34122   0.00000  Uiso   1.00
C196   C     0.24699   0.86227   0.24431   0.00000  Uiso   1.00
C197   C     0.21788   0.87647   0.11063   0.00000  Uiso   1.00
C198   C     0.32453   0.81080   0.24820   0.00000  Uiso   1.00
C199   C     0.32648   0.73439   0.32181   0.00000  Uiso   1.00
C200   C     0.33850   0.65987   0.29711   0.00000  Uiso   1.00
C201   C     0.33820   0.59747   0.37533   0.00000  Uiso   1.00
C202   C     0.33516   0.88419   0.31217   0.00000  Uiso   1.00
C203   C     0.35448   0.93564   0.27936   0.00000  Uiso   1.00
C204   C     0.36148   0.99936   0.34945   0.00000  Uiso   1.00
C205   C     0.29693   0.82868   0.23590   0.00000  Uiso   1.00
C206   C     0.28411   0.83347   0.13896   0.00000  Uiso   1.00
C207   C     0.25892   0.85047   0.14484   0.00000  Uiso   1.00
H208   H     0.29332   0.84166   0.50831   0.00000  Uiso   1.00
H209   H     0.30502   0.69300   0.57621   0.00000  Uiso   1.00
H210   H     0.32099   0.96874   0.55844   0.00000  Uiso   1.00
H211   H     0.25063   0.86658   0.41807   0.00000  Uiso   1.00
H212   H     0.32324   0.52301   0.60770   0.00000  Uiso   1.00
H213   H     0.35692   0.10443   0.57024   0.00000  Uiso   1.00
H214   H     0.20855   0.88901   0.27423   0.00000  Uiso   1.00
H215   H     0.33381   0.80163   0.17090   0.00000  Uiso   1.00
H216   H     0.34772   0.65077   0.22027   0.00000  Uiso   1.00
H217   H     0.36370   0.92651   0.20251   0.00000  Uiso   1.00
H218   H     0.29334   0.82435   0.06214   0.00000  Uiso   1.00
H219   H     0.35791   0.48873   0.31882   0.00000  Uiso   1.00
H220   H     0.39158   0.07016   0.28135   0.00000  Uiso   1.00
H221   H     0.24321   0.85473   0.98534   0.00000  Uiso   1.00
O222   O     0.34901   0.40737   0.50184   0.00000  Uiso   1.00
O223   O     0.39318   0.17017   0.45268   0.00000  Uiso   1.00
O224   O     0.19853   0.88754   0.06433   0.00000  Uiso   1.00
N225   N     0.32949   0.53564   0.53293   0.00000  Uiso   1.00
N226   N     0.36097   0.07922   0.49791   0.00000  Uiso   1.00
N227   N     0.22226   0.87785   0.22117   0.00000  Uiso   1.00
N228   N     0.34814   0.51720   0.37748   0.00000  Uiso   1.00
N229   N     0.37963   0.06078   0.34246   0.00000  Uiso   1.00
N230   N     0.24091   0.85940   0.06572   0.00000  Uiso   1.00
C231   C     0.30259   0.33248   0.93101   0.00000  Uiso   1.00
C232   C     0.31456   0.24616   0.92110   0.00000  Uiso   1.00
C233   C     0.31424   0.18386   0.99937   0.00000  Uiso   1.00
C234   C     0.32626   0.10927   0.97480   0.00000  Uiso   1.00
C235   C     0.34304   0.97704   0.97455   0.00000  Uiso   1.00
C236   C     0.32324   0.39597   0.91146   0.00000  Uiso   1.00
C237   C     0.33021   0.45963   0.98161   0.00000  Uiso   1.00
C238   C     0.34954   0.51116   0.94892   0.00000  Uiso   1.00
C239   C     0.37979   0.61155   0.93366   0.00000  Uiso   1.00
C240   C     0.28501   0.34046   0.83519   0.00000  Uiso   1.00
C241   C     0.25984   0.35747   0.84122   0.00000  Uiso   1.00
C242   C     0.24699   0.36227   0.74431   0.00000  Uiso   1.00
C243   C     0.21788   0.37647   0.61063   0.00000  Uiso   1.00
C244   C     0.32453   0.31080   0.74820   0.00000  Uiso   1.00
C245   C     0.32648   0.23439   0.82181   0.00000  Uiso   1.00
C246   C     0.33850   0.15987   0.79711   0.00000  Uiso   1.00
C247   C     0.33820   0.09747   0.87533   0.00000  Uiso   1.00
C248   C     0.33516   0.38419   0.81217   0.00000  Uiso   1.00
C249   C     0.35448   0.43564   0.77936   0.00000  Uiso   1.00
C250   C     0.36148   0.49936   0.84945   0.00000  Uiso   1.00
C251   C     0.29693   0.32868   0.73590   0.00000  Uiso   1.00
C252   C     0.28411   0.33347   0.63896   0.00000  Uiso   1.00
C253   C     0.25892   0.35047   0.64484   0.00000  Uiso   1.00
H254   H     0.29332   0.34166   0.00831   0.00000  Uiso   1.00
H255   H     0.30502   0.19300   0.07621   0.00000  Uiso   1.00
H256   H     0.32099   0.46874   0.05844   0.00000  Uiso   1.00
H257   H     0.25063   0.36658   0.91807   0.00000  Uiso   1.00
H258   H     0.32324   0.02301   0.10770   0.00000  Uiso   1.00
H259   H     0.35692   0.60443   0.07024   0.00000  Uiso   1.00
H260   H     0.20855   0.38901   0.77423   0.00000  Uiso   1.00
H261   H     0.33381   0.30163   0.67090   0.00000  Uiso   1.00
H262   H     0.34772   0.15077   0.72027   0.00000  Uiso   1.00
H263   H     0.36370   0.42651   0.70251   0.00000  Uiso   1.00
H264   H     0.29334   0.32435   0.56214   0.00000  Uiso   1.00
H265   H     0.35791   0.98873   0.81882   0.00000  Uiso   1.00
H266   H     0.39158   0.57016   0.78135   0.00000  Uiso   1.00
H267   H     0.24321   0.35473   0.48534   0.00000  Uiso   1.00
O268   O     0.34901   0.90737   0.00184   0.00000  Uiso   1.00
O269   O     0.39318   0.67017   0.95268   0.00000  Uiso   1.00
O270   O     0.19853   0.38754   0.56433   0.00000  Uiso   1.00
N271   N     0.32949   0.03564   0.03293   0.00000  Uiso   1.00
N272   N     0.36097   0.57922   0.99791   0.00000  Uiso   1.00
N273   N     0.22226   0.37785   0.72117   0.00000  Uiso   1.00
N274   N     0.34814   0.01720   0.87748   0.00000  Uiso   1.00
N275   N     0.37963   0.56078   0.84246   0.00000  Uiso   1.00
N276   N     0.24091   0.35940   0.56572   0.00000  Uiso   1.00
C277   C     0.80259   0.83248   0.93101   0.00000  Uiso   1.00
C278   C     0.81456   0.74616   0.92110   0.00000  Uiso   1.00
C279   C     0.81424   0.68386   0.99937   0.00000  Uiso   1.00
C280   C     0.82626   0.60927   0.97480   0.00000  Uiso   1.00
C281   C     0.84304   0.47704   0.97455   0.00000  Uiso   1.00
C282   C     0.82324   0.89597   0.91146   0.00000  Uiso   1.00
C283   C     0.83021   0.95963   0.98161   0.00000  Uiso   1.00
C284   C     0.84954   0.01116   0.94892   0.00000  Uiso   1.00
C285   C     0.87979   0.11155   0.93366   0.00000  Uiso   1.00
C286   C     0.78501   0.84046   0.83519   0.00000  Uiso   1.00
C287   C     0.75984   0.85747   0.84122   0.00000  Uiso   1.00
C288   C     0.74699   0.86227   0.74431   0.00000  Uiso   1.00
C289   C     0.71788   0.87647   0.61063   0.00000  Uiso   1.00
C290   C     0.82453   0.81080   0.74820   0.00000  Uiso   1.00
C291   C     0.82648   0.73439   0.82181   0.00000  Uiso   1.00
C292   C     0.83850   0.65987   0.79711   0.00000  Uiso   1.00
C293   C     0.83820   0.59747   0.87533   0.00000  Uiso   1.00
C294   C     0.83516   0.88419   0.81217   0.00000  Uiso   1.00
C295   C     0.85448   0.93564   0.77936   0.00000  Uiso   1.00
C296   C     0.86148   0.99936   0.84945   0.00000  Uiso   1.00
C297   C     0.79693   0.82868   0.73590   0.00000  Uiso   1.00
C298   C     0.78411   0.83347   0.63896   0.00000  Uiso   1.00
C299   C     0.75892   0.85047   0.64484   0.00000  Uiso   1.00
H300   H     0.79332   0.84166   0.00831   0.00000  Uiso   1.00
H301   H     0.80502   0.69300   0.07621   0.00000  Uiso   1.00
H302   H     0.82099   0.96874   0.05844   0.00000  Uiso   1.00
H303   H     0.75063   0.86658   0.91807   0.00000  Uiso   1.00
H304   H     0.82324   0.52301   0.10770   0.00000  Uiso   1.00
H305   H     0.85692   0.10443   0.07024   0.00000  Uiso   1.00
H306   H     0.70855   0.88901   0.77423   0.00000  Uiso   1.00
H307   H     0.83381   0.80163   0.67090   0.00000  Uiso   1.00
H308   H     0.84772   0.65077   0.72027   0.00000  Uiso   1.00
H309   H     0.86370   0.92651   0.70251   0.00000  Uiso   1.00
H310   H     0.79334   0.82435   0.56214   0.00000  Uiso   1.00
H311   H     0.85791   0.48873   0.81882   0.00000  Uiso   1.00
H312   H     0.89158   0.07016   0.78135   0.00000  Uiso   1.00
H313   H     0.74321   0.85473   0.48534   0.00000  Uiso   1.00
O314   O     0.84901   0.40737   0.00184   0.00000  Uiso   1.00
O315   O     0.89318   0.17017   0.95268   0.00000  Uiso   1.00
O316   O     0.69853   0.88754   0.56433   0.00000  Uiso   1.00
N317   N     0.82949   0.53564   0.03293   0.00000  Uiso   1.00
N318   N     0.86097   0.07922   0.99791   0.00000  Uiso   1.00
N319   N     0.72226   0.87785   0.72117   0.00000  Uiso   1.00
N320   N     0.84814   0.51720   0.87748   0.00000  Uiso   1.00
N321   N     0.87963   0.06078   0.84246   0.00000  Uiso   1.00
N322   N     0.74091   0.85940   0.56572   0.00000  Uiso   1.00
C323   C     0.80259   0.33248   0.43101   0.00000  Uiso   1.00
C324   C     0.81456   0.24616   0.42110   0.00000  Uiso   1.00
C325   C     0.81424   0.18386   0.49937   0.00000  Uiso   1.00
C326   C     0.82626   0.10927   0.47480   0.00000  Uiso   1.00
C327   C     0.84304   0.97704   0.47455   0.00000  Uiso   1.00
C328   C     0.82324   0.39597   0.41146   0.00000  Uiso   1.00
C329   C     0.83021   0.45963   0.48161   0.00000  Uiso   1.00
C330   C     0.84954   0.51116   0.44892   0.00000  Uiso   1.00
C331   C     0.87979   0.61155   0.43366   0.00000  Uiso   1.00
C332   C     0.78501   0.34046   0.33519   0.00000  Uiso   1.00
C333   C     0.75984   0.35747   0.34122   0.00000  Uiso   1.00
C334   C     0.74699   0.36227   0.24431   0.00000  Uiso   1.00
C335   C     0.71788   0.37647   0.11063   0.00000  Uiso   1.00
C336   C     0.82453   0.31080   0.24820   0.00000  Uiso   1.00
C337   C     0.82648   0.23439   0.32181   0.00000  Uiso   1.00
C338   C     0.83850   0.15987   0.29711   0.00000  Uiso   1.00
C339   C     0.83820   0.09747   0.37533   0.00000  Uiso   1.00
C340   C     0.83516   0.38419   0.31217   0.00000  Uiso   1.00
C341   C     0.85448   0.43564   0.27936   0.00000  Uiso   1.00
C342   C     0.86148   0.49936   0.34945   0.00000  Uiso   1.00
C343   C     0.79693   0.32868   0.23590   0.00000  Uiso   1.00
C344   C     0.78411   0.33347   0.13896   0.00000  Uiso   1.00
C345   C     0.75892   0.35047   0.14484   0.00000  Uiso   1.00
H346   H     0.79332   0.34166   0.50831   0.00000  Uiso   1.00
H347   H     0.80502   0.19300   0.57621   0.00000  Uiso   1.00
H348   H     0.82099   0.46874   0.55844   0.00000  Uiso   1.00
H349   H     0.75063   0.36658   0.41807   0.00000  Uiso   1.00
H350   H     0.82324   0.02301   0.60770   0.00000  Uiso   1.00
H351   H     0.85692   0.60443   0.57024   0.00000  Uiso   1.00
H352   H     0.70855   0.38901   0.27423   0.00000  Uiso   1.00
H353   H     0.83381   0.30163   0.17090   0.00000  Uiso   1.00
H354   H     0.84772   0.15077   0.22027   0.00000  Uiso   1.00
H355   H     0.86370   0.42651   0.20251   0.00000  Uiso   1.00
H356   H     0.79334   0.32435   0.06214   0.00000  Uiso   1.00
H357   H     0.85791   0.98873   0.31882   0.00000  Uiso   1.00
H358   H     0.89158   0.57016   0.28135   0.00000  Uiso   1.00
H359   H     0.74321   0.35473   0.98534   0.00000  Uiso   1.00
O360   O     0.84901   0.90737   0.50184   0.00000  Uiso   1.00
O361   O     0.89318   0.67017   0.45268   0.00000  Uiso   1.00
O362   O     0.69853   0.38754   0.06433   0.00000  Uiso   1.00
N363   N     0.82949   0.03564   0.53293   0.00000  Uiso   1.00
N364   N     0.86097   0.57922   0.49791   0.00000  Uiso   1.00
N365   N     0.72226   0.37785   0.22117   0.00000  Uiso   1.00
N366   N     0.84814   0.01720   0.37748   0.00000  Uiso   1.00
N367   N     0.87963   0.56078   0.34246   0.00000  Uiso   1.00
N368   N     0.74091   0.35940   0.06572   0.00000  Uiso   1.00
C369   C     0.94741   0.08248   0.68101   0.00000  Uiso   1.00
C370   C     0.93544   0.99616   0.67110   0.00000  Uiso   1.00
C371   C     0.93576   0.93386   0.74937   0.00000  Uiso   1.00
C372   C     0.92374   0.85927   0.72480   0.00000  Uiso   1.00
C373   C     0.90696   0.72704   0.72455   0.00000  Uiso   1.00
C374   C     0.92676   0.14597   0.66146   0.00000  Uiso   1.00
C375   C     0.91979   0.20963   0.73161   0.00000  Uiso   1.00
C376   C     0.90046   0.26116   0.69892   0.00000  Uiso   1.00
C377   C     0.87021   0.36155   0.68366   0.00000  Uiso   1.00
C378   C     0.96499   0.09046   0.58519   0.00000  Uiso   1.00
C379   C     0.99016   0.10747   0.59122   0.00000  Uiso   1.00
C380   C     0.00301   0.11227   0.49431   0.00000  Uiso   1.00
C381   C     0.03212   0.12647   0.36063   0.00000  Uiso   1.00
C382   C     0.92547   0.06080   0.49820   0.00000  Uiso   1.00
C383   C     0.92352   0.98439   0.57181   0.00000  Uiso   1.00
C384   C     0.91150   0.90987   0.54711   0.00000  Uiso   1.00
C385   C     0.91180   0.84747   0.62533   0.00000  Uiso   1.00
C386   C     0.91484   0.13419   0.56217   0.00000  Uiso   1.00
C387   C     0.89552   0.18564   0.52936   0.00000  Uiso   1.00
C388   C     0.88852   0.24936   0.59945   0.00000  Uiso   1.00
C389   C     0.95307   0.07868   0.48590   0.00000  Uiso   1.00
C390   C     0.96589   0.08347   0.38896   0.00000  Uiso   1.00
C391   C     0.99108   0.10047   0.39484   0.00000  Uiso   1.00
H392   H     0.95668   0.09166   0.75831   0.00000  Uiso   1.00
H393   H     0.94498   0.94300   0.82621   0.00000  Uiso   1.00
H394   H     0.92901   0.21874   0.80844   0.00000  Uiso   1.00
H395   H     0.99937   0.11658   0.66807   0.00000  Uiso   1.00
H396   H     0.92676   0.77301   0.85770   0.00000  Uiso   1.00
H397   H     0.89308   0.35443   0.82024   0.00000  Uiso   1.00
H398   H     0.04145   0.13901   0.52423   0.00000  Uiso   1.00
H399   H     0.91619   0.05163   0.42090   0.00000  Uiso   1.00
H400   H     0.90228   0.90077   0.47027   0.00000  Uiso   1.00
H401   H     0.88630   0.17651   0.45251   0.00000  Uiso   1.00
H402   H     0.95666   0.07435   0.31214   0.00000  Uiso   1.00
H403   H     0.89209   0.73873   0.56882   0.00000  Uiso   1.00
H404   H     0.85842   0.32016   0.53135   0.00000  Uiso   1.00
H405   H     0.00679   0.10473   0.23534   0.00000  Uiso   1.00
O406   O     0.90099   0.65737   0.75184   0.00000  Uiso   1.00
O407   O     0.85682   0.42017   0.70268   0.00000  Uiso   1.00
O408   O     0.05147   0.13754   0.31433   0.00000  Uiso   1.00
N409   N     0.92051   0.78564   0.78293   0.00000  Uiso   1.00
N410   N     0.88903   0.32922   0.74791   0.00000  Uiso   1.00
N411   N     0.02774   0.12785   0.47117   0.00000  Uiso   1.00
N412   N     0.90186   0.76720   0.62748   0.00000  Uiso   1.00
N413   N     0.87037   0.31078   0.59246   0.00000  Uiso   1.00
N414   N     0.00909   0.10940   0.31572   0.00000  Uiso   1.00
C415   C     0.94741   0.58248   0.18101   0.00000  Uiso   1.00
C416   C     0.93544   0.49616   0.17110   0.00000  Uiso   1.00
C417   C     0.93576   0.43386   0.24937   0.00000  Uiso   1.00
C418   C     0.92374   0.35927   0.22480   0.00000  Uiso   1.00
C419   C     0.90696   0.22704   0.22455   0.00000  Uiso   1.00
C420   C     0.92676   0.64597   0.16146   0.00000  Uiso   1.00
C421   C     0.91979   0.70963   0.23161   0.00000  Uiso   1.00
C422   C     0.90046   0.76116   0.19892   0.00000  Uiso   1.00
C423   C     0.87021   0.86155   0.18366   0.00000  Uiso   1.00
C424   C     0.96499   0.59046   0.08519   0.00000  Uiso   1.00
C425   C     0.99016   0.60747   0.09122   0.00000  Uiso   1.00
C426   C     0.00301   0.61227   0.99431   0.00000  Uiso   1.00
C427   C     0.03212   0.62647   0.86063   0.00000  Uiso   1.00
C428   C     0.92547   0.56080   0.99820   0.00000  Uiso   1.00
C429   C     0.92352   0.48439   0.07181   0.00000  Uiso   1.00
C430   C     0.91150   0.40987   0.04711   0.00000  Uiso   1.00
C431   C     0.91180   0.34747   0.12533   0.00000  Uiso   1.00
C432   C     0.91484   0.63419   0.06217   0.00000  Uiso   1.00
C433   C     0.89552   0.68564   0.02936   0.00000  Uiso   1.00
C434   C     0.88852   0.74936   0.09945   0.00000  Uiso   1.00
C435   C     0.95307   0.57868   0.98590   0.00000  Uiso   1.00
C436   C     0.96589   0.58347   0.88896   0.00000  Uiso   1.00
C437   C     0.99108   0.60047   0.89484   0.00000  Uiso   1.00
H438   H     0.95668   0.59166   0.25831   0.00000  Uiso   1.00
H439   H     0.94498   0.44300   0.32621   0.00000  Uiso   1.00
H440   H     0.92901   0.71874   0.30844   0.00000  Uiso   1.00
H441   H     0.99937   0.61658   0.16807   0.00000  Uiso   1.00
H442   H     0.92676   0.27301   0.35770   0.00000  Uiso   1.00
H443   H     0.89308   0.85443   0.32024   0.00000  Uiso   1.00
H444   H     0.04145   0.63901   0.02423   0.00000  Uiso   1.00
H445   H     0.91619   0.55163   0.92090   0.00000  Uiso   1.00
H446   H     0.90228   0.40077   0.97027   0.00000  Uiso   1.00
H447   H     0.88630   0.67651   0.95251   0.00000  Uiso   1.00
H448   H     0.95666   0.57435   0.81214   0.00000  Uiso   1.00
H449   H     0.89209   0.23873   0.06882   0.00000  Uiso   1.00
H450   H     0.85842   0.82016   0.03135   0.00000  Uiso   1.00
H451   H     0.00679   0.60473   0.73534   0.00000  Uiso   1.00
O452   O     0.90099   0.15737   0.25184   0.00000  Uiso   1.00
O453   O     0.85682   0.92017   0.20268   0.00000  Uiso   1.00
O454   O     0.05147   0.63754   0.81433   0.00000  Uiso   1.00
N455   N     0.92051   0.28564   0.28293   0.00000  Uiso   1.00
N456   N     0.88903   0.82922   0.24791   0.00000  Uiso   1.00
N457   N     0.02774   0.62785   0.97117   0.00000  Uiso   1.00
N458   N     0.90186   0.26720   0.12748   0.00000  Uiso   1.00
N459   N     0.87037   0.81078   0.09246   0.00000  Uiso   1.00
N460   N     0.00909   0.60940   0.81572   0.00000  Uiso   1.00
C461   C     0.44741   0.08248   0.18101   0.00000  Uiso   1.00
C462   C     0.43544   0.99616   0.17110   0.00000  Uiso   1.00
C463   C     0.43576   0.93386   0.24937   0.00000  Uiso   1.00
C464   C     0.42374   0.85927   0.22480   0.00000  Uiso   1.00
C465   C     0.40696   0.72704   0.22455   0.00000  Uiso   1.00
C466   C     0.42676   0.14597   0.16146   0.00000  Uiso   1.00
C467   C     0.41979   0.20963   0.23161   0.00000  Uiso   1.00
C468   C     0.40046   0.26116   0.19892   0.00000  Uiso   1.00
C469   C     0.37021   0.36155   0.18366   0.00000  Uiso   1.00
C470   C     0.46499   0.09046   0.08519   0.00000  Uiso   1.00
C471   C     0.49016   0.10747   0.09122   0.00000  Uiso   1.00
C472   C     0.50301   0.11227   0.99431   0.00000  Uiso   1.00
C473   C     0.53212   0.12647   0.86063   0.00000  Uiso   1.00
C474   C     0.42547   0.06080   0.99820   0.00000  Uiso   1.00
C475   C     0.42352   0.98439   0.07181   0.00000  Uiso   1.00
C476   C     0.41150   0.90987   0.04711   0.00000  Uiso   1.00
C477   C     0.41180   0.84747   0.12533   0.00000  Uiso   1.00
C478   C     0.41484   0.13419   0.06217   0.00000  Uiso   1.00
C479   C     0.39552   0.18564   0.02936   0.00000  Uiso   1.00
C480   C     0.38852   0.24936   0.09945   0.00000  Uiso   1.00
C481   C     0.45307   0.07868   0.98590   0.00000  Uiso   1.00
C482   C     0.46589   0.08347   0.88896   0.00000  Uiso   1.00
C483   C     0.49108   0.10047   0.89484   0.00000  Uiso   1.00
H484   H     0.45668   0.09166   0.25831   0.00000  Uiso   1.00
H485   H     0.44498   0.94300   0.32621   0.00000  Uiso   1.00
H486   H     0.42901   0.21874   0.30844   0.00000  Uiso   1.00
H487   H     0.49937   0.11658   0.16807   0.00000  Uiso   1.00
H488   H     0.42676   0.77301   0.35770   0.00000  Uiso   1.00
H489   H     0.39308   0.35443   0.32024   0.00000  Uiso   1.00
H490   H     0.54145   0.13901   0.02423   0.00000  Uiso   1.00
H491   H     0.41619   0.05163   0.92090   0.00000  Uiso   1.00
H492   H     0.40228   0.90077   0.97027   0.00000  Uiso   1.00
H493   H     0.38630   0.17651   0.95251   0.00000  Uiso   1.00
H494   H     0.45666   0.07435   0.81214   0.00000  Uiso   1.00
H495   H     0.39209   0.73873   0.06882   0.00000  Uiso   1.00
H496   H     0.35842   0.32016   0.03135   0.00000  Uiso   1.00
H497   H     0.50679   0.10473   0.73534   0.00000  Uiso   1.00
O498   O     0.40099   0.65737   0.25184   0.00000  Uiso   1.00
O499   O     0.35682   0.42017   0.20268   0.00000  Uiso   1.00
O500   O     0.55147   0.13754   0.81433   0.00000  Uiso   1.00
N501   N     0.42051   0.78564   0.28293   0.00000  Uiso   1.00
N502   N     0.38903   0.32922   0.24791   0.00000  Uiso   1.00
N503   N     0.52774   0.12785   0.97117   0.00000  Uiso   1.00
N504   N     0.40186   0.76720   0.12748   0.00000  Uiso   1.00
N505   N     0.37037   0.31078   0.09246   0.00000  Uiso   1.00
N506   N     0.50909   0.10940   0.81572   0.00000  Uiso   1.00
C507   C     0.44741   0.58248   0.68101   0.00000  Uiso   1.00
C508   C     0.43544   0.49616   0.67110   0.00000  Uiso   1.00
C509   C     0.43576   0.43386   0.74937   0.00000  Uiso   1.00
C510   C     0.42374   0.35927   0.72480   0.00000  Uiso   1.00
C511   C     0.40696   0.22704   0.72455   0.00000  Uiso   1.00
C512   C     0.42676   0.64597   0.66146   0.00000  Uiso   1.00
C513   C     0.41979   0.70963   0.73161   0.00000  Uiso   1.00
C514   C     0.40046   0.76116   0.69892   0.00000  Uiso   1.00
C515   C     0.37021   0.86155   0.68366   0.00000  Uiso   1.00
C516   C     0.46499   0.59046   0.58519   0.00000  Uiso   1.00
C517   C     0.49016   0.60747   0.59122   0.00000  Uiso   1.00
C518   C     0.50301   0.61227   0.49431   0.00000  Uiso   1.00
C519   C     0.53212   0.62647   0.36063   0.00000  Uiso   1.00
C520   C     0.42547   0.56080   0.49820   0.00000  Uiso   1.00
C521   C     0.42352   0.48439   0.57181   0.00000  Uiso   1.00
C522   C     0.41150   0.40987   0.54711   0.00000  Uiso   1.00
C523   C     0.41180   0.34747   0.62533   0.00000  Uiso   1.00
C524   C     0.41484   0.63419   0.56217   0.00000  Uiso   1.00
C525   C     0.39552   0.68564   0.52936   0.00000  Uiso   1.00
C526   C     0.38852   0.74936   0.59945   0.00000  Uiso   1.00
C527   C     0.45307   0.57868   0.48590   0.00000  Uiso   1.00
C528   C     0.46589   0.58347   0.38896   0.00000  Uiso   1.00
C529   C     0.49108   0.60047   0.39484   0.00000  Uiso   1.00
H530   H     0.45668   0.59166   0.75831   0.00000  Uiso   1.00
H531   H     0.44498   0.44300   0.82621   0.00000  Uiso   1.00
H532   H     0.42901   0.71874   0.80844   0.00000  Uiso   1.00
H533   H     0.49937   0.61658   0.66807   0.00000  Uiso   1.00
H534   H     0.42676   0.27301   0.85770   0.00000  Uiso   1.00
H535   H     0.39308   0.85443   0.82024   0.00000  Uiso   1.00
H536   H     0.54145   0.63901   0.52423   0.00000  Uiso   1.00
H537   H     0.41619   0.55163   0.42090   0.00000  Uiso   1.00
H538   H     0.40228   0.40077   0.47027   0.00000  Uiso   1.00
H539   H     0.38630   0.67651   0.45251   0.00000  Uiso   1.00
H540   H     0.45666   0.57435   0.31214   0.00000  Uiso   1.00
H541   H     0.39209   0.23873   0.56882   0.00000  Uiso   1.00
H542   H     0.35842   0.82016   0.53135   0.00000  Uiso   1.00
H543   H     0.50679   0.60473   0.23534   0.00000  Uiso   1.00
O544   O     0.40099   0.15737   0.75184   0.00000  Uiso   1.00
O545   O     0.35682   0.92017   0.70268   0.00000  Uiso   1.00
O546   O     0.55147   0.63754   0.31433   0.00000  Uiso   1.00
N547   N     0.42051   0.28564   0.78293   0.00000  Uiso   1.00
N548   N     0.38903   0.82922   0.74791   0.00000  Uiso   1.00
N549   N     0.52774   0.62785   0.47117   0.00000  Uiso   1.00
N550   N     0.40186   0.26720   0.62748   0.00000  Uiso   1.00
N551   N     0.37037   0.81078   0.59246   0.00000  Uiso   1.00
N552   N     0.50909   0.60940   0.31572   0.00000  Uiso   1.00
C553   C     0.55259   0.41752   0.68101   0.00000  Uiso   1.00
C554   C     0.56456   0.50384   0.67110   0.00000  Uiso   1.00
C555   C     0.56424   0.56614   0.74937   0.00000  Uiso   1.00
C556   C     0.57626   0.64073   0.72480   0.00000  Uiso   1.00
C557   C     0.59304   0.77296   0.72455   0.00000  Uiso   1.00
C558   C     0.57324   0.35403   0.66146   0.00000  Uiso   1.00
C559   C     0.58021   0.29037   0.73161   0.00000  Uiso   1.00
C560   C     0.59954   0.23884   0.69892   0.00000  Uiso   1.00
C561   C     0.62979   0.13845   0.68366   0.00000  Uiso   1.00
C562   C     0.53501   0.40954   0.58519   0.00000  Uiso   1.00
C563   C     0.50984   0.39253   0.59122   0.00000  Uiso   1.00
C564   C     0.49699   0.38773   0.49431   0.00000  Uiso   1.00
C565   C     0.46788   0.37353   0.36063   0.00000  Uiso   1.00
C566   C     0.57453   0.43920   0.49820   0.00000  Uiso   1.00
C567   C     0.57648   0.51561   0.57181   0.00000  Uiso   1.00
C568   C     0.58850   0.59013   0.54711   0.00000  Uiso   1.00
C569   C     0.58820   0.65253   0.62533   0.00000  Uiso   1.00
C570   C     0.58516   0.36581   0.56217   0.00000  Uiso   1.00
C571   C     0.60448   0.31436   0.52936   0.00000  Uiso   1.00
C572   C     0.61148   0.25064   0.59945   0.00000  Uiso   1.00
C573   C     0.54693   0.42132   0.48590   0.00000  Uiso   1.00
C574   C     0.53411   0.41653   0.38896   0.00000  Uiso   1.00
C575   C     0.50892   0.39953   0.39484   0.00000  Uiso   1.00
H576   H     0.54332   0.40834   0.75831   0.00000  Uiso   1.00
H577   H     0.55502   0.55700   0.82621   0.00000  Uiso   1.00
H578   H     0.57099   0.28126   0.80844   0.00000  Uiso   1.00
H579   H     0.50063   0.38342   0.66807   0.00000  Uiso   1.00
H580   H     0.57324   0.72699   0.85770   0.00000  Uiso   1.00
H581   H     0.60692   0.14557   0.82024   0.00000  Uiso   1.00
H582   H     0.45855   0.36099   0.52423   0.00000  Uiso   1.00
H583   H     0.58381   0.44837   0.42090   0.00000  Uiso   1.00
H584   H     0.59772   0.59923   0.47027   0.00000  Uiso   1.00
H585   H     0.61370   0.32349   0.45251   0.00000  Uiso   1.00
H586   H     0.54334   0.42565   0.31214   0.00000  Uiso   1.00
H587   H     0.60791   0.76127   0.56882   0.00000  Uiso   1.00
H588   H     0.64158   0.17984   0.53135   0.00000  Uiso   1.00
H589   H     0.49321   0.39527   0.23534   0.00000  Uiso   1.00
O590   O     0.59901   0.84263   0.75184   0.00000  Uiso   1.00
O591   O     0.64318   0.07983   0.70268   0.00000  Uiso   1.00
O592   O     0.44853   0.36246   0.31433   0.00000  Uiso   1.00
N593   N     0.57949   0.71436   0.78293   0.00000  Uiso   1.00
N594   N     0.61097   0.17078   0.74791   0.00000  Uiso   1.00
N595   N     0.47226   0.37215   0.47117   0.00000  Uiso   1.00
N596   N     0.59814   0.73280   0.62748   0.00000  Uiso   1.00
N597   N     0.62963   0.18922   0.59246   0.00000  Uiso   1.00
N598   N     0.49091   0.39060   0.31572   0.00000  Uiso   1.00
C599   C     0.55259   0.91752   0.18101   0.00000  Uiso   1.00
C600   C     0.56456   0.00384   0.17110   0.00000  Uiso   1.00
C601   C     0.56424   0.06614   0.24937   0.00000  Uiso   1.00
C602   C     0.57626   0.14073   0.22480   0.00000  Uiso   1.00
C603   C     0.59304   0.27296   0.22455   0.00000  Uiso   1.00
C604   C     0.57324   0.85403   0.16146   0.00000  Uiso   1.00
C605   C     0.58021   0.79037   0.23161   0.00000  Uiso   1.00
C606   C     0.59954   0.73884   0.19892   0.00000  Uiso   1.00
C607   C     0.62979   0.63845   0.18366   0.00000  Uiso   1.00
C608   C     0.53501   0.90954   0.08519   0.00000  Uiso   1.00
C609   C     0.50984   0.89253   0.09122   0.00000  Uiso   1.00
C610   C     0.49699   0.88773   0.99431   0.00000  Uiso   1.00
C611   C     0.46788   0.87353   0.86063   0.00000  Uiso   1.00
C612   C     0.57453   0.93920   0.99820   0.00000  Uiso   1.00
C613   C     0.57648   0.01561   0.07181   0.00000  Uiso   1.00
C614   C     0.58850   0.09013   0.04711   0.00000  Uiso   1.00
C615   C     0.58820   0.15253   0.12533   0.00000  Uiso   1.00
C616   C     0.58516   0.86581   0.06217   0.00000  Uiso   1.00
C617   C     0.60448   0.81436   0.02936   0.00000  Uiso   1.00
C618   C     0.61148   0.75064   0.09945   0.00000  Uiso   1.00
C619   C     0.54693   0.92132   0.98590   0.00000  Uiso   1.00
C620   C     0.53411   0.91653   0.88896   0.00000  Uiso   1.00
C621   C     0.50892   0.89953   0.89484   0.00000  Uiso   1.00
H622   H     0.54332   0.90834   0.25831   0.00000  Uiso   1.00
H623   H     0.55502   0.05700   0.32621   0.00000  Uiso   1.00
H624   H     0.57099   0.78126   0.30844   0.00000  Uiso   1.00
H625   H     0.50063   0.88342   0.16807   0.00000  Uiso   1.00
H626   H     0.57324   0.22699   0.35770   0.00000  Uiso   1.00
H627   H     0.60692   0.64557   0.32024   0.00000  Uiso   1.00
H628   H     0.45855   0.86099   0.02423   0.00000  Uiso   1.00
H629   H     0.58381   0.94837   0.92090   0.00000  Uiso   1.00
H630   H     0.59772   0.09923   0.97027   0.00000  Uiso   1.00
H631   H     0.61370   0.82349   0.95251   0.00000  Uiso   1.00
H632   H     0.54334   0.92565   0.81214   0.00000  Uiso   1.00
H633   H     0.60791   0.26127   0.06882   0.00000  Uiso   1.00
H634   H     0.64158   0.67984   0.03135   0.00000  Uiso   1.00
H635   H     0.49321   0.89527   0.73534   0.00000  Uiso   1.00
O636   O     0.59901   0.34263   0.25184   0.00000  Uiso   1.00
O637   O     0.64318   0.57983   0.20268   0.00000  Uiso   1.00
O638   O     0.44853   0.86246   0.81433   0.00000  Uiso   1.00
N639   N     0.57949   0.21436   0.28293   0.00000  Uiso   1.00
N640   N     0.61097   0.67078   0.24791   0.00000  Uiso   1.00
N641   N     0.47226   0.87215   0.97117   0.00000  Uiso   1.00
N642   N     0.59814   0.23280   0.12748   0.00000  Uiso   1.00
N643   N     0.62963   0.68922   0.09246   0.00000  Uiso   1.00
N644   N     0.49091   0.89060   0.81572   0.00000  Uiso   1.00
C645   C     0.05259   0.41752   0.18101   0.00000  Uiso   1.00
C646   C     0.06456   0.50384   0.17110   0.00000  Uiso   1.00
C647   C     0.06424   0.56614   0.24937   0.00000  Uiso   1.00
C648   C     0.07626   0.64073   0.22480   0.00000  Uiso   1.00
C649   C     0.09304   0.77296   0.22455   0.00000  Uiso   1.00
C650   C     0.07324   0.35403   0.16146   0.00000  Uiso   1.00
C651   C     0.08021   0.29037   0.23161   0.00000  Uiso   1.00
C652   C     0.09954   0.23884   0.19892   0.00000  Uiso   1.00
C653   C     0.12979   0.13845   0.18366   0.00000  Uiso   1.00
C654   C     0.03501   0.40954   0.08519   0.00000  Uiso   1.00
C655   C     0.00984   0.39253   0.09122   0.00000  Uiso   1.00
C656   C     0.99699   0.38773   0.99431   0.00000  Uiso   1.00
C657   C     0.96788   0.37353   0.86063   0.00000  Uiso   1.00
C658   C     0.07453   0.43920   0.99820   0.00000  Uiso   1.00
C659   C     0.07648   0.51561   0.07181   0.00000  Uiso   1.00
C660   C     0.08850   0.59013   0.04711   0.00000  Uiso   1.00
C661   C     0.08820   0.65253   0.12533   0.00000  Uiso   1.00
C662   C     0.08516   0.36581   0.06217   0.00000  Uiso   1.00
C663   C     0.10448   0.31436   0.02936   0.00000  Uiso   1.00
C664   C     0.11148   0.25064   0.09945   0.00000  Uiso   1.00
C665   C     0.04693   0.42132   0.98590   0.00000  Uiso   1.00
C666   C     0.03411   0.41653   0.88896   0.00000  Uiso   1.00
C667   C     0.00892   0.39953   0.89484   0.00000  Uiso   1.00
H668   H     0.04332   0.40834   0.25831   0.00000  Uiso   1.00
H669   H     0.05502   0.55700   0.32621   0.00000  Uiso   1.00
H670   H     0.07099   0.28126   0.30844   0.00000  Uiso   1.00
H671   H     0.00063   0.38342   0.16807   0.00000  Uiso   1.00
H672   H     0.07324   0.72699   0.35770   0.00000  Uiso   1.00
H673   H     0.10692   0.14557   0.32024   0.00000  Uiso   1.00
H674   H     0.95855   0.36099   0.02423   0.00000  Uiso   1.00
H675   H     0.08381   0.44837   0.92090   0.00000  Uiso   1.00
H676   H     0.09772   0.59923   0.97027   0.00000  Uiso   1.00
H677   H     0.11370   0.32349   0.95251   0.00000  Uiso   1.00
H678   H     0.04334   0.42565   0.81214   0.00000  Uiso   1.00
H679   H     0.10791   0.76127   0.06882   0.00000  Uiso   1.00
H680   H     0.14158   0.17984   0.03135   0.00000  Uiso   1.00
H681   H     0.99321   0.39527   0.73534   0.00000  Uiso   1.00
O682   O     0.09901   0.84263   0.25184   0.00000  Uiso   1.00
O683   O     0.14318   0.07983   0.20268   0.00000  Uiso   1.00
O684   O     0.94853   0.36246   0.81433   0.00000  Uiso   1.00
N685   N     0.07949   0.71436   0.28293   0.00000  Uiso   1.00
N686   N     0.11097   0.17078   0.24791   0.00000  Uiso   1.00
N687   N     0.97226   0.37215   0.97117   0.00000  Uiso   1.00
N688   N     0.09814   0.73280   0.12748   0.00000  Uiso   1.00
N689   N     0.12963   0.18922   0.09246   0.00000  Uiso   1.00
N690   N     0.99091   0.39060   0.81572   0.00000  Uiso   1.00
C691   C     0.05259   0.91752   0.68101   0.00000  Uiso   1.00
C692   C     0.06456   0.00384   0.67110   0.00000  Uiso   1.00
C693   C     0.06424   0.06614   0.74937   0.00000  Uiso   1.00
C694   C     0.07626   0.14073   0.72480   0.00000  Uiso   1.00
C695   C     0.09304   0.27296   0.72455   0.00000  Uiso   1.00
C696   C     0.07324   0.85403   0.66146   0.00000  Uiso   1.00
C697   C     0.08021   0.79037   0.73161   0.00000  Uiso   1.00
C698   C     0.09954   0.73884   0.69892   0.00000  Uiso   1.00
C699   C     0.12979   0.63845   0.68366   0.00000  Uiso   1.00
C700   C     0.03501   0.90954   0.58519   0.00000  Uiso   1.00
C701   C     0.00984   0.89253   0.59122   0.00000  Uiso   1.00
C702   C     0.99699   0.88773   0.49431   0.00000  Uiso   1.00
C703   C     0.96788   0.87353   0.36063   0.00000  Uiso   1.00
C704   C     0.07453   0.93920   0.49820   0.00000  Uiso   1.00
C705   C     0.07648   0.01561   0.57181   0.00000  Uiso   1.00
C706   C     0.08850   0.09013   0.54711   0.00000  Uiso   1.00
C707   C     0.08820   0.15253   0.62533   0.00000  Uiso   1.00
C708   C     0.08516   0.86581   0.56217   0.00000  Uiso   1.00
C709   C     0.10448   0.81436   0.52936   0.00000  Uiso   1.00
C710   C     0.11148   0.75064   0.59945   0.00000  Uiso   1.00
C711   C     0.04693   0.92132   0.48590   0.00000  Uiso   1.00
C712   C     0.03411   0.91653   0.38896   0.00000  Uiso   1.00
C713   C     0.00892   0.89953   0.39484   0.00000  Uiso   1.00
H714   H     0.04332   0.90834   0.75831   0.00000  Uiso   1.00
H715   H     0.05502   0.05700   0.82621   0.00000  Uiso   1.00
H716   H     0.07099   0.78126   0.80844   0.00000  Uiso   1.00
H717   H     0.00063   0.88342   0.66807   0.00000  Uiso   1.00
H718   H     0.07324   0.22699   0.85770   0.00000  Uiso   1.00
H719   H     0.10692   0.64557   0.82024   0.00000  Uiso   1.00
H720   H     0.95855   0.86099   0.52423   0.00000  Uiso   1.00
H721   H     0.08381   0.94837   0.42090   0.00000  Uiso   1.00
H722   H     0.09772   0.09923   0.47027   0.00000  Uiso   1.00
H723   H     0.11370   0.82349   0.45251   0.00000  Uiso   1.00
H724   H     0.04334   0.92565   0.31214   0.00000  Uiso   1.00
H725   H     0.10791   0.26127   0.56882   0.00000  Uiso   1.00
H726   H     0.14158   0.67984   0.53135   0.00000  Uiso   1.00
H727   H     0.99321   0.89527   0.23534   0.00000  Uiso   1.00
O728   O     0.09901   0.34263   0.75184   0.00000  Uiso   1.00
O729   O     0.14318   0.57983   0.70268   0.00000  Uiso   1.00
O730   O     0.94853   0.86246   0.31433   0.00000  Uiso   1.00
N731   N     0.07949   0.21436   0.78293   0.00000  Uiso   1.00
N732   N     0.11097   0.67078   0.74791   0.00000  Uiso   1.00
N733   N     0.97226   0.87215   0.47117   0.00000  Uiso   1.00
N734   N     0.09814   0.23280   0.62748   0.00000  Uiso   1.00
N735   N     0.12963   0.68922   0.59246   0.00000  Uiso   1.00
N736   N     0.99091   0.89060   0.31572   0.00000  Uiso   1.00
