data_job_03673
_audit_creation_date              2018-12-19
_audit_creation_method            'Materials Studio'
_symmetry_space_group_name_H-M    'P1'
_symmetry_Int_Tables_number       1
_symmetry_cell_setting            triclinic
loop_
_symmetry_equiv_pos_as_xyz
  x,y,z
_cell_length_a                    59.4118
_cell_length_b                    23.8476
_cell_length_c                    7.3983
_cell_angle_alpha                 90.0000
_cell_angle_beta                  90.0000
_cell_angle_gamma                 90.0000
loop_
_atom_site_label
_atom_site_type_symbol
_atom_site_fract_x
_atom_site_fract_y
_atom_site_fract_z
_atom_site_U_iso_or_equiv
_atom_site_adp_type
_atom_site_occupancy
C1     C     0.41377   0.45045   0.15664   0.00000  Uiso   1.00
C2     C     0.40089   0.44440   0.33385   0.00000  Uiso   1.00
C3     C     0.37780   0.43724   0.35051   0.00000  Uiso   1.00
C4     C     0.36926   0.43254   0.52452   0.00000  Uiso   1.00
C5     C     0.34712   0.42281   0.77661   0.00000  Uiso   1.00
C6     C     0.42662   0.50565   0.17023   0.00000  Uiso   1.00
C7     C     0.42516   0.54999   0.04930   0.00000  Uiso   1.00
C8     C     0.43827   0.59685   0.08556   0.00000  Uiso   1.00
C9     C     0.45609   0.68220   0.08355   0.00000  Uiso   1.00
C10    C     0.43154   0.40431   0.15730   0.00000  Uiso   1.00
C11    C     0.43423   0.36345   0.02547   0.00000  Uiso   1.00
C12    C     0.45149   0.32500   0.05082   0.00000  Uiso   1.00
C13    C     0.47695   0.25300   0.02873   0.00000  Uiso   1.00
C14    C     0.43965   0.45483   0.43603   0.00000  Uiso   1.00
C15    C     0.41495   0.44677   0.48561   0.00000  Uiso   1.00
C16    C     0.40643   0.44208   0.65964   0.00000  Uiso   1.00
C17    C     0.38334   0.43492   0.67655   0.00000  Uiso   1.00
C18    C     0.44067   0.50803   0.32198   0.00000  Uiso   1.00
C19    C     0.45379   0.55483   0.35842   0.00000  Uiso   1.00
C20    C     0.45236   0.59924   0.23759   0.00000  Uiso   1.00
C21    C     0.44560   0.40669   0.30906   0.00000  Uiso   1.00
C22    C     0.46286   0.36829   0.33460   0.00000  Uiso   1.00
C23    C     0.46557   0.32738   0.20285   0.00000  Uiso   1.00
H24    H     0.40283   0.44861   0.03849   0.00000  Uiso   1.00
H25    H     0.36693   0.43541   0.23304   0.00000  Uiso   1.00
H26    H     0.41428   0.54814   0.93187   0.00000  Uiso   1.00
H27    H     0.42335   0.36163   0.90806   0.00000  Uiso   1.00
H28    H     0.33333   0.42185   0.51566   0.00000  Uiso   1.00
H29    H     0.43318   0.65954   0.88059   0.00000  Uiso   1.00
H30    H     0.45229   0.26624   0.83037   0.00000  Uiso   1.00
H31    H     0.45059   0.45668   0.55419   0.00000  Uiso   1.00
H32    H     0.41732   0.44392   0.77705   0.00000  Uiso   1.00
H33    H     0.46467   0.55665   0.47587   0.00000  Uiso   1.00
H34    H     0.47373   0.37014   0.45206   0.00000  Uiso   1.00
H35    H     0.37422   0.42876   0.95720   0.00000  Uiso   1.00
H36    H     0.47408   0.66645   0.32212   0.00000  Uiso   1.00
H37    H     0.49319   0.27315   0.27191   0.00000  Uiso   1.00
O38    O     0.33102   0.41679   0.87373   0.00000  Uiso   1.00
O39    O     0.46203   0.72862   0.04052   0.00000  Uiso   1.00
O40    O     0.48710   0.21263   0.97464   0.00000  Uiso   1.00
N41    N     0.34752   0.42522   0.58899   0.00000  Uiso   1.00
N42    N     0.44087   0.64745   0.99525   0.00000  Uiso   1.00
N43    N     0.45875   0.27976   0.94828   0.00000  Uiso   1.00
N44    N     0.36952   0.42893   0.82658   0.00000  Uiso   1.00
N45    N     0.46288   0.65116   0.23284   0.00000  Uiso   1.00
N46    N     0.48075   0.28347   0.18586   0.00000  Uiso   1.00
C47    C     0.41377   0.95045   0.65664   0.00000  Uiso   1.00
C48    C     0.40089   0.94440   0.83385   0.00000  Uiso   1.00
C49    C     0.37780   0.93724   0.85051   0.00000  Uiso   1.00
C50    C     0.36926   0.93254   0.02452   0.00000  Uiso   1.00
C51    C     0.34712   0.92281   0.27661   0.00000  Uiso   1.00
C52    C     0.42662   0.00565   0.67023   0.00000  Uiso   1.00
C53    C     0.42516   0.04999   0.54930   0.00000  Uiso   1.00
C54    C     0.43827   0.09685   0.58556   0.00000  Uiso   1.00
C55    C     0.45609   0.18220   0.58355   0.00000  Uiso   1.00
C56    C     0.43154   0.90431   0.65730   0.00000  Uiso   1.00
C57    C     0.43423   0.86345   0.52547   0.00000  Uiso   1.00
C58    C     0.45149   0.82500   0.55082   0.00000  Uiso   1.00
C59    C     0.47695   0.75300   0.52873   0.00000  Uiso   1.00
C60    C     0.43965   0.95483   0.93603   0.00000  Uiso   1.00
C61    C     0.41495   0.94677   0.98561   0.00000  Uiso   1.00
C62    C     0.40643   0.94208   0.15964   0.00000  Uiso   1.00
C63    C     0.38334   0.93492   0.17655   0.00000  Uiso   1.00
C64    C     0.44067   0.00803   0.82198   0.00000  Uiso   1.00
C65    C     0.45379   0.05483   0.85842   0.00000  Uiso   1.00
C66    C     0.45236   0.09924   0.73759   0.00000  Uiso   1.00
C67    C     0.44560   0.90669   0.80906   0.00000  Uiso   1.00
C68    C     0.46286   0.86829   0.83460   0.00000  Uiso   1.00
C69    C     0.46557   0.82738   0.70285   0.00000  Uiso   1.00
H70    H     0.40283   0.94861   0.53849   0.00000  Uiso   1.00
H71    H     0.36693   0.93541   0.73304   0.00000  Uiso   1.00
H72    H     0.41428   0.04814   0.43187   0.00000  Uiso   1.00
H73    H     0.42335   0.86163   0.40806   0.00000  Uiso   1.00
H74    H     0.33333   0.92185   0.01566   0.00000  Uiso   1.00
H75    H     0.43318   0.15954   0.38059   0.00000  Uiso   1.00
H76    H     0.45229   0.76624   0.33037   0.00000  Uiso   1.00
H77    H     0.45059   0.95668   0.05419   0.00000  Uiso   1.00
H78    H     0.41732   0.94392   0.27705   0.00000  Uiso   1.00
H79    H     0.46467   0.05665   0.97587   0.00000  Uiso   1.00
H80    H     0.47373   0.87014   0.95206   0.00000  Uiso   1.00
H81    H     0.37422   0.92876   0.45720   0.00000  Uiso   1.00
H82    H     0.47408   0.16645   0.82212   0.00000  Uiso   1.00
H83    H     0.49319   0.77315   0.77191   0.00000  Uiso   1.00
O84    O     0.33102   0.91679   0.37373   0.00000  Uiso   1.00
O85    O     0.46203   0.22862   0.54052   0.00000  Uiso   1.00
O86    O     0.48710   0.71263   0.47464   0.00000  Uiso   1.00
N87    N     0.34752   0.92522   0.08899   0.00000  Uiso   1.00
N88    N     0.44087   0.14745   0.49525   0.00000  Uiso   1.00
N89    N     0.45875   0.77976   0.44828   0.00000  Uiso   1.00
N90    N     0.36952   0.92893   0.32658   0.00000  Uiso   1.00
N91    N     0.46288   0.15116   0.73284   0.00000  Uiso   1.00
N92    N     0.48075   0.78347   0.68586   0.00000  Uiso   1.00
C93    C     0.91377   0.45045   0.65664   0.00000  Uiso   1.00
C94    C     0.90089   0.44440   0.83385   0.00000  Uiso   1.00
C95    C     0.87780   0.43724   0.85051   0.00000  Uiso   1.00
C96    C     0.86926   0.43254   0.02452   0.00000  Uiso   1.00
C97    C     0.84712   0.42281   0.27661   0.00000  Uiso   1.00
C98    C     0.92662   0.50565   0.67023   0.00000  Uiso   1.00
C99    C     0.92516   0.54999   0.54930   0.00000  Uiso   1.00
C100   C     0.93827   0.59685   0.58556   0.00000  Uiso   1.00
C101   C     0.95609   0.68220   0.58355   0.00000  Uiso   1.00
C102   C     0.93154   0.40431   0.65730   0.00000  Uiso   1.00
C103   C     0.93423   0.36345   0.52547   0.00000  Uiso   1.00
C104   C     0.95149   0.32500   0.55082   0.00000  Uiso   1.00
C105   C     0.97695   0.25300   0.52873   0.00000  Uiso   1.00
C106   C     0.93965   0.45483   0.93603   0.00000  Uiso   1.00
C107   C     0.91495   0.44677   0.98561   0.00000  Uiso   1.00
C108   C     0.90643   0.44208   0.15964   0.00000  Uiso   1.00
C109   C     0.88334   0.43492   0.17655   0.00000  Uiso   1.00
C110   C     0.94067   0.50803   0.82198   0.00000  Uiso   1.00
C111   C     0.95379   0.55483   0.85842   0.00000  Uiso   1.00
C112   C     0.95236   0.59924   0.73759   0.00000  Uiso   1.00
C113   C     0.94560   0.40669   0.80906   0.00000  Uiso   1.00
C114   C     0.96286   0.36829   0.83460   0.00000  Uiso   1.00
C115   C     0.96557   0.32738   0.70285   0.00000  Uiso   1.00
H116   H     0.90283   0.44861   0.53849   0.00000  Uiso   1.00
H117   H     0.86693   0.43541   0.73304   0.00000  Uiso   1.00
H118   H     0.91428   0.54814   0.43187   0.00000  Uiso   1.00
H119   H     0.92335   0.36163   0.40806   0.00000  Uiso   1.00
H120   H     0.83333   0.42185   0.01566   0.00000  Uiso   1.00
H121   H     0.93318   0.65954   0.38059   0.00000  Uiso   1.00
H122   H     0.95229   0.26624   0.33037   0.00000  Uiso   1.00
H123   H     0.95059   0.45668   0.05419   0.00000  Uiso   1.00
H124   H     0.91732   0.44392   0.27705   0.00000  Uiso   1.00
H125   H     0.96467   0.55665   0.97587   0.00000  Uiso   1.00
H126   H     0.97373   0.37014   0.95206   0.00000  Uiso   1.00
H127   H     0.87422   0.42876   0.45720   0.00000  Uiso   1.00
H128   H     0.97408   0.66645   0.82212   0.00000  Uiso   1.00
H129   H     0.99319   0.27315   0.77191   0.00000  Uiso   1.00
O130   O     0.83102   0.41679   0.37373   0.00000  Uiso   1.00
O131   O     0.96203   0.72862   0.54052   0.00000  Uiso   1.00
O132   O     0.98710   0.21263   0.47464   0.00000  Uiso   1.00
N133   N     0.84752   0.42522   0.08899   0.00000  Uiso   1.00
N134   N     0.94087   0.64745   0.49525   0.00000  Uiso   1.00
N135   N     0.95875   0.27976   0.44828   0.00000  Uiso   1.00
N136   N     0.86952   0.42893   0.32658   0.00000  Uiso   1.00
N137   N     0.96288   0.65116   0.73284   0.00000  Uiso   1.00
N138   N     0.98075   0.28347   0.68586   0.00000  Uiso   1.00
C139   C     0.91377   0.95045   0.15664   0.00000  Uiso   1.00
C140   C     0.90089   0.94440   0.33385   0.00000  Uiso   1.00
C141   C     0.87780   0.93724   0.35051   0.00000  Uiso   1.00
C142   C     0.86926   0.93254   0.52452   0.00000  Uiso   1.00
C143   C     0.84712   0.92281   0.77661   0.00000  Uiso   1.00
C144   C     0.92662   0.00565   0.17023   0.00000  Uiso   1.00
C145   C     0.92516   0.04999   0.04930   0.00000  Uiso   1.00
C146   C     0.93827   0.09685   0.08556   0.00000  Uiso   1.00
C147   C     0.95609   0.18220   0.08355   0.00000  Uiso   1.00
C148   C     0.93154   0.90431   0.15730   0.00000  Uiso   1.00
C149   C     0.93423   0.86345   0.02547   0.00000  Uiso   1.00
C150   C     0.95149   0.82500   0.05082   0.00000  Uiso   1.00
C151   C     0.97695   0.75300   0.02873   0.00000  Uiso   1.00
C152   C     0.93965   0.95483   0.43603   0.00000  Uiso   1.00
C153   C     0.91495   0.94677   0.48561   0.00000  Uiso   1.00
C154   C     0.90643   0.94208   0.65964   0.00000  Uiso   1.00
C155   C     0.88334   0.93492   0.67655   0.00000  Uiso   1.00
C156   C     0.94067   0.00803   0.32198   0.00000  Uiso   1.00
C157   C     0.95379   0.05483   0.35842   0.00000  Uiso   1.00
C158   C     0.95236   0.09924   0.23759   0.00000  Uiso   1.00
C159   C     0.94560   0.90669   0.30906   0.00000  Uiso   1.00
C160   C     0.96286   0.86829   0.33460   0.00000  Uiso   1.00
C161   C     0.96557   0.82738   0.20285   0.00000  Uiso   1.00
H162   H     0.90283   0.94861   0.03849   0.00000  Uiso   1.00
H163   H     0.86693   0.93541   0.23304   0.00000  Uiso   1.00
H164   H     0.91428   0.04814   0.93187   0.00000  Uiso   1.00
H165   H     0.92335   0.86163   0.90806   0.00000  Uiso   1.00
H166   H     0.83333   0.92185   0.51566   0.00000  Uiso   1.00
H167   H     0.93318   0.15954   0.88059   0.00000  Uiso   1.00
H168   H     0.95229   0.76624   0.83037   0.00000  Uiso   1.00
H169   H     0.95059   0.95668   0.55419   0.00000  Uiso   1.00
H170   H     0.91732   0.94392   0.77705   0.00000  Uiso   1.00
H171   H     0.96467   0.05665   0.47587   0.00000  Uiso   1.00
H172   H     0.97373   0.87014   0.45206   0.00000  Uiso   1.00
H173   H     0.87422   0.92876   0.95720   0.00000  Uiso   1.00
H174   H     0.97408   0.16645   0.32212   0.00000  Uiso   1.00
H175   H     0.99319   0.77315   0.27191   0.00000  Uiso   1.00
O176   O     0.83102   0.91679   0.87373   0.00000  Uiso   1.00
O177   O     0.96203   0.22862   0.04052   0.00000  Uiso   1.00
O178   O     0.98710   0.71263   0.97464   0.00000  Uiso   1.00
N179   N     0.84752   0.92522   0.58899   0.00000  Uiso   1.00
N180   N     0.94087   0.14745   0.99525   0.00000  Uiso   1.00
N181   N     0.95875   0.77976   0.94828   0.00000  Uiso   1.00
N182   N     0.86952   0.92893   0.82658   0.00000  Uiso   1.00
N183   N     0.96288   0.15116   0.23284   0.00000  Uiso   1.00
N184   N     0.98075   0.78347   0.18586   0.00000  Uiso   1.00
C185   C     0.58623   0.54955   0.15664   0.00000  Uiso   1.00
C186   C     0.59911   0.55560   0.33385   0.00000  Uiso   1.00
C187   C     0.62220   0.56276   0.35051   0.00000  Uiso   1.00
C188   C     0.63074   0.56746   0.52452   0.00000  Uiso   1.00
C189   C     0.65288   0.57719   0.77661   0.00000  Uiso   1.00
C190   C     0.57338   0.49435   0.17023   0.00000  Uiso   1.00
C191   C     0.57484   0.45001   0.04930   0.00000  Uiso   1.00
C192   C     0.56173   0.40315   0.08556   0.00000  Uiso   1.00
C193   C     0.54391   0.31780   0.08355   0.00000  Uiso   1.00
C194   C     0.56846   0.59569   0.15730   0.00000  Uiso   1.00
C195   C     0.56577   0.63655   0.02547   0.00000  Uiso   1.00
C196   C     0.54851   0.67500   0.05082   0.00000  Uiso   1.00
C197   C     0.52305   0.74700   0.02873   0.00000  Uiso   1.00
C198   C     0.56035   0.54517   0.43603   0.00000  Uiso   1.00
C199   C     0.58505   0.55323   0.48561   0.00000  Uiso   1.00
C200   C     0.59357   0.55792   0.65964   0.00000  Uiso   1.00
C201   C     0.61666   0.56508   0.67655   0.00000  Uiso   1.00
C202   C     0.55933   0.49197   0.32198   0.00000  Uiso   1.00
C203   C     0.54621   0.44517   0.35842   0.00000  Uiso   1.00
C204   C     0.54764   0.40076   0.23759   0.00000  Uiso   1.00
C205   C     0.55440   0.59331   0.30906   0.00000  Uiso   1.00
C206   C     0.53714   0.63171   0.33460   0.00000  Uiso   1.00
C207   C     0.53443   0.67262   0.20285   0.00000  Uiso   1.00
H208   H     0.59717   0.55139   0.03849   0.00000  Uiso   1.00
H209   H     0.63307   0.56459   0.23304   0.00000  Uiso   1.00
H210   H     0.58572   0.45186   0.93187   0.00000  Uiso   1.00
H211   H     0.57665   0.63837   0.90806   0.00000  Uiso   1.00
H212   H     0.66667   0.57815   0.51566   0.00000  Uiso   1.00
H213   H     0.56682   0.34046   0.88059   0.00000  Uiso   1.00
H214   H     0.54771   0.73376   0.83037   0.00000  Uiso   1.00
H215   H     0.54941   0.54332   0.55419   0.00000  Uiso   1.00
H216   H     0.58268   0.55608   0.77705   0.00000  Uiso   1.00
H217   H     0.53533   0.44335   0.47587   0.00000  Uiso   1.00
H218   H     0.52627   0.62986   0.45206   0.00000  Uiso   1.00
H219   H     0.62578   0.57124   0.95720   0.00000  Uiso   1.00
H220   H     0.52592   0.33355   0.32212   0.00000  Uiso   1.00
H221   H     0.50681   0.72685   0.27191   0.00000  Uiso   1.00
O222   O     0.66898   0.58321   0.87373   0.00000  Uiso   1.00
O223   O     0.53797   0.27138   0.04052   0.00000  Uiso   1.00
O224   O     0.51290   0.78737   0.97464   0.00000  Uiso   1.00
N225   N     0.65248   0.57478   0.58899   0.00000  Uiso   1.00
N226   N     0.55913   0.35255   0.99525   0.00000  Uiso   1.00
N227   N     0.54125   0.72024   0.94828   0.00000  Uiso   1.00
N228   N     0.63048   0.57107   0.82658   0.00000  Uiso   1.00
N229   N     0.53712   0.34884   0.23284   0.00000  Uiso   1.00
N230   N     0.51925   0.71653   0.18586   0.00000  Uiso   1.00
C231   C     0.58623   0.04955   0.65664   0.00000  Uiso   1.00
C232   C     0.59911   0.05560   0.83385   0.00000  Uiso   1.00
C233   C     0.62220   0.06276   0.85051   0.00000  Uiso   1.00
C234   C     0.63074   0.06746   0.02452   0.00000  Uiso   1.00
C235   C     0.65288   0.07719   0.27661   0.00000  Uiso   1.00
C236   C     0.57338   0.99435   0.67023   0.00000  Uiso   1.00
C237   C     0.57484   0.95001   0.54930   0.00000  Uiso   1.00
C238   C     0.56173   0.90315   0.58556   0.00000  Uiso   1.00
C239   C     0.54391   0.81780   0.58355   0.00000  Uiso   1.00
C240   C     0.56846   0.09569   0.65730   0.00000  Uiso   1.00
C241   C     0.56577   0.13655   0.52547   0.00000  Uiso   1.00
C242   C     0.54851   0.17500   0.55082   0.00000  Uiso   1.00
C243   C     0.52305   0.24700   0.52873   0.00000  Uiso   1.00
C244   C     0.56035   0.04517   0.93603   0.00000  Uiso   1.00
C245   C     0.58505   0.05323   0.98561   0.00000  Uiso   1.00
C246   C     0.59357   0.05792   0.15964   0.00000  Uiso   1.00
C247   C     0.61666   0.06508   0.17655   0.00000  Uiso   1.00
C248   C     0.55933   0.99197   0.82198   0.00000  Uiso   1.00
C249   C     0.54621   0.94517   0.85842   0.00000  Uiso   1.00
C250   C     0.54764   0.90076   0.73759   0.00000  Uiso   1.00
C251   C     0.55440   0.09331   0.80906   0.00000  Uiso   1.00
C252   C     0.53714   0.13171   0.83460   0.00000  Uiso   1.00
C253   C     0.53443   0.17262   0.70285   0.00000  Uiso   1.00
H254   H     0.59717   0.05139   0.53849   0.00000  Uiso   1.00
H255   H     0.63307   0.06459   0.73304   0.00000  Uiso   1.00
H256   H     0.58572   0.95186   0.43187   0.00000  Uiso   1.00
H257   H     0.57665   0.13837   0.40806   0.00000  Uiso   1.00
H258   H     0.66667   0.07815   0.01566   0.00000  Uiso   1.00
H259   H     0.56682   0.84046   0.38059   0.00000  Uiso   1.00
H260   H     0.54771   0.23376   0.33037   0.00000  Uiso   1.00
H261   H     0.54941   0.04332   0.05419   0.00000  Uiso   1.00
H262   H     0.58268   0.05608   0.27705   0.00000  Uiso   1.00
H263   H     0.53533   0.94335   0.97587   0.00000  Uiso   1.00
H264   H     0.52627   0.12986   0.95206   0.00000  Uiso   1.00
H265   H     0.62578   0.07124   0.45720   0.00000  Uiso   1.00
H266   H     0.52592   0.83355   0.82212   0.00000  Uiso   1.00
H267   H     0.50681   0.22685   0.77191   0.00000  Uiso   1.00
O268   O     0.66898   0.08321   0.37373   0.00000  Uiso   1.00
O269   O     0.53797   0.77138   0.54052   0.00000  Uiso   1.00
O270   O     0.51290   0.28737   0.47464   0.00000  Uiso   1.00
N271   N     0.65248   0.07478   0.08899   0.00000  Uiso   1.00
N272   N     0.55913   0.85255   0.49525   0.00000  Uiso   1.00
N273   N     0.54125   0.22024   0.44828   0.00000  Uiso   1.00
N274   N     0.63048   0.07107   0.32658   0.00000  Uiso   1.00
N275   N     0.53712   0.84884   0.73284   0.00000  Uiso   1.00
N276   N     0.51925   0.21653   0.68586   0.00000  Uiso   1.00
C277   C     0.08623   0.54955   0.65664   0.00000  Uiso   1.00
C278   C     0.09911   0.55560   0.83385   0.00000  Uiso   1.00
C279   C     0.12220   0.56276   0.85051   0.00000  Uiso   1.00
C280   C     0.13074   0.56746   0.02452   0.00000  Uiso   1.00
C281   C     0.15288   0.57719   0.27661   0.00000  Uiso   1.00
C282   C     0.07338   0.49435   0.67023   0.00000  Uiso   1.00
C283   C     0.07484   0.45001   0.54930   0.00000  Uiso   1.00
C284   C     0.06173   0.40315   0.58556   0.00000  Uiso   1.00
C285   C     0.04391   0.31780   0.58355   0.00000  Uiso   1.00
C286   C     0.06846   0.59569   0.65730   0.00000  Uiso   1.00
C287   C     0.06577   0.63655   0.52547   0.00000  Uiso   1.00
C288   C     0.04851   0.67500   0.55082   0.00000  Uiso   1.00
C289   C     0.02305   0.74700   0.52873   0.00000  Uiso   1.00
C290   C     0.06035   0.54517   0.93603   0.00000  Uiso   1.00
C291   C     0.08505   0.55323   0.98561   0.00000  Uiso   1.00
C292   C     0.09357   0.55792   0.15964   0.00000  Uiso   1.00
C293   C     0.11666   0.56508   0.17655   0.00000  Uiso   1.00
C294   C     0.05933   0.49197   0.82198   0.00000  Uiso   1.00
C295   C     0.04621   0.44517   0.85842   0.00000  Uiso   1.00
C296   C     0.04764   0.40076   0.73759   0.00000  Uiso   1.00
C297   C     0.05440   0.59331   0.80906   0.00000  Uiso   1.00
C298   C     0.03714   0.63171   0.83460   0.00000  Uiso   1.00
C299   C     0.03443   0.67262   0.70285   0.00000  Uiso   1.00
H300   H     0.09717   0.55139   0.53849   0.00000  Uiso   1.00
H301   H     0.13307   0.56459   0.73304   0.00000  Uiso   1.00
H302   H     0.08572   0.45186   0.43187   0.00000  Uiso   1.00
H303   H     0.07665   0.63837   0.40806   0.00000  Uiso   1.00
H304   H     0.16667   0.57815   0.01566   0.00000  Uiso   1.00
H305   H     0.06682   0.34046   0.38059   0.00000  Uiso   1.00
H306   H     0.04771   0.73376   0.33037   0.00000  Uiso   1.00
H307   H     0.04941   0.54332   0.05419   0.00000  Uiso   1.00
H308   H     0.08268   0.55608   0.27705   0.00000  Uiso   1.00
H309   H     0.03533   0.44335   0.97587   0.00000  Uiso   1.00
H310   H     0.02627   0.62986   0.95206   0.00000  Uiso   1.00
H311   H     0.12578   0.57124   0.45720   0.00000  Uiso   1.00
H312   H     0.02592   0.33355   0.82212   0.00000  Uiso   1.00
H313   H     0.00681   0.72685   0.77191   0.00000  Uiso   1.00
O314   O     0.16898   0.58321   0.37373   0.00000  Uiso   1.00
O315   O     0.03797   0.27138   0.54052   0.00000  Uiso   1.00
O316   O     0.01290   0.78737   0.47464   0.00000  Uiso   1.00
N317   N     0.15248   0.57478   0.08899   0.00000  Uiso   1.00
N318   N     0.05913   0.35255   0.49525   0.00000  Uiso   1.00
N319   N     0.04125   0.72024   0.44828   0.00000  Uiso   1.00
N320   N     0.13048   0.57107   0.32658   0.00000  Uiso   1.00
N321   N     0.03712   0.34884   0.73284   0.00000  Uiso   1.00
N322   N     0.01925   0.71653   0.68586   0.00000  Uiso   1.00
C323   C     0.08623   0.04955   0.15664   0.00000  Uiso   1.00
C324   C     0.09911   0.05560   0.33385   0.00000  Uiso   1.00
C325   C     0.12220   0.06276   0.35051   0.00000  Uiso   1.00
C326   C     0.13074   0.06746   0.52452   0.00000  Uiso   1.00
C327   C     0.15288   0.07719   0.77661   0.00000  Uiso   1.00
C328   C     0.07338   0.99435   0.17023   0.00000  Uiso   1.00
C329   C     0.07484   0.95001   0.04930   0.00000  Uiso   1.00
C330   C     0.06173   0.90315   0.08556   0.00000  Uiso   1.00
C331   C     0.04391   0.81780   0.08355   0.00000  Uiso   1.00
C332   C     0.06846   0.09569   0.15730   0.00000  Uiso   1.00
C333   C     0.06577   0.13655   0.02547   0.00000  Uiso   1.00
C334   C     0.04851   0.17500   0.05082   0.00000  Uiso   1.00
C335   C     0.02305   0.24700   0.02873   0.00000  Uiso   1.00
C336   C     0.06035   0.04517   0.43603   0.00000  Uiso   1.00
C337   C     0.08505   0.05323   0.48561   0.00000  Uiso   1.00
C338   C     0.09357   0.05792   0.65964   0.00000  Uiso   1.00
C339   C     0.11666   0.06508   0.67655   0.00000  Uiso   1.00
C340   C     0.05933   0.99197   0.32198   0.00000  Uiso   1.00
C341   C     0.04621   0.94517   0.35842   0.00000  Uiso   1.00
C342   C     0.04764   0.90076   0.23759   0.00000  Uiso   1.00
C343   C     0.05440   0.09331   0.30906   0.00000  Uiso   1.00
C344   C     0.03714   0.13171   0.33460   0.00000  Uiso   1.00
C345   C     0.03443   0.17262   0.20285   0.00000  Uiso   1.00
H346   H     0.09717   0.05139   0.03849   0.00000  Uiso   1.00
H347   H     0.13307   0.06459   0.23304   0.00000  Uiso   1.00
H348   H     0.08572   0.95186   0.93187   0.00000  Uiso   1.00
H349   H     0.07665   0.13837   0.90806   0.00000  Uiso   1.00
H350   H     0.16667   0.07815   0.51566   0.00000  Uiso   1.00
H351   H     0.06682   0.84046   0.88059   0.00000  Uiso   1.00
H352   H     0.04771   0.23376   0.83037   0.00000  Uiso   1.00
H353   H     0.04941   0.04332   0.55419   0.00000  Uiso   1.00
H354   H     0.08268   0.05608   0.77705   0.00000  Uiso   1.00
H355   H     0.03533   0.94335   0.47587   0.00000  Uiso   1.00
H356   H     0.02627   0.12986   0.45206   0.00000  Uiso   1.00
H357   H     0.12578   0.07124   0.95720   0.00000  Uiso   1.00
H358   H     0.02592   0.83355   0.32212   0.00000  Uiso   1.00
H359   H     0.00681   0.22685   0.27191   0.00000  Uiso   1.00
O360   O     0.16898   0.08321   0.87373   0.00000  Uiso   1.00
O361   O     0.03797   0.77138   0.04052   0.00000  Uiso   1.00
O362   O     0.01290   0.28737   0.97464   0.00000  Uiso   1.00
N363   N     0.15248   0.07478   0.58899   0.00000  Uiso   1.00
N364   N     0.05913   0.85255   0.99525   0.00000  Uiso   1.00
N365   N     0.04125   0.22024   0.94828   0.00000  Uiso   1.00
N366   N     0.13048   0.07107   0.82658   0.00000  Uiso   1.00
N367   N     0.03712   0.84884   0.23284   0.00000  Uiso   1.00
N368   N     0.01925   0.21653   0.18586   0.00000  Uiso   1.00
C369   C     0.66377   0.79955   0.40664   0.00000  Uiso   1.00
C370   C     0.65089   0.80560   0.58385   0.00000  Uiso   1.00
C371   C     0.62780   0.81276   0.60051   0.00000  Uiso   1.00
C372   C     0.61926   0.81746   0.77452   0.00000  Uiso   1.00
C373   C     0.59712   0.82719   0.02661   0.00000  Uiso   1.00
C374   C     0.67662   0.74435   0.42023   0.00000  Uiso   1.00
C375   C     0.67516   0.70001   0.29930   0.00000  Uiso   1.00
C376   C     0.68827   0.65315   0.33556   0.00000  Uiso   1.00
C377   C     0.70609   0.56780   0.33355   0.00000  Uiso   1.00
C378   C     0.68154   0.84569   0.40730   0.00000  Uiso   1.00
C379   C     0.68423   0.88655   0.27547   0.00000  Uiso   1.00
C380   C     0.70149   0.92500   0.30082   0.00000  Uiso   1.00
C381   C     0.72695   0.99700   0.27873   0.00000  Uiso   1.00
C382   C     0.68965   0.79517   0.68603   0.00000  Uiso   1.00
C383   C     0.66495   0.80323   0.73561   0.00000  Uiso   1.00
C384   C     0.65643   0.80792   0.90964   0.00000  Uiso   1.00
C385   C     0.63334   0.81508   0.92655   0.00000  Uiso   1.00
C386   C     0.69067   0.74197   0.57198   0.00000  Uiso   1.00
C387   C     0.70379   0.69517   0.60842   0.00000  Uiso   1.00
C388   C     0.70236   0.65076   0.48759   0.00000  Uiso   1.00
C389   C     0.69560   0.84331   0.55906   0.00000  Uiso   1.00
C390   C     0.71286   0.88171   0.58460   0.00000  Uiso   1.00
C391   C     0.71557   0.92262   0.45285   0.00000  Uiso   1.00
H392   H     0.65283   0.80139   0.28849   0.00000  Uiso   1.00
H393   H     0.61693   0.81459   0.48304   0.00000  Uiso   1.00
H394   H     0.66428   0.70186   0.18187   0.00000  Uiso   1.00
H395   H     0.67335   0.88837   0.15806   0.00000  Uiso   1.00
H396   H     0.58333   0.82815   0.76566   0.00000  Uiso   1.00
H397   H     0.68318   0.59046   0.13059   0.00000  Uiso   1.00
H398   H     0.70229   0.98376   0.08037   0.00000  Uiso   1.00
H399   H     0.70059   0.79332   0.80419   0.00000  Uiso   1.00
H400   H     0.66732   0.80608   0.02705   0.00000  Uiso   1.00
H401   H     0.71467   0.69335   0.72587   0.00000  Uiso   1.00
H402   H     0.72373   0.87986   0.70206   0.00000  Uiso   1.00
H403   H     0.62422   0.82124   0.20720   0.00000  Uiso   1.00
H404   H     0.72408   0.58355   0.57212   0.00000  Uiso   1.00
H405   H     0.74319   0.97685   0.52191   0.00000  Uiso   1.00
O406   O     0.58102   0.83321   0.12373   0.00000  Uiso   1.00
O407   O     0.71203   0.52138   0.29052   0.00000  Uiso   1.00
O408   O     0.73710   0.03737   0.22464   0.00000  Uiso   1.00
N409   N     0.59752   0.82478   0.83899   0.00000  Uiso   1.00
N410   N     0.69087   0.60255   0.24525   0.00000  Uiso   1.00
N411   N     0.70875   0.97024   0.19828   0.00000  Uiso   1.00
N412   N     0.61952   0.82107   0.07658   0.00000  Uiso   1.00
N413   N     0.71288   0.59884   0.48284   0.00000  Uiso   1.00
N414   N     0.73075   0.96653   0.43586   0.00000  Uiso   1.00
C415   C     0.66377   0.29955   0.90664   0.00000  Uiso   1.00
C416   C     0.65089   0.30560   0.08385   0.00000  Uiso   1.00
C417   C     0.62780   0.31276   0.10051   0.00000  Uiso   1.00
C418   C     0.61926   0.31746   0.27452   0.00000  Uiso   1.00
C419   C     0.59712   0.32719   0.52661   0.00000  Uiso   1.00
C420   C     0.67662   0.24435   0.92023   0.00000  Uiso   1.00
C421   C     0.67516   0.20001   0.79930   0.00000  Uiso   1.00
C422   C     0.68827   0.15315   0.83556   0.00000  Uiso   1.00
C423   C     0.70609   0.06780   0.83355   0.00000  Uiso   1.00
C424   C     0.68154   0.34569   0.90730   0.00000  Uiso   1.00
C425   C     0.68423   0.38655   0.77547   0.00000  Uiso   1.00
C426   C     0.70149   0.42500   0.80082   0.00000  Uiso   1.00
C427   C     0.72695   0.49700   0.77873   0.00000  Uiso   1.00
C428   C     0.68965   0.29517   0.18603   0.00000  Uiso   1.00
C429   C     0.66495   0.30323   0.23561   0.00000  Uiso   1.00
C430   C     0.65643   0.30792   0.40964   0.00000  Uiso   1.00
C431   C     0.63334   0.31508   0.42655   0.00000  Uiso   1.00
C432   C     0.69067   0.24197   0.07198   0.00000  Uiso   1.00
C433   C     0.70379   0.19517   0.10842   0.00000  Uiso   1.00
C434   C     0.70236   0.15076   0.98759   0.00000  Uiso   1.00
C435   C     0.69560   0.34331   0.05906   0.00000  Uiso   1.00
C436   C     0.71286   0.38171   0.08460   0.00000  Uiso   1.00
C437   C     0.71557   0.42262   0.95285   0.00000  Uiso   1.00
H438   H     0.65283   0.30139   0.78849   0.00000  Uiso   1.00
H439   H     0.61693   0.31459   0.98304   0.00000  Uiso   1.00
H440   H     0.66428   0.20186   0.68187   0.00000  Uiso   1.00
H441   H     0.67335   0.38837   0.65806   0.00000  Uiso   1.00
H442   H     0.58333   0.32815   0.26566   0.00000  Uiso   1.00
H443   H     0.68318   0.09046   0.63059   0.00000  Uiso   1.00
H444   H     0.70229   0.48376   0.58037   0.00000  Uiso   1.00
H445   H     0.70059   0.29332   0.30419   0.00000  Uiso   1.00
H446   H     0.66732   0.30608   0.52705   0.00000  Uiso   1.00
H447   H     0.71467   0.19335   0.22587   0.00000  Uiso   1.00
H448   H     0.72373   0.37986   0.20206   0.00000  Uiso   1.00
H449   H     0.62422   0.32124   0.70720   0.00000  Uiso   1.00
H450   H     0.72408   0.08355   0.07212   0.00000  Uiso   1.00
H451   H     0.74319   0.47685   0.02191   0.00000  Uiso   1.00
O452   O     0.58102   0.33321   0.62373   0.00000  Uiso   1.00
O453   O     0.71203   0.02138   0.79052   0.00000  Uiso   1.00
O454   O     0.73710   0.53737   0.72464   0.00000  Uiso   1.00
N455   N     0.59752   0.32478   0.33899   0.00000  Uiso   1.00
N456   N     0.69087   0.10255   0.74525   0.00000  Uiso   1.00
N457   N     0.70875   0.47024   0.69828   0.00000  Uiso   1.00
N458   N     0.61952   0.32107   0.57658   0.00000  Uiso   1.00
N459   N     0.71288   0.09884   0.98284   0.00000  Uiso   1.00
N460   N     0.73075   0.46653   0.93586   0.00000  Uiso   1.00
C461   C     0.16377   0.79955   0.90664   0.00000  Uiso   1.00
C462   C     0.15089   0.80560   0.08385   0.00000  Uiso   1.00
C463   C     0.12780   0.81276   0.10051   0.00000  Uiso   1.00
C464   C     0.11926   0.81746   0.27452   0.00000  Uiso   1.00
C465   C     0.09712   0.82719   0.52661   0.00000  Uiso   1.00
C466   C     0.17662   0.74435   0.92023   0.00000  Uiso   1.00
C467   C     0.17516   0.70001   0.79930   0.00000  Uiso   1.00
C468   C     0.18827   0.65315   0.83556   0.00000  Uiso   1.00
C469   C     0.20609   0.56780   0.83355   0.00000  Uiso   1.00
C470   C     0.18154   0.84569   0.90730   0.00000  Uiso   1.00
C471   C     0.18423   0.88655   0.77547   0.00000  Uiso   1.00
C472   C     0.20149   0.92500   0.80082   0.00000  Uiso   1.00
C473   C     0.22695   0.99700   0.77873   0.00000  Uiso   1.00
C474   C     0.18965   0.79517   0.18603   0.00000  Uiso   1.00
C475   C     0.16495   0.80323   0.23561   0.00000  Uiso   1.00
C476   C     0.15643   0.80792   0.40964   0.00000  Uiso   1.00
C477   C     0.13334   0.81508   0.42655   0.00000  Uiso   1.00
C478   C     0.19067   0.74197   0.07198   0.00000  Uiso   1.00
C479   C     0.20379   0.69517   0.10842   0.00000  Uiso   1.00
C480   C     0.20236   0.65076   0.98759   0.00000  Uiso   1.00
C481   C     0.19560   0.84331   0.05906   0.00000  Uiso   1.00
C482   C     0.21286   0.88171   0.08460   0.00000  Uiso   1.00
C483   C     0.21557   0.92262   0.95285   0.00000  Uiso   1.00
H484   H     0.15283   0.80139   0.78849   0.00000  Uiso   1.00
H485   H     0.11693   0.81459   0.98304   0.00000  Uiso   1.00
H486   H     0.16428   0.70186   0.68187   0.00000  Uiso   1.00
H487   H     0.17335   0.88837   0.65806   0.00000  Uiso   1.00
H488   H     0.08333   0.82815   0.26566   0.00000  Uiso   1.00
H489   H     0.18318   0.59046   0.63059   0.00000  Uiso   1.00
H490   H     0.20229   0.98376   0.58037   0.00000  Uiso   1.00
H491   H     0.20059   0.79332   0.30419   0.00000  Uiso   1.00
H492   H     0.16732   0.80608   0.52705   0.00000  Uiso   1.00
H493   H     0.21467   0.69335   0.22587   0.00000  Uiso   1.00
H494   H     0.22373   0.87986   0.20206   0.00000  Uiso   1.00
H495   H     0.12422   0.82124   0.70720   0.00000  Uiso   1.00
H496   H     0.22408   0.58355   0.07212   0.00000  Uiso   1.00
H497   H     0.24319   0.97685   0.02191   0.00000  Uiso   1.00
O498   O     0.08102   0.83321   0.62373   0.00000  Uiso   1.00
O499   O     0.21203   0.52138   0.79052   0.00000  Uiso   1.00
O500   O     0.23710   0.03737   0.72464   0.00000  Uiso   1.00
N501   N     0.09752   0.82478   0.33899   0.00000  Uiso   1.00
N502   N     0.19087   0.60255   0.74525   0.00000  Uiso   1.00
N503   N     0.20875   0.97024   0.69828   0.00000  Uiso   1.00
N504   N     0.11952   0.82107   0.57658   0.00000  Uiso   1.00
N505   N     0.21288   0.59884   0.98284   0.00000  Uiso   1.00
N506   N     0.23075   0.96653   0.93586   0.00000  Uiso   1.00
C507   C     0.16377   0.29955   0.40664   0.00000  Uiso   1.00
C508   C     0.15089   0.30560   0.58385   0.00000  Uiso   1.00
C509   C     0.12780   0.31276   0.60051   0.00000  Uiso   1.00
C510   C     0.11926   0.31746   0.77452   0.00000  Uiso   1.00
C511   C     0.09712   0.32719   0.02661   0.00000  Uiso   1.00
C512   C     0.17662   0.24435   0.42023   0.00000  Uiso   1.00
C513   C     0.17516   0.20001   0.29930   0.00000  Uiso   1.00
C514   C     0.18827   0.15315   0.33556   0.00000  Uiso   1.00
C515   C     0.20609   0.06780   0.33355   0.00000  Uiso   1.00
C516   C     0.18154   0.34569   0.40730   0.00000  Uiso   1.00
C517   C     0.18423   0.38655   0.27547   0.00000  Uiso   1.00
C518   C     0.20149   0.42500   0.30082   0.00000  Uiso   1.00
C519   C     0.22695   0.49700   0.27873   0.00000  Uiso   1.00
C520   C     0.18965   0.29517   0.68603   0.00000  Uiso   1.00
C521   C     0.16495   0.30323   0.73561   0.00000  Uiso   1.00
C522   C     0.15643   0.30792   0.90964   0.00000  Uiso   1.00
C523   C     0.13334   0.31508   0.92655   0.00000  Uiso   1.00
C524   C     0.19067   0.24197   0.57198   0.00000  Uiso   1.00
C525   C     0.20379   0.19517   0.60842   0.00000  Uiso   1.00
C526   C     0.20236   0.15076   0.48759   0.00000  Uiso   1.00
C527   C     0.19560   0.34331   0.55906   0.00000  Uiso   1.00
C528   C     0.21286   0.38171   0.58460   0.00000  Uiso   1.00
C529   C     0.21557   0.42262   0.45285   0.00000  Uiso   1.00
H530   H     0.15283   0.30139   0.28849   0.00000  Uiso   1.00
H531   H     0.11693   0.31459   0.48304   0.00000  Uiso   1.00
H532   H     0.16428   0.20186   0.18187   0.00000  Uiso   1.00
H533   H     0.17335   0.38837   0.15806   0.00000  Uiso   1.00
H534   H     0.08333   0.32815   0.76566   0.00000  Uiso   1.00
H535   H     0.18318   0.09046   0.13059   0.00000  Uiso   1.00
H536   H     0.20229   0.48376   0.08037   0.00000  Uiso   1.00
H537   H     0.20059   0.29332   0.80419   0.00000  Uiso   1.00
H538   H     0.16732   0.30608   0.02705   0.00000  Uiso   1.00
H539   H     0.21467   0.19335   0.72587   0.00000  Uiso   1.00
H540   H     0.22373   0.37986   0.70206   0.00000  Uiso   1.00
H541   H     0.12422   0.32124   0.20720   0.00000  Uiso   1.00
H542   H     0.22408   0.08355   0.57212   0.00000  Uiso   1.00
H543   H     0.24319   0.47685   0.52191   0.00000  Uiso   1.00
O544   O     0.08102   0.33321   0.12373   0.00000  Uiso   1.00
O545   O     0.21203   0.02138   0.29052   0.00000  Uiso   1.00
O546   O     0.23710   0.53737   0.22464   0.00000  Uiso   1.00
N547   N     0.09752   0.32478   0.83899   0.00000  Uiso   1.00
N548   N     0.19087   0.10255   0.24525   0.00000  Uiso   1.00
N549   N     0.20875   0.47024   0.19828   0.00000  Uiso   1.00
N550   N     0.11952   0.32107   0.07658   0.00000  Uiso   1.00
N551   N     0.21288   0.09884   0.48284   0.00000  Uiso   1.00
N552   N     0.23075   0.46653   0.43586   0.00000  Uiso   1.00
C553   C     0.83623   0.70045   0.40664   0.00000  Uiso   1.00
C554   C     0.84911   0.69440   0.58385   0.00000  Uiso   1.00
C555   C     0.87220   0.68724   0.60051   0.00000  Uiso   1.00
C556   C     0.88074   0.68254   0.77452   0.00000  Uiso   1.00
C557   C     0.90288   0.67281   0.02661   0.00000  Uiso   1.00
C558   C     0.82338   0.75565   0.42023   0.00000  Uiso   1.00
C559   C     0.82484   0.79999   0.29930   0.00000  Uiso   1.00
C560   C     0.81173   0.84685   0.33556   0.00000  Uiso   1.00
C561   C     0.79391   0.93220   0.33355   0.00000  Uiso   1.00
C562   C     0.81846   0.65431   0.40730   0.00000  Uiso   1.00
C563   C     0.81577   0.61345   0.27547   0.00000  Uiso   1.00
C564   C     0.79851   0.57500   0.30082   0.00000  Uiso   1.00
C565   C     0.77305   0.50300   0.27873   0.00000  Uiso   1.00
C566   C     0.81035   0.70483   0.68603   0.00000  Uiso   1.00
C567   C     0.83505   0.69677   0.73561   0.00000  Uiso   1.00
C568   C     0.84357   0.69208   0.90964   0.00000  Uiso   1.00
C569   C     0.86666   0.68492   0.92655   0.00000  Uiso   1.00
C570   C     0.80933   0.75803   0.57198   0.00000  Uiso   1.00
C571   C     0.79621   0.80483   0.60842   0.00000  Uiso   1.00
C572   C     0.79764   0.84924   0.48759   0.00000  Uiso   1.00
C573   C     0.80440   0.65669   0.55906   0.00000  Uiso   1.00
C574   C     0.78714   0.61829   0.58460   0.00000  Uiso   1.00
C575   C     0.78443   0.57738   0.45285   0.00000  Uiso   1.00
H576   H     0.84717   0.69861   0.28849   0.00000  Uiso   1.00
H577   H     0.88307   0.68541   0.48304   0.00000  Uiso   1.00
H578   H     0.83572   0.79814   0.18187   0.00000  Uiso   1.00
H579   H     0.82665   0.61163   0.15806   0.00000  Uiso   1.00
H580   H     0.91667   0.67185   0.76566   0.00000  Uiso   1.00
H581   H     0.81682   0.90954   0.13059   0.00000  Uiso   1.00
H582   H     0.79771   0.51624   0.08037   0.00000  Uiso   1.00
H583   H     0.79941   0.70668   0.80419   0.00000  Uiso   1.00
H584   H     0.83268   0.69392   0.02705   0.00000  Uiso   1.00
H585   H     0.78533   0.80665   0.72587   0.00000  Uiso   1.00
H586   H     0.77627   0.62014   0.70206   0.00000  Uiso   1.00
H587   H     0.87578   0.67876   0.20720   0.00000  Uiso   1.00
H588   H     0.77592   0.91645   0.57212   0.00000  Uiso   1.00
H589   H     0.75681   0.52315   0.52191   0.00000  Uiso   1.00
O590   O     0.91898   0.66679   0.12373   0.00000  Uiso   1.00
O591   O     0.78797   0.97862   0.29052   0.00000  Uiso   1.00
O592   O     0.76290   0.46263   0.22464   0.00000  Uiso   1.00
N593   N     0.90248   0.67522   0.83899   0.00000  Uiso   1.00
N594   N     0.80913   0.89745   0.24525   0.00000  Uiso   1.00
N595   N     0.79125   0.52976   0.19828   0.00000  Uiso   1.00
N596   N     0.88048   0.67893   0.07658   0.00000  Uiso   1.00
N597   N     0.78712   0.90116   0.48284   0.00000  Uiso   1.00
N598   N     0.76925   0.53347   0.43586   0.00000  Uiso   1.00
C599   C     0.83623   0.20045   0.90664   0.00000  Uiso   1.00
C600   C     0.84911   0.19440   0.08385   0.00000  Uiso   1.00
C601   C     0.87220   0.18724   0.10051   0.00000  Uiso   1.00
C602   C     0.88074   0.18254   0.27452   0.00000  Uiso   1.00
C603   C     0.90288   0.17281   0.52661   0.00000  Uiso   1.00
C604   C     0.82338   0.25565   0.92023   0.00000  Uiso   1.00
C605   C     0.82484   0.29999   0.79930   0.00000  Uiso   1.00
C606   C     0.81173   0.34685   0.83556   0.00000  Uiso   1.00
C607   C     0.79391   0.43220   0.83355   0.00000  Uiso   1.00
C608   C     0.81846   0.15431   0.90730   0.00000  Uiso   1.00
C609   C     0.81577   0.11345   0.77547   0.00000  Uiso   1.00
C610   C     0.79851   0.07500   0.80082   0.00000  Uiso   1.00
C611   C     0.77305   0.00300   0.77873   0.00000  Uiso   1.00
C612   C     0.81035   0.20483   0.18603   0.00000  Uiso   1.00
C613   C     0.83505   0.19677   0.23561   0.00000  Uiso   1.00
C614   C     0.84357   0.19208   0.40964   0.00000  Uiso   1.00
C615   C     0.86666   0.18492   0.42655   0.00000  Uiso   1.00
C616   C     0.80933   0.25803   0.07198   0.00000  Uiso   1.00
C617   C     0.79621   0.30483   0.10842   0.00000  Uiso   1.00
C618   C     0.79764   0.34924   0.98759   0.00000  Uiso   1.00
C619   C     0.80440   0.15669   0.05906   0.00000  Uiso   1.00
C620   C     0.78714   0.11829   0.08460   0.00000  Uiso   1.00
C621   C     0.78443   0.07738   0.95285   0.00000  Uiso   1.00
H622   H     0.84717   0.19861   0.78849   0.00000  Uiso   1.00
H623   H     0.88307   0.18541   0.98304   0.00000  Uiso   1.00
H624   H     0.83572   0.29814   0.68187   0.00000  Uiso   1.00
H625   H     0.82665   0.11163   0.65806   0.00000  Uiso   1.00
H626   H     0.91667   0.17185   0.26566   0.00000  Uiso   1.00
H627   H     0.81682   0.40954   0.63059   0.00000  Uiso   1.00
H628   H     0.79771   0.01624   0.58037   0.00000  Uiso   1.00
H629   H     0.79941   0.20668   0.30419   0.00000  Uiso   1.00
H630   H     0.83268   0.19392   0.52705   0.00000  Uiso   1.00
H631   H     0.78533   0.30665   0.22587   0.00000  Uiso   1.00
H632   H     0.77627   0.12014   0.20206   0.00000  Uiso   1.00
H633   H     0.87578   0.17876   0.70720   0.00000  Uiso   1.00
H634   H     0.77592   0.41645   0.07212   0.00000  Uiso   1.00
H635   H     0.75681   0.02315   0.02191   0.00000  Uiso   1.00
O636   O     0.91898   0.16679   0.62373   0.00000  Uiso   1.00
O637   O     0.78797   0.47862   0.79052   0.00000  Uiso   1.00
O638   O     0.76290   0.96263   0.72464   0.00000  Uiso   1.00
N639   N     0.90248   0.17522   0.33899   0.00000  Uiso   1.00
N640   N     0.80913   0.39745   0.74525   0.00000  Uiso   1.00
N641   N     0.79125   0.02976   0.69828   0.00000  Uiso   1.00
N642   N     0.88048   0.17893   0.57658   0.00000  Uiso   1.00
N643   N     0.78712   0.40116   0.98284   0.00000  Uiso   1.00
N644   N     0.76925   0.03347   0.93586   0.00000  Uiso   1.00
C645   C     0.33623   0.70045   0.90664   0.00000  Uiso   1.00
C646   C     0.34911   0.69440   0.08385   0.00000  Uiso   1.00
C647   C     0.37220   0.68724   0.10051   0.00000  Uiso   1.00
C648   C     0.38074   0.68254   0.27452   0.00000  Uiso   1.00
C649   C     0.40288   0.67281   0.52661   0.00000  Uiso   1.00
C650   C     0.32338   0.75565   0.92023   0.00000  Uiso   1.00
C651   C     0.32484   0.79999   0.79930   0.00000  Uiso   1.00
C652   C     0.31173   0.84685   0.83556   0.00000  Uiso   1.00
C653   C     0.29391   0.93220   0.83355   0.00000  Uiso   1.00
C654   C     0.31846   0.65431   0.90730   0.00000  Uiso   1.00
C655   C     0.31577   0.61345   0.77547   0.00000  Uiso   1.00
C656   C     0.29851   0.57500   0.80082   0.00000  Uiso   1.00
C657   C     0.27305   0.50300   0.77873   0.00000  Uiso   1.00
C658   C     0.31035   0.70483   0.18603   0.00000  Uiso   1.00
C659   C     0.33505   0.69677   0.23561   0.00000  Uiso   1.00
C660   C     0.34357   0.69208   0.40964   0.00000  Uiso   1.00
C661   C     0.36666   0.68492   0.42655   0.00000  Uiso   1.00
C662   C     0.30933   0.75803   0.07198   0.00000  Uiso   1.00
C663   C     0.29621   0.80483   0.10842   0.00000  Uiso   1.00
C664   C     0.29764   0.84924   0.98759   0.00000  Uiso   1.00
C665   C     0.30440   0.65669   0.05906   0.00000  Uiso   1.00
C666   C     0.28714   0.61829   0.08460   0.00000  Uiso   1.00
C667   C     0.28443   0.57738   0.95285   0.00000  Uiso   1.00
H668   H     0.34717   0.69861   0.78849   0.00000  Uiso   1.00
H669   H     0.38307   0.68541   0.98304   0.00000  Uiso   1.00
H670   H     0.33572   0.79814   0.68187   0.00000  Uiso   1.00
H671   H     0.32665   0.61163   0.65806   0.00000  Uiso   1.00
H672   H     0.41667   0.67185   0.26566   0.00000  Uiso   1.00
H673   H     0.31682   0.90954   0.63059   0.00000  Uiso   1.00
H674   H     0.29771   0.51624   0.58037   0.00000  Uiso   1.00
H675   H     0.29941   0.70668   0.30419   0.00000  Uiso   1.00
H676   H     0.33268   0.69392   0.52705   0.00000  Uiso   1.00
H677   H     0.28533   0.80665   0.22587   0.00000  Uiso   1.00
H678   H     0.27627   0.62014   0.20206   0.00000  Uiso   1.00
H679   H     0.37578   0.67876   0.70720   0.00000  Uiso   1.00
H680   H     0.27592   0.91645   0.07212   0.00000  Uiso   1.00
H681   H     0.25681   0.52315   0.02191   0.00000  Uiso   1.00
O682   O     0.41898   0.66679   0.62373   0.00000  Uiso   1.00
O683   O     0.28797   0.97862   0.79052   0.00000  Uiso   1.00
O684   O     0.26290   0.46263   0.72464   0.00000  Uiso   1.00
N685   N     0.40248   0.67522   0.33899   0.00000  Uiso   1.00
N686   N     0.30913   0.89745   0.74525   0.00000  Uiso   1.00
N687   N     0.29125   0.52976   0.69828   0.00000  Uiso   1.00
N688   N     0.38048   0.67893   0.57658   0.00000  Uiso   1.00
N689   N     0.28712   0.90116   0.98284   0.00000  Uiso   1.00
N690   N     0.26925   0.53347   0.93586   0.00000  Uiso   1.00
C691   C     0.33623   0.20045   0.40664   0.00000  Uiso   1.00
C692   C     0.34911   0.19440   0.58385   0.00000  Uiso   1.00
C693   C     0.37220   0.18724   0.60051   0.00000  Uiso   1.00
C694   C     0.38074   0.18254   0.77452   0.00000  Uiso   1.00
C695   C     0.40288   0.17281   0.02661   0.00000  Uiso   1.00
C696   C     0.32338   0.25565   0.42023   0.00000  Uiso   1.00
C697   C     0.32484   0.29999   0.29930   0.00000  Uiso   1.00
C698   C     0.31173   0.34685   0.33556   0.00000  Uiso   1.00
C699   C     0.29391   0.43220   0.33355   0.00000  Uiso   1.00
C700   C     0.31846   0.15431   0.40730   0.00000  Uiso   1.00
C701   C     0.31577   0.11345   0.27547   0.00000  Uiso   1.00
C702   C     0.29851   0.07500   0.30082   0.00000  Uiso   1.00
C703   C     0.27305   0.00300   0.27873   0.00000  Uiso   1.00
C704   C     0.31035   0.20483   0.68603   0.00000  Uiso   1.00
C705   C     0.33505   0.19677   0.73561   0.00000  Uiso   1.00
C706   C     0.34357   0.19208   0.90964   0.00000  Uiso   1.00
C707   C     0.36666   0.18492   0.92655   0.00000  Uiso   1.00
C708   C     0.30933   0.25803   0.57198   0.00000  Uiso   1.00
C709   C     0.29621   0.30483   0.60842   0.00000  Uiso   1.00
C710   C     0.29764   0.34924   0.48759   0.00000  Uiso   1.00
C711   C     0.30440   0.15669   0.55906   0.00000  Uiso   1.00
C712   C     0.28714   0.11829   0.58460   0.00000  Uiso   1.00
C713   C     0.28443   0.07738   0.45285   0.00000  Uiso   1.00
H714   H     0.34717   0.19861   0.28849   0.00000  Uiso   1.00
H715   H     0.38307   0.18541   0.48304   0.00000  Uiso   1.00
H716   H     0.33572   0.29814   0.18187   0.00000  Uiso   1.00
H717   H     0.32665   0.11163   0.15806   0.00000  Uiso   1.00
H718   H     0.41667   0.17185   0.76566   0.00000  Uiso   1.00
H719   H     0.31682   0.40954   0.13059   0.00000  Uiso   1.00
H720   H     0.29771   0.01624   0.08037   0.00000  Uiso   1.00
H721   H     0.29941   0.20668   0.80419   0.00000  Uiso   1.00
H722   H     0.33268   0.19392   0.02705   0.00000  Uiso   1.00
H723   H     0.28533   0.30665   0.72587   0.00000  Uiso   1.00
H724   H     0.27627   0.12014   0.70206   0.00000  Uiso   1.00
H725   H     0.37578   0.17876   0.20720   0.00000  Uiso   1.00
H726   H     0.27592   0.41645   0.57212   0.00000  Uiso   1.00
H727   H     0.25681   0.02315   0.52191   0.00000  Uiso   1.00
O728   O     0.41898   0.16679   0.12373   0.00000  Uiso   1.00
O729   O     0.28797   0.47862   0.29052   0.00000  Uiso   1.00
O730   O     0.26290   0.96263   0.22464   0.00000  Uiso   1.00
N731   N     0.40248   0.17522   0.83899   0.00000  Uiso   1.00
N732   N     0.30913   0.39745   0.24525   0.00000  Uiso   1.00
N733   N     0.29125   0.02976   0.19828   0.00000  Uiso   1.00
N734   N     0.38048   0.17893   0.07658   0.00000  Uiso   1.00
N735   N     0.28712   0.40116   0.48284   0.00000  Uiso   1.00
N736   N     0.26925   0.03347   0.43586   0.00000  Uiso   1.00
