data_job_03257
_audit_creation_date              2018-12-19
_audit_creation_method            'Materials Studio'
_symmetry_space_group_name_H-M    'P1'
_symmetry_Int_Tables_number       1
_symmetry_cell_setting            triclinic
loop_
_symmetry_equiv_pos_as_xyz
  x,y,z
_cell_length_a                    41.4057
_cell_length_b                    24.8886
_cell_length_c                    10.4478
_cell_angle_alpha                 90.0000
_cell_angle_beta                  90.0000
_cell_angle_gamma                 90.0000
loop_
_atom_site_label
_atom_site_type_symbol
_atom_site_fract_x
_atom_site_fract_y
_atom_site_fract_z
_atom_site_U_iso_or_equiv
_atom_site_adp_type
_atom_site_occupancy
C1     C     0.42968   0.13919   0.44850   0.00000  Uiso   1.00
C2     C     0.40619   0.11653   0.54710   0.00000  Uiso   1.00
C3     C     0.37557   0.13638   0.57323   0.00000  Uiso   1.00
C4     C     0.35783   0.11002   0.66691   0.00000  Uiso   1.00
C5     C     0.31946   0.08164   0.81015   0.00000  Uiso   1.00
C6     C     0.46063   0.15204   0.52141   0.00000  Uiso   1.00
C7     C     0.47579   0.20173   0.52592   0.00000  Uiso   1.00
C8     C     0.50389   0.20526   0.59795   0.00000  Uiso   1.00
C9     C     0.55007   0.23200   0.70124   0.00000  Uiso   1.00
C10    C     0.43794   0.09273   0.35916   0.00000  Uiso   1.00
C11    C     0.43404   0.09257   0.22723   0.00000  Uiso   1.00
C12    C     0.44304   0.04617   0.16265   0.00000  Uiso   1.00
C13    C     0.45398   0.98082   0.01400   0.00000  Uiso   1.00
C14    C     0.45263   0.05708   0.56840   0.00000  Uiso   1.00
C15    C     0.41865   0.07194   0.61223   0.00000  Uiso   1.00
C16    C     0.40096   0.04554   0.70588   0.00000  Uiso   1.00
C17    C     0.37032   0.06534   0.73214   0.00000  Uiso   1.00
C18    C     0.47310   0.10744   0.58653   0.00000  Uiso   1.00
C19    C     0.50118   0.11090   0.65857   0.00000  Uiso   1.00
C20    C     0.51638   0.16059   0.66320   0.00000  Uiso   1.00
C21    C     0.45041   0.04814   0.42428   0.00000  Uiso   1.00
C22    C     0.45942   0.00173   0.35989   0.00000  Uiso   1.00
C23    C     0.45553   0.00149   0.22789   0.00000  Uiso   1.00
H24    H     0.41998   0.17391   0.39780   0.00000  Uiso   1.00
H25    H     0.36593   0.17089   0.52282   0.00000  Uiso   1.00
H26    H     0.46614   0.23624   0.47550   0.00000  Uiso   1.00
H27    H     0.42439   0.12708   0.17687   0.00000  Uiso   1.00
H28    H     0.31151   0.14789   0.69018   0.00000  Uiso   1.00
H29    H     0.52282   0.28567   0.59038   0.00000  Uiso   1.00
H30    H     0.43477   0.05551   0.96064   0.00000  Uiso   1.00
H31    H     0.46233   0.02236   0.61910   0.00000  Uiso   1.00
H32    H     0.41061   0.01103   0.75626   0.00000  Uiso   1.00
H33    H     0.51082   0.07638   0.70895   0.00000  Uiso   1.00
H34    H     0.46907   0.96723   0.41031   0.00000  Uiso   1.00
H35    H     0.34778   0.01815   0.87966   0.00000  Uiso   1.00
H36    H     0.55909   0.15593   0.77985   0.00000  Uiso   1.00
H37    H     0.47104   0.92576   0.15011   0.00000  Uiso   1.00
O38    O     0.29486   0.07831   0.87119   0.00000  Uiso   1.00
O39    O     0.57209   0.25907   0.74022   0.00000  Uiso   1.00
O40    O     0.45657   0.95710   0.91403   0.00000  Uiso   1.00
N41    N     0.32714   0.11891   0.71593   0.00000  Uiso   1.00
N42    N     0.52470   0.24772   0.62264   0.00000  Uiso   1.00
N43    N     0.44239   0.03254   0.03388   0.00000  Uiso   1.00
N44    N     0.34666   0.04909   0.81789   0.00000  Uiso   1.00
N45    N     0.54422   0.17791   0.72459   0.00000  Uiso   1.00
N46    N     0.46191   0.96273   0.13583   0.00000  Uiso   1.00
C47    C     0.42968   0.63919   0.94850   0.00000  Uiso   1.00
C48    C     0.40619   0.61653   0.04710   0.00000  Uiso   1.00
C49    C     0.37557   0.63638   0.07323   0.00000  Uiso   1.00
C50    C     0.35783   0.61002   0.16691   0.00000  Uiso   1.00
C51    C     0.31946   0.58164   0.31015   0.00000  Uiso   1.00
C52    C     0.46063   0.65204   0.02141   0.00000  Uiso   1.00
C53    C     0.47579   0.70173   0.02592   0.00000  Uiso   1.00
C54    C     0.50389   0.70526   0.09795   0.00000  Uiso   1.00
C55    C     0.55007   0.73200   0.20124   0.00000  Uiso   1.00
C56    C     0.43794   0.59273   0.85916   0.00000  Uiso   1.00
C57    C     0.43404   0.59257   0.72723   0.00000  Uiso   1.00
C58    C     0.44304   0.54617   0.66265   0.00000  Uiso   1.00
C59    C     0.45398   0.48082   0.51400   0.00000  Uiso   1.00
C60    C     0.45263   0.55708   0.06840   0.00000  Uiso   1.00
C61    C     0.41865   0.57194   0.11223   0.00000  Uiso   1.00
C62    C     0.40096   0.54554   0.20588   0.00000  Uiso   1.00
C63    C     0.37032   0.56534   0.23214   0.00000  Uiso   1.00
C64    C     0.47310   0.60744   0.08653   0.00000  Uiso   1.00
C65    C     0.50118   0.61090   0.15857   0.00000  Uiso   1.00
C66    C     0.51638   0.66059   0.16320   0.00000  Uiso   1.00
C67    C     0.45041   0.54814   0.92428   0.00000  Uiso   1.00
C68    C     0.45942   0.50173   0.85989   0.00000  Uiso   1.00
C69    C     0.45553   0.50149   0.72789   0.00000  Uiso   1.00
H70    H     0.41998   0.67391   0.89780   0.00000  Uiso   1.00
H71    H     0.36593   0.67089   0.02282   0.00000  Uiso   1.00
H72    H     0.46614   0.73624   0.97550   0.00000  Uiso   1.00
H73    H     0.42439   0.62708   0.67687   0.00000  Uiso   1.00
H74    H     0.31151   0.64789   0.19018   0.00000  Uiso   1.00
H75    H     0.52282   0.78567   0.09038   0.00000  Uiso   1.00
H76    H     0.43477   0.55551   0.46064   0.00000  Uiso   1.00
H77    H     0.46233   0.52236   0.11910   0.00000  Uiso   1.00
H78    H     0.41061   0.51103   0.25626   0.00000  Uiso   1.00
H79    H     0.51082   0.57638   0.20895   0.00000  Uiso   1.00
H80    H     0.46907   0.46723   0.91031   0.00000  Uiso   1.00
H81    H     0.34778   0.51815   0.37966   0.00000  Uiso   1.00
H82    H     0.55909   0.65593   0.27985   0.00000  Uiso   1.00
H83    H     0.47104   0.42576   0.65011   0.00000  Uiso   1.00
O84    O     0.29486   0.57831   0.37119   0.00000  Uiso   1.00
O85    O     0.57209   0.75907   0.24022   0.00000  Uiso   1.00
O86    O     0.45657   0.45710   0.41403   0.00000  Uiso   1.00
N87    N     0.32714   0.61891   0.21593   0.00000  Uiso   1.00
N88    N     0.52470   0.74772   0.12264   0.00000  Uiso   1.00
N89    N     0.44239   0.53254   0.53388   0.00000  Uiso   1.00
N90    N     0.34666   0.54909   0.31789   0.00000  Uiso   1.00
N91    N     0.54422   0.67791   0.22459   0.00000  Uiso   1.00
N92    N     0.46191   0.46273   0.63583   0.00000  Uiso   1.00
C93    C     0.92968   0.13919   0.94850   0.00000  Uiso   1.00
C94    C     0.90619   0.11653   0.04710   0.00000  Uiso   1.00
C95    C     0.87557   0.13638   0.07323   0.00000  Uiso   1.00
C96    C     0.85783   0.11002   0.16691   0.00000  Uiso   1.00
C97    C     0.81946   0.08164   0.31015   0.00000  Uiso   1.00
C98    C     0.96063   0.15204   0.02141   0.00000  Uiso   1.00
C99    C     0.97579   0.20173   0.02592   0.00000  Uiso   1.00
C100   C     0.00389   0.20526   0.09795   0.00000  Uiso   1.00
C101   C     0.05007   0.23200   0.20124   0.00000  Uiso   1.00
C102   C     0.93794   0.09273   0.85916   0.00000  Uiso   1.00
C103   C     0.93404   0.09257   0.72723   0.00000  Uiso   1.00
C104   C     0.94304   0.04617   0.66265   0.00000  Uiso   1.00
C105   C     0.95398   0.98082   0.51400   0.00000  Uiso   1.00
C106   C     0.95263   0.05708   0.06840   0.00000  Uiso   1.00
C107   C     0.91865   0.07194   0.11223   0.00000  Uiso   1.00
C108   C     0.90096   0.04554   0.20588   0.00000  Uiso   1.00
C109   C     0.87032   0.06534   0.23214   0.00000  Uiso   1.00
C110   C     0.97310   0.10744   0.08653   0.00000  Uiso   1.00
C111   C     0.00118   0.11090   0.15857   0.00000  Uiso   1.00
C112   C     0.01638   0.16059   0.16320   0.00000  Uiso   1.00
C113   C     0.95041   0.04814   0.92428   0.00000  Uiso   1.00
C114   C     0.95942   0.00173   0.85989   0.00000  Uiso   1.00
C115   C     0.95553   0.00149   0.72789   0.00000  Uiso   1.00
H116   H     0.91998   0.17391   0.89780   0.00000  Uiso   1.00
H117   H     0.86593   0.17089   0.02282   0.00000  Uiso   1.00
H118   H     0.96614   0.23624   0.97550   0.00000  Uiso   1.00
H119   H     0.92439   0.12708   0.67687   0.00000  Uiso   1.00
H120   H     0.81151   0.14789   0.19018   0.00000  Uiso   1.00
H121   H     0.02282   0.28567   0.09038   0.00000  Uiso   1.00
H122   H     0.93477   0.05551   0.46064   0.00000  Uiso   1.00
H123   H     0.96233   0.02236   0.11910   0.00000  Uiso   1.00
H124   H     0.91061   0.01103   0.25626   0.00000  Uiso   1.00
H125   H     0.01082   0.07638   0.20895   0.00000  Uiso   1.00
H126   H     0.96907   0.96723   0.91031   0.00000  Uiso   1.00
H127   H     0.84778   0.01815   0.37966   0.00000  Uiso   1.00
H128   H     0.05909   0.15593   0.27985   0.00000  Uiso   1.00
H129   H     0.97104   0.92576   0.65011   0.00000  Uiso   1.00
O130   O     0.79486   0.07831   0.37119   0.00000  Uiso   1.00
O131   O     0.07209   0.25907   0.24022   0.00000  Uiso   1.00
O132   O     0.95657   0.95710   0.41403   0.00000  Uiso   1.00
N133   N     0.82714   0.11891   0.21593   0.00000  Uiso   1.00
N134   N     0.02470   0.24772   0.12264   0.00000  Uiso   1.00
N135   N     0.94239   0.03254   0.53388   0.00000  Uiso   1.00
N136   N     0.84666   0.04909   0.31789   0.00000  Uiso   1.00
N137   N     0.04422   0.17791   0.22459   0.00000  Uiso   1.00
N138   N     0.96191   0.96273   0.63583   0.00000  Uiso   1.00
C139   C     0.92968   0.63919   0.44850   0.00000  Uiso   1.00
C140   C     0.90619   0.61653   0.54710   0.00000  Uiso   1.00
C141   C     0.87557   0.63638   0.57323   0.00000  Uiso   1.00
C142   C     0.85783   0.61002   0.66691   0.00000  Uiso   1.00
C143   C     0.81946   0.58164   0.81015   0.00000  Uiso   1.00
C144   C     0.96063   0.65204   0.52141   0.00000  Uiso   1.00
C145   C     0.97579   0.70173   0.52592   0.00000  Uiso   1.00
C146   C     0.00389   0.70526   0.59795   0.00000  Uiso   1.00
C147   C     0.05007   0.73200   0.70124   0.00000  Uiso   1.00
C148   C     0.93794   0.59273   0.35916   0.00000  Uiso   1.00
C149   C     0.93404   0.59257   0.22723   0.00000  Uiso   1.00
C150   C     0.94304   0.54617   0.16265   0.00000  Uiso   1.00
C151   C     0.95398   0.48082   0.01400   0.00000  Uiso   1.00
C152   C     0.95263   0.55708   0.56840   0.00000  Uiso   1.00
C153   C     0.91865   0.57194   0.61223   0.00000  Uiso   1.00
C154   C     0.90096   0.54554   0.70588   0.00000  Uiso   1.00
C155   C     0.87032   0.56534   0.73214   0.00000  Uiso   1.00
C156   C     0.97310   0.60744   0.58653   0.00000  Uiso   1.00
C157   C     0.00118   0.61090   0.65857   0.00000  Uiso   1.00
C158   C     0.01638   0.66059   0.66320   0.00000  Uiso   1.00
C159   C     0.95041   0.54814   0.42428   0.00000  Uiso   1.00
C160   C     0.95942   0.50173   0.35989   0.00000  Uiso   1.00
C161   C     0.95553   0.50149   0.22789   0.00000  Uiso   1.00
H162   H     0.91998   0.67391   0.39780   0.00000  Uiso   1.00
H163   H     0.86593   0.67089   0.52282   0.00000  Uiso   1.00
H164   H     0.96614   0.73624   0.47550   0.00000  Uiso   1.00
H165   H     0.92439   0.62708   0.17687   0.00000  Uiso   1.00
H166   H     0.81151   0.64789   0.69018   0.00000  Uiso   1.00
H167   H     0.02282   0.78567   0.59038   0.00000  Uiso   1.00
H168   H     0.93477   0.55551   0.96064   0.00000  Uiso   1.00
H169   H     0.96233   0.52236   0.61910   0.00000  Uiso   1.00
H170   H     0.91061   0.51103   0.75626   0.00000  Uiso   1.00
H171   H     0.01082   0.57638   0.70895   0.00000  Uiso   1.00
H172   H     0.96907   0.46723   0.41031   0.00000  Uiso   1.00
H173   H     0.84778   0.51815   0.87966   0.00000  Uiso   1.00
H174   H     0.05909   0.65593   0.77985   0.00000  Uiso   1.00
H175   H     0.97104   0.42576   0.15011   0.00000  Uiso   1.00
O176   O     0.79486   0.57831   0.87119   0.00000  Uiso   1.00
O177   O     0.07209   0.75907   0.74022   0.00000  Uiso   1.00
O178   O     0.95657   0.45710   0.91403   0.00000  Uiso   1.00
N179   N     0.82714   0.61891   0.71593   0.00000  Uiso   1.00
N180   N     0.02470   0.74772   0.62264   0.00000  Uiso   1.00
N181   N     0.94239   0.53254   0.03388   0.00000  Uiso   1.00
N182   N     0.84666   0.54909   0.81789   0.00000  Uiso   1.00
N183   N     0.04422   0.67791   0.72459   0.00000  Uiso   1.00
N184   N     0.96191   0.46273   0.13583   0.00000  Uiso   1.00
C185   C     0.57032   0.86081   0.44850   0.00000  Uiso   1.00
C186   C     0.59381   0.88347   0.54710   0.00000  Uiso   1.00
C187   C     0.62443   0.86362   0.57323   0.00000  Uiso   1.00
C188   C     0.64217   0.88998   0.66691   0.00000  Uiso   1.00
C189   C     0.68054   0.91836   0.81015   0.00000  Uiso   1.00
C190   C     0.53937   0.84796   0.52141   0.00000  Uiso   1.00
C191   C     0.52421   0.79827   0.52592   0.00000  Uiso   1.00
C192   C     0.49611   0.79474   0.59795   0.00000  Uiso   1.00
C193   C     0.44993   0.76800   0.70124   0.00000  Uiso   1.00
C194   C     0.56206   0.90727   0.35916   0.00000  Uiso   1.00
C195   C     0.56596   0.90743   0.22723   0.00000  Uiso   1.00
C196   C     0.55696   0.95383   0.16265   0.00000  Uiso   1.00
C197   C     0.54602   0.01918   0.01400   0.00000  Uiso   1.00
C198   C     0.54737   0.94292   0.56840   0.00000  Uiso   1.00
C199   C     0.58135   0.92806   0.61223   0.00000  Uiso   1.00
C200   C     0.59904   0.95446   0.70588   0.00000  Uiso   1.00
C201   C     0.62968   0.93466   0.73214   0.00000  Uiso   1.00
C202   C     0.52690   0.89256   0.58653   0.00000  Uiso   1.00
C203   C     0.49882   0.88910   0.65857   0.00000  Uiso   1.00
C204   C     0.48362   0.83941   0.66320   0.00000  Uiso   1.00
C205   C     0.54959   0.95186   0.42428   0.00000  Uiso   1.00
C206   C     0.54058   0.99827   0.35989   0.00000  Uiso   1.00
C207   C     0.54447   0.99851   0.22789   0.00000  Uiso   1.00
H208   H     0.58002   0.82609   0.39780   0.00000  Uiso   1.00
H209   H     0.63407   0.82911   0.52282   0.00000  Uiso   1.00
H210   H     0.53386   0.76376   0.47550   0.00000  Uiso   1.00
H211   H     0.57561   0.87292   0.17687   0.00000  Uiso   1.00
H212   H     0.68849   0.85211   0.69018   0.00000  Uiso   1.00
H213   H     0.47718   0.71433   0.59038   0.00000  Uiso   1.00
H214   H     0.56523   0.94449   0.96064   0.00000  Uiso   1.00
H215   H     0.53767   0.97764   0.61910   0.00000  Uiso   1.00
H216   H     0.58939   0.98897   0.75626   0.00000  Uiso   1.00
H217   H     0.48918   0.92362   0.70895   0.00000  Uiso   1.00
H218   H     0.53093   0.03277   0.41031   0.00000  Uiso   1.00
H219   H     0.65222   0.98185   0.87966   0.00000  Uiso   1.00
H220   H     0.44091   0.84407   0.77985   0.00000  Uiso   1.00
H221   H     0.52896   0.07424   0.15011   0.00000  Uiso   1.00
O222   O     0.70514   0.92169   0.87119   0.00000  Uiso   1.00
O223   O     0.42791   0.74093   0.74022   0.00000  Uiso   1.00
O224   O     0.54343   0.04290   0.91403   0.00000  Uiso   1.00
N225   N     0.67286   0.88109   0.71593   0.00000  Uiso   1.00
N226   N     0.47530   0.75228   0.62264   0.00000  Uiso   1.00
N227   N     0.55761   0.96746   0.03388   0.00000  Uiso   1.00
N228   N     0.65334   0.95091   0.81789   0.00000  Uiso   1.00
N229   N     0.45578   0.82209   0.72459   0.00000  Uiso   1.00
N230   N     0.53809   0.03727   0.13583   0.00000  Uiso   1.00
C231   C     0.57032   0.36081   0.94850   0.00000  Uiso   1.00
C232   C     0.59381   0.38347   0.04710   0.00000  Uiso   1.00
C233   C     0.62443   0.36362   0.07323   0.00000  Uiso   1.00
C234   C     0.64217   0.38998   0.16691   0.00000  Uiso   1.00
C235   C     0.68054   0.41836   0.31015   0.00000  Uiso   1.00
C236   C     0.53937   0.34796   0.02141   0.00000  Uiso   1.00
C237   C     0.52421   0.29827   0.02592   0.00000  Uiso   1.00
C238   C     0.49611   0.29474   0.09795   0.00000  Uiso   1.00
C239   C     0.44993   0.26800   0.20124   0.00000  Uiso   1.00
C240   C     0.56206   0.40727   0.85916   0.00000  Uiso   1.00
C241   C     0.56596   0.40743   0.72723   0.00000  Uiso   1.00
C242   C     0.55696   0.45383   0.66265   0.00000  Uiso   1.00
C243   C     0.54602   0.51918   0.51400   0.00000  Uiso   1.00
C244   C     0.54737   0.44292   0.06840   0.00000  Uiso   1.00
C245   C     0.58135   0.42806   0.11223   0.00000  Uiso   1.00
C246   C     0.59904   0.45446   0.20588   0.00000  Uiso   1.00
C247   C     0.62968   0.43466   0.23214   0.00000  Uiso   1.00
C248   C     0.52690   0.39256   0.08653   0.00000  Uiso   1.00
C249   C     0.49882   0.38910   0.15857   0.00000  Uiso   1.00
C250   C     0.48362   0.33941   0.16320   0.00000  Uiso   1.00
C251   C     0.54959   0.45186   0.92428   0.00000  Uiso   1.00
C252   C     0.54058   0.49827   0.85989   0.00000  Uiso   1.00
C253   C     0.54447   0.49851   0.72789   0.00000  Uiso   1.00
H254   H     0.58002   0.32609   0.89780   0.00000  Uiso   1.00
H255   H     0.63407   0.32911   0.02282   0.00000  Uiso   1.00
H256   H     0.53386   0.26376   0.97550   0.00000  Uiso   1.00
H257   H     0.57561   0.37292   0.67687   0.00000  Uiso   1.00
H258   H     0.68849   0.35211   0.19018   0.00000  Uiso   1.00
H259   H     0.47718   0.21433   0.09038   0.00000  Uiso   1.00
H260   H     0.56523   0.44449   0.46064   0.00000  Uiso   1.00
H261   H     0.53767   0.47764   0.11910   0.00000  Uiso   1.00
H262   H     0.58939   0.48897   0.25626   0.00000  Uiso   1.00
H263   H     0.48918   0.42362   0.20895   0.00000  Uiso   1.00
H264   H     0.53093   0.53277   0.91031   0.00000  Uiso   1.00
H265   H     0.65222   0.48185   0.37966   0.00000  Uiso   1.00
H266   H     0.44091   0.34407   0.27985   0.00000  Uiso   1.00
H267   H     0.52896   0.57424   0.65011   0.00000  Uiso   1.00
O268   O     0.70514   0.42169   0.37119   0.00000  Uiso   1.00
O269   O     0.42791   0.24093   0.24022   0.00000  Uiso   1.00
O270   O     0.54343   0.54290   0.41403   0.00000  Uiso   1.00
N271   N     0.67286   0.38109   0.21593   0.00000  Uiso   1.00
N272   N     0.47530   0.25228   0.12264   0.00000  Uiso   1.00
N273   N     0.55761   0.46746   0.53388   0.00000  Uiso   1.00
N274   N     0.65334   0.45091   0.31789   0.00000  Uiso   1.00
N275   N     0.45578   0.32209   0.22459   0.00000  Uiso   1.00
N276   N     0.53809   0.53727   0.63583   0.00000  Uiso   1.00
C277   C     0.07032   0.86081   0.94850   0.00000  Uiso   1.00
C278   C     0.09381   0.88347   0.04710   0.00000  Uiso   1.00
C279   C     0.12443   0.86362   0.07323   0.00000  Uiso   1.00
C280   C     0.14217   0.88998   0.16691   0.00000  Uiso   1.00
C281   C     0.18054   0.91836   0.31015   0.00000  Uiso   1.00
C282   C     0.03937   0.84796   0.02141   0.00000  Uiso   1.00
C283   C     0.02421   0.79827   0.02592   0.00000  Uiso   1.00
C284   C     0.99611   0.79474   0.09795   0.00000  Uiso   1.00
C285   C     0.94993   0.76800   0.20124   0.00000  Uiso   1.00
C286   C     0.06206   0.90727   0.85916   0.00000  Uiso   1.00
C287   C     0.06596   0.90743   0.72723   0.00000  Uiso   1.00
C288   C     0.05696   0.95383   0.66265   0.00000  Uiso   1.00
C289   C     0.04602   0.01918   0.51400   0.00000  Uiso   1.00
C290   C     0.04737   0.94292   0.06840   0.00000  Uiso   1.00
C291   C     0.08135   0.92806   0.11223   0.00000  Uiso   1.00
C292   C     0.09904   0.95446   0.20588   0.00000  Uiso   1.00
C293   C     0.12968   0.93466   0.23214   0.00000  Uiso   1.00
C294   C     0.02690   0.89256   0.08653   0.00000  Uiso   1.00
C295   C     0.99882   0.88910   0.15857   0.00000  Uiso   1.00
C296   C     0.98362   0.83941   0.16320   0.00000  Uiso   1.00
C297   C     0.04959   0.95186   0.92428   0.00000  Uiso   1.00
C298   C     0.04058   0.99827   0.85989   0.00000  Uiso   1.00
C299   C     0.04447   0.99851   0.72789   0.00000  Uiso   1.00
H300   H     0.08002   0.82609   0.89780   0.00000  Uiso   1.00
H301   H     0.13407   0.82911   0.02282   0.00000  Uiso   1.00
H302   H     0.03386   0.76376   0.97550   0.00000  Uiso   1.00
H303   H     0.07561   0.87292   0.67687   0.00000  Uiso   1.00
H304   H     0.18849   0.85211   0.19018   0.00000  Uiso   1.00
H305   H     0.97718   0.71433   0.09038   0.00000  Uiso   1.00
H306   H     0.06523   0.94449   0.46064   0.00000  Uiso   1.00
H307   H     0.03767   0.97764   0.11910   0.00000  Uiso   1.00
H308   H     0.08939   0.98897   0.25626   0.00000  Uiso   1.00
H309   H     0.98918   0.92362   0.20895   0.00000  Uiso   1.00
H310   H     0.03093   0.03277   0.91031   0.00000  Uiso   1.00
H311   H     0.15222   0.98185   0.37966   0.00000  Uiso   1.00
H312   H     0.94091   0.84407   0.27985   0.00000  Uiso   1.00
H313   H     0.02896   0.07424   0.65011   0.00000  Uiso   1.00
O314   O     0.20514   0.92169   0.37119   0.00000  Uiso   1.00
O315   O     0.92791   0.74093   0.24022   0.00000  Uiso   1.00
O316   O     0.04343   0.04290   0.41403   0.00000  Uiso   1.00
N317   N     0.17286   0.88109   0.21593   0.00000  Uiso   1.00
N318   N     0.97530   0.75228   0.12264   0.00000  Uiso   1.00
N319   N     0.05761   0.96746   0.53388   0.00000  Uiso   1.00
N320   N     0.15334   0.95091   0.31789   0.00000  Uiso   1.00
N321   N     0.95578   0.82209   0.22459   0.00000  Uiso   1.00
N322   N     0.03809   0.03727   0.63583   0.00000  Uiso   1.00
C323   C     0.07032   0.36081   0.44850   0.00000  Uiso   1.00
C324   C     0.09381   0.38347   0.54710   0.00000  Uiso   1.00
C325   C     0.12443   0.36362   0.57323   0.00000  Uiso   1.00
C326   C     0.14217   0.38998   0.66691   0.00000  Uiso   1.00
C327   C     0.18054   0.41836   0.81015   0.00000  Uiso   1.00
C328   C     0.03937   0.34796   0.52141   0.00000  Uiso   1.00
C329   C     0.02421   0.29827   0.52592   0.00000  Uiso   1.00
C330   C     0.99611   0.29474   0.59795   0.00000  Uiso   1.00
C331   C     0.94993   0.26800   0.70124   0.00000  Uiso   1.00
C332   C     0.06206   0.40727   0.35916   0.00000  Uiso   1.00
C333   C     0.06596   0.40743   0.22723   0.00000  Uiso   1.00
C334   C     0.05696   0.45383   0.16265   0.00000  Uiso   1.00
C335   C     0.04602   0.51918   0.01400   0.00000  Uiso   1.00
C336   C     0.04737   0.44292   0.56840   0.00000  Uiso   1.00
C337   C     0.08135   0.42806   0.61223   0.00000  Uiso   1.00
C338   C     0.09904   0.45446   0.70588   0.00000  Uiso   1.00
C339   C     0.12968   0.43466   0.73214   0.00000  Uiso   1.00
C340   C     0.02690   0.39256   0.58653   0.00000  Uiso   1.00
C341   C     0.99882   0.38910   0.65857   0.00000  Uiso   1.00
C342   C     0.98362   0.33941   0.66320   0.00000  Uiso   1.00
C343   C     0.04959   0.45186   0.42428   0.00000  Uiso   1.00
C344   C     0.04058   0.49827   0.35989   0.00000  Uiso   1.00
C345   C     0.04447   0.49851   0.22789   0.00000  Uiso   1.00
H346   H     0.08002   0.32609   0.39780   0.00000  Uiso   1.00
H347   H     0.13407   0.32911   0.52282   0.00000  Uiso   1.00
H348   H     0.03386   0.26376   0.47550   0.00000  Uiso   1.00
H349   H     0.07561   0.37292   0.17687   0.00000  Uiso   1.00
H350   H     0.18849   0.35211   0.69018   0.00000  Uiso   1.00
H351   H     0.97718   0.21433   0.59038   0.00000  Uiso   1.00
H352   H     0.06523   0.44449   0.96064   0.00000  Uiso   1.00
H353   H     0.03767   0.47764   0.61910   0.00000  Uiso   1.00
H354   H     0.08939   0.48897   0.75626   0.00000  Uiso   1.00
H355   H     0.98918   0.42362   0.70895   0.00000  Uiso   1.00
H356   H     0.03093   0.53277   0.41031   0.00000  Uiso   1.00
H357   H     0.15222   0.48185   0.87966   0.00000  Uiso   1.00
H358   H     0.94091   0.34407   0.77985   0.00000  Uiso   1.00
H359   H     0.02896   0.57424   0.15011   0.00000  Uiso   1.00
O360   O     0.20514   0.42169   0.87119   0.00000  Uiso   1.00
O361   O     0.92791   0.24093   0.74022   0.00000  Uiso   1.00
O362   O     0.04343   0.54290   0.91403   0.00000  Uiso   1.00
N363   N     0.17286   0.38109   0.71593   0.00000  Uiso   1.00
N364   N     0.97530   0.25228   0.62264   0.00000  Uiso   1.00
N365   N     0.05761   0.46746   0.03388   0.00000  Uiso   1.00
N366   N     0.15334   0.45091   0.81789   0.00000  Uiso   1.00
N367   N     0.95578   0.32209   0.72459   0.00000  Uiso   1.00
N368   N     0.03809   0.53727   0.13583   0.00000  Uiso   1.00
C369   C     0.67968   0.11081   0.69850   0.00000  Uiso   1.00
C370   C     0.65619   0.13347   0.79710   0.00000  Uiso   1.00
C371   C     0.62557   0.11362   0.82323   0.00000  Uiso   1.00
C372   C     0.60783   0.13998   0.91691   0.00000  Uiso   1.00
C373   C     0.56946   0.16836   0.06015   0.00000  Uiso   1.00
C374   C     0.71063   0.09796   0.77141   0.00000  Uiso   1.00
C375   C     0.72579   0.04827   0.77592   0.00000  Uiso   1.00
C376   C     0.75389   0.04474   0.84795   0.00000  Uiso   1.00
C377   C     0.80007   0.01800   0.95124   0.00000  Uiso   1.00
C378   C     0.68794   0.15727   0.60916   0.00000  Uiso   1.00
C379   C     0.68404   0.15743   0.47723   0.00000  Uiso   1.00
C380   C     0.69304   0.20383   0.41265   0.00000  Uiso   1.00
C381   C     0.70398   0.26918   0.26400   0.00000  Uiso   1.00
C382   C     0.70263   0.19292   0.81840   0.00000  Uiso   1.00
C383   C     0.66865   0.17806   0.86223   0.00000  Uiso   1.00
C384   C     0.65096   0.20446   0.95588   0.00000  Uiso   1.00
C385   C     0.62032   0.18466   0.98214   0.00000  Uiso   1.00
C386   C     0.72310   0.14256   0.83653   0.00000  Uiso   1.00
C387   C     0.75118   0.13910   0.90857   0.00000  Uiso   1.00
C388   C     0.76638   0.08941   0.91320   0.00000  Uiso   1.00
C389   C     0.70041   0.20186   0.67428   0.00000  Uiso   1.00
C390   C     0.70942   0.24827   0.60989   0.00000  Uiso   1.00
C391   C     0.70553   0.24851   0.47789   0.00000  Uiso   1.00
H392   H     0.66998   0.07609   0.64780   0.00000  Uiso   1.00
H393   H     0.61593   0.07911   0.77282   0.00000  Uiso   1.00
H394   H     0.71614   0.01376   0.72550   0.00000  Uiso   1.00
H395   H     0.67439   0.12292   0.42687   0.00000  Uiso   1.00
H396   H     0.56151   0.10211   0.94018   0.00000  Uiso   1.00
H397   H     0.77282   0.96433   0.84038   0.00000  Uiso   1.00
H398   H     0.68477   0.19449   0.21064   0.00000  Uiso   1.00
H399   H     0.71233   0.22764   0.86910   0.00000  Uiso   1.00
H400   H     0.66061   0.23897   0.00626   0.00000  Uiso   1.00
H401   H     0.76082   0.17362   0.95895   0.00000  Uiso   1.00
H402   H     0.71907   0.28277   0.66031   0.00000  Uiso   1.00
H403   H     0.59778   0.23185   0.12966   0.00000  Uiso   1.00
H404   H     0.80909   0.09407   0.02985   0.00000  Uiso   1.00
H405   H     0.72104   0.32424   0.40011   0.00000  Uiso   1.00
O406   O     0.54486   0.17169   0.12119   0.00000  Uiso   1.00
O407   O     0.82209   0.99093   0.99022   0.00000  Uiso   1.00
O408   O     0.70657   0.29290   0.16403   0.00000  Uiso   1.00
N409   N     0.57714   0.13109   0.96593   0.00000  Uiso   1.00
N410   N     0.77470   0.00228   0.87264   0.00000  Uiso   1.00
N411   N     0.69239   0.21746   0.28388   0.00000  Uiso   1.00
N412   N     0.59666   0.20091   0.06789   0.00000  Uiso   1.00
N413   N     0.79422   0.07209   0.97459   0.00000  Uiso   1.00
N414   N     0.71191   0.28727   0.38583   0.00000  Uiso   1.00
C415   C     0.67968   0.61081   0.19850   0.00000  Uiso   1.00
C416   C     0.65619   0.63347   0.29710   0.00000  Uiso   1.00
C417   C     0.62557   0.61362   0.32323   0.00000  Uiso   1.00
C418   C     0.60783   0.63998   0.41691   0.00000  Uiso   1.00
C419   C     0.56946   0.66836   0.56015   0.00000  Uiso   1.00
C420   C     0.71063   0.59796   0.27141   0.00000  Uiso   1.00
C421   C     0.72579   0.54827   0.27592   0.00000  Uiso   1.00
C422   C     0.75389   0.54474   0.34795   0.00000  Uiso   1.00
C423   C     0.80007   0.51800   0.45124   0.00000  Uiso   1.00
C424   C     0.68794   0.65727   0.10916   0.00000  Uiso   1.00
C425   C     0.68404   0.65743   0.97723   0.00000  Uiso   1.00
C426   C     0.69304   0.70383   0.91265   0.00000  Uiso   1.00
C427   C     0.70398   0.76918   0.76400   0.00000  Uiso   1.00
C428   C     0.70263   0.69292   0.31840   0.00000  Uiso   1.00
C429   C     0.66865   0.67806   0.36223   0.00000  Uiso   1.00
C430   C     0.65096   0.70446   0.45588   0.00000  Uiso   1.00
C431   C     0.62032   0.68466   0.48214   0.00000  Uiso   1.00
C432   C     0.72310   0.64256   0.33653   0.00000  Uiso   1.00
C433   C     0.75118   0.63910   0.40857   0.00000  Uiso   1.00
C434   C     0.76638   0.58941   0.41320   0.00000  Uiso   1.00
C435   C     0.70041   0.70186   0.17428   0.00000  Uiso   1.00
C436   C     0.70942   0.74827   0.10989   0.00000  Uiso   1.00
C437   C     0.70553   0.74851   0.97789   0.00000  Uiso   1.00
H438   H     0.66998   0.57609   0.14780   0.00000  Uiso   1.00
H439   H     0.61593   0.57911   0.27282   0.00000  Uiso   1.00
H440   H     0.71614   0.51376   0.22550   0.00000  Uiso   1.00
H441   H     0.67439   0.62292   0.92687   0.00000  Uiso   1.00
H442   H     0.56151   0.60211   0.44018   0.00000  Uiso   1.00
H443   H     0.77282   0.46433   0.34038   0.00000  Uiso   1.00
H444   H     0.68477   0.69449   0.71064   0.00000  Uiso   1.00
H445   H     0.71233   0.72764   0.36910   0.00000  Uiso   1.00
H446   H     0.66061   0.73897   0.50626   0.00000  Uiso   1.00
H447   H     0.76082   0.67362   0.45895   0.00000  Uiso   1.00
H448   H     0.71907   0.78277   0.16031   0.00000  Uiso   1.00
H449   H     0.59778   0.73185   0.62966   0.00000  Uiso   1.00
H450   H     0.80909   0.59407   0.52985   0.00000  Uiso   1.00
H451   H     0.72104   0.82424   0.90011   0.00000  Uiso   1.00
O452   O     0.54486   0.67169   0.62119   0.00000  Uiso   1.00
O453   O     0.82209   0.49093   0.49022   0.00000  Uiso   1.00
O454   O     0.70657   0.79290   0.66403   0.00000  Uiso   1.00
N455   N     0.57714   0.63109   0.46593   0.00000  Uiso   1.00
N456   N     0.77470   0.50228   0.37264   0.00000  Uiso   1.00
N457   N     0.69239   0.71746   0.78388   0.00000  Uiso   1.00
N458   N     0.59666   0.70091   0.56789   0.00000  Uiso   1.00
N459   N     0.79422   0.57209   0.47459   0.00000  Uiso   1.00
N460   N     0.71191   0.78727   0.88583   0.00000  Uiso   1.00
C461   C     0.17968   0.11081   0.19850   0.00000  Uiso   1.00
C462   C     0.15619   0.13347   0.29710   0.00000  Uiso   1.00
C463   C     0.12557   0.11362   0.32323   0.00000  Uiso   1.00
C464   C     0.10783   0.13998   0.41691   0.00000  Uiso   1.00
C465   C     0.06946   0.16836   0.56015   0.00000  Uiso   1.00
C466   C     0.21063   0.09796   0.27141   0.00000  Uiso   1.00
C467   C     0.22579   0.04827   0.27592   0.00000  Uiso   1.00
C468   C     0.25389   0.04474   0.34795   0.00000  Uiso   1.00
C469   C     0.30007   0.01800   0.45124   0.00000  Uiso   1.00
C470   C     0.18794   0.15727   0.10916   0.00000  Uiso   1.00
C471   C     0.18404   0.15743   0.97723   0.00000  Uiso   1.00
C472   C     0.19304   0.20383   0.91265   0.00000  Uiso   1.00
C473   C     0.20398   0.26918   0.76400   0.00000  Uiso   1.00
C474   C     0.20263   0.19292   0.31840   0.00000  Uiso   1.00
C475   C     0.16865   0.17806   0.36223   0.00000  Uiso   1.00
C476   C     0.15096   0.20446   0.45588   0.00000  Uiso   1.00
C477   C     0.12032   0.18466   0.48214   0.00000  Uiso   1.00
C478   C     0.22310   0.14256   0.33653   0.00000  Uiso   1.00
C479   C     0.25118   0.13910   0.40857   0.00000  Uiso   1.00
C480   C     0.26638   0.08941   0.41320   0.00000  Uiso   1.00
C481   C     0.20041   0.20186   0.17428   0.00000  Uiso   1.00
C482   C     0.20942   0.24827   0.10989   0.00000  Uiso   1.00
C483   C     0.20553   0.24851   0.97789   0.00000  Uiso   1.00
H484   H     0.16998   0.07609   0.14780   0.00000  Uiso   1.00
H485   H     0.11593   0.07911   0.27282   0.00000  Uiso   1.00
H486   H     0.21614   0.01376   0.22550   0.00000  Uiso   1.00
H487   H     0.17439   0.12292   0.92687   0.00000  Uiso   1.00
H488   H     0.06151   0.10211   0.44018   0.00000  Uiso   1.00
H489   H     0.27282   0.96433   0.34038   0.00000  Uiso   1.00
H490   H     0.18477   0.19449   0.71064   0.00000  Uiso   1.00
H491   H     0.21233   0.22764   0.36910   0.00000  Uiso   1.00
H492   H     0.16061   0.23897   0.50626   0.00000  Uiso   1.00
H493   H     0.26082   0.17362   0.45895   0.00000  Uiso   1.00
H494   H     0.21907   0.28277   0.16031   0.00000  Uiso   1.00
H495   H     0.09778   0.23185   0.62966   0.00000  Uiso   1.00
H496   H     0.30909   0.09407   0.52985   0.00000  Uiso   1.00
H497   H     0.22104   0.32424   0.90011   0.00000  Uiso   1.00
O498   O     0.04486   0.17169   0.62119   0.00000  Uiso   1.00
O499   O     0.32209   0.99093   0.49022   0.00000  Uiso   1.00
O500   O     0.20657   0.29290   0.66403   0.00000  Uiso   1.00
N501   N     0.07714   0.13109   0.46593   0.00000  Uiso   1.00
N502   N     0.27470   0.00228   0.37264   0.00000  Uiso   1.00
N503   N     0.19239   0.21746   0.78388   0.00000  Uiso   1.00
N504   N     0.09666   0.20091   0.56789   0.00000  Uiso   1.00
N505   N     0.29422   0.07209   0.47459   0.00000  Uiso   1.00
N506   N     0.21191   0.28727   0.88583   0.00000  Uiso   1.00
C507   C     0.17968   0.61081   0.69850   0.00000  Uiso   1.00
C508   C     0.15619   0.63347   0.79710   0.00000  Uiso   1.00
C509   C     0.12557   0.61362   0.82323   0.00000  Uiso   1.00
C510   C     0.10783   0.63998   0.91691   0.00000  Uiso   1.00
C511   C     0.06946   0.66836   0.06015   0.00000  Uiso   1.00
C512   C     0.21063   0.59796   0.77141   0.00000  Uiso   1.00
C513   C     0.22579   0.54827   0.77592   0.00000  Uiso   1.00
C514   C     0.25389   0.54474   0.84795   0.00000  Uiso   1.00
C515   C     0.30007   0.51800   0.95124   0.00000  Uiso   1.00
C516   C     0.18794   0.65727   0.60916   0.00000  Uiso   1.00
C517   C     0.18404   0.65743   0.47723   0.00000  Uiso   1.00
C518   C     0.19304   0.70383   0.41265   0.00000  Uiso   1.00
C519   C     0.20398   0.76918   0.26400   0.00000  Uiso   1.00
C520   C     0.20263   0.69292   0.81840   0.00000  Uiso   1.00
C521   C     0.16865   0.67806   0.86223   0.00000  Uiso   1.00
C522   C     0.15096   0.70446   0.95588   0.00000  Uiso   1.00
C523   C     0.12032   0.68466   0.98214   0.00000  Uiso   1.00
C524   C     0.22310   0.64256   0.83653   0.00000  Uiso   1.00
C525   C     0.25118   0.63910   0.90857   0.00000  Uiso   1.00
C526   C     0.26638   0.58941   0.91320   0.00000  Uiso   1.00
C527   C     0.20041   0.70186   0.67428   0.00000  Uiso   1.00
C528   C     0.20942   0.74827   0.60989   0.00000  Uiso   1.00
C529   C     0.20553   0.74851   0.47789   0.00000  Uiso   1.00
H530   H     0.16998   0.57609   0.64780   0.00000  Uiso   1.00
H531   H     0.11593   0.57911   0.77282   0.00000  Uiso   1.00
H532   H     0.21614   0.51376   0.72550   0.00000  Uiso   1.00
H533   H     0.17439   0.62292   0.42687   0.00000  Uiso   1.00
H534   H     0.06151   0.60211   0.94018   0.00000  Uiso   1.00
H535   H     0.27282   0.46433   0.84038   0.00000  Uiso   1.00
H536   H     0.18477   0.69449   0.21064   0.00000  Uiso   1.00
H537   H     0.21233   0.72764   0.86910   0.00000  Uiso   1.00
H538   H     0.16061   0.73897   0.00626   0.00000  Uiso   1.00
H539   H     0.26082   0.67362   0.95895   0.00000  Uiso   1.00
H540   H     0.21907   0.78277   0.66031   0.00000  Uiso   1.00
H541   H     0.09778   0.73185   0.12966   0.00000  Uiso   1.00
H542   H     0.30909   0.59407   0.02985   0.00000  Uiso   1.00
H543   H     0.22104   0.82424   0.40011   0.00000  Uiso   1.00
O544   O     0.04486   0.67169   0.12119   0.00000  Uiso   1.00
O545   O     0.32209   0.49093   0.99022   0.00000  Uiso   1.00
O546   O     0.20657   0.79290   0.16403   0.00000  Uiso   1.00
N547   N     0.07714   0.63109   0.96593   0.00000  Uiso   1.00
N548   N     0.27470   0.50228   0.87264   0.00000  Uiso   1.00
N549   N     0.19239   0.71746   0.28388   0.00000  Uiso   1.00
N550   N     0.09666   0.70091   0.06789   0.00000  Uiso   1.00
N551   N     0.29422   0.57209   0.97459   0.00000  Uiso   1.00
N552   N     0.21191   0.78727   0.38583   0.00000  Uiso   1.00
C553   C     0.82032   0.38919   0.69850   0.00000  Uiso   1.00
C554   C     0.84381   0.36653   0.79710   0.00000  Uiso   1.00
C555   C     0.87443   0.38638   0.82323   0.00000  Uiso   1.00
C556   C     0.89217   0.36002   0.91691   0.00000  Uiso   1.00
C557   C     0.93054   0.33164   0.06015   0.00000  Uiso   1.00
C558   C     0.78937   0.40204   0.77141   0.00000  Uiso   1.00
C559   C     0.77421   0.45173   0.77592   0.00000  Uiso   1.00
C560   C     0.74611   0.45526   0.84795   0.00000  Uiso   1.00
C561   C     0.69993   0.48200   0.95124   0.00000  Uiso   1.00
C562   C     0.81206   0.34273   0.60916   0.00000  Uiso   1.00
C563   C     0.81596   0.34257   0.47723   0.00000  Uiso   1.00
C564   C     0.80696   0.29617   0.41265   0.00000  Uiso   1.00
C565   C     0.79602   0.23082   0.26400   0.00000  Uiso   1.00
C566   C     0.79737   0.30708   0.81840   0.00000  Uiso   1.00
C567   C     0.83135   0.32194   0.86223   0.00000  Uiso   1.00
C568   C     0.84904   0.29554   0.95588   0.00000  Uiso   1.00
C569   C     0.87968   0.31534   0.98214   0.00000  Uiso   1.00
C570   C     0.77690   0.35744   0.83653   0.00000  Uiso   1.00
C571   C     0.74882   0.36090   0.90857   0.00000  Uiso   1.00
C572   C     0.73362   0.41059   0.91320   0.00000  Uiso   1.00
C573   C     0.79959   0.29814   0.67428   0.00000  Uiso   1.00
C574   C     0.79058   0.25173   0.60989   0.00000  Uiso   1.00
C575   C     0.79447   0.25149   0.47789   0.00000  Uiso   1.00
H576   H     0.83002   0.42391   0.64780   0.00000  Uiso   1.00
H577   H     0.88407   0.42089   0.77282   0.00000  Uiso   1.00
H578   H     0.78386   0.48624   0.72550   0.00000  Uiso   1.00
H579   H     0.82561   0.37708   0.42687   0.00000  Uiso   1.00
H580   H     0.93849   0.39789   0.94018   0.00000  Uiso   1.00
H581   H     0.72718   0.53567   0.84038   0.00000  Uiso   1.00
H582   H     0.81523   0.30551   0.21064   0.00000  Uiso   1.00
H583   H     0.78767   0.27236   0.86910   0.00000  Uiso   1.00
H584   H     0.83939   0.26103   0.00626   0.00000  Uiso   1.00
H585   H     0.73918   0.32638   0.95895   0.00000  Uiso   1.00
H586   H     0.78093   0.21723   0.66031   0.00000  Uiso   1.00
H587   H     0.90222   0.26815   0.12966   0.00000  Uiso   1.00
H588   H     0.69091   0.40593   0.02985   0.00000  Uiso   1.00
H589   H     0.77896   0.17576   0.40011   0.00000  Uiso   1.00
O590   O     0.95514   0.32831   0.12119   0.00000  Uiso   1.00
O591   O     0.67791   0.50907   0.99022   0.00000  Uiso   1.00
O592   O     0.79343   0.20710   0.16403   0.00000  Uiso   1.00
N593   N     0.92286   0.36891   0.96593   0.00000  Uiso   1.00
N594   N     0.72530   0.49772   0.87264   0.00000  Uiso   1.00
N595   N     0.80761   0.28254   0.28388   0.00000  Uiso   1.00
N596   N     0.90334   0.29909   0.06789   0.00000  Uiso   1.00
N597   N     0.70578   0.42791   0.97459   0.00000  Uiso   1.00
N598   N     0.78809   0.21273   0.38583   0.00000  Uiso   1.00
C599   C     0.82032   0.88919   0.19850   0.00000  Uiso   1.00
C600   C     0.84381   0.86653   0.29710   0.00000  Uiso   1.00
C601   C     0.87443   0.88638   0.32323   0.00000  Uiso   1.00
C602   C     0.89217   0.86002   0.41691   0.00000  Uiso   1.00
C603   C     0.93054   0.83164   0.56015   0.00000  Uiso   1.00
C604   C     0.78937   0.90204   0.27141   0.00000  Uiso   1.00
C605   C     0.77421   0.95173   0.27592   0.00000  Uiso   1.00
C606   C     0.74611   0.95526   0.34795   0.00000  Uiso   1.00
C607   C     0.69993   0.98200   0.45124   0.00000  Uiso   1.00
C608   C     0.81206   0.84273   0.10916   0.00000  Uiso   1.00
C609   C     0.81596   0.84257   0.97723   0.00000  Uiso   1.00
C610   C     0.80696   0.79617   0.91265   0.00000  Uiso   1.00
C611   C     0.79602   0.73082   0.76400   0.00000  Uiso   1.00
C612   C     0.79737   0.80708   0.31840   0.00000  Uiso   1.00
C613   C     0.83135   0.82194   0.36223   0.00000  Uiso   1.00
C614   C     0.84904   0.79554   0.45588   0.00000  Uiso   1.00
C615   C     0.87968   0.81534   0.48214   0.00000  Uiso   1.00
C616   C     0.77690   0.85744   0.33653   0.00000  Uiso   1.00
C617   C     0.74882   0.86090   0.40857   0.00000  Uiso   1.00
C618   C     0.73362   0.91059   0.41320   0.00000  Uiso   1.00
C619   C     0.79959   0.79814   0.17428   0.00000  Uiso   1.00
C620   C     0.79058   0.75173   0.10989   0.00000  Uiso   1.00
C621   C     0.79447   0.75149   0.97789   0.00000  Uiso   1.00
H622   H     0.83002   0.92391   0.14780   0.00000  Uiso   1.00
H623   H     0.88407   0.92089   0.27282   0.00000  Uiso   1.00
H624   H     0.78386   0.98624   0.22550   0.00000  Uiso   1.00
H625   H     0.82561   0.87708   0.92687   0.00000  Uiso   1.00
H626   H     0.93849   0.89789   0.44018   0.00000  Uiso   1.00
H627   H     0.72718   0.03567   0.34038   0.00000  Uiso   1.00
H628   H     0.81523   0.80551   0.71064   0.00000  Uiso   1.00
H629   H     0.78767   0.77236   0.36910   0.00000  Uiso   1.00
H630   H     0.83939   0.76103   0.50626   0.00000  Uiso   1.00
H631   H     0.73918   0.82638   0.45895   0.00000  Uiso   1.00
H632   H     0.78093   0.71723   0.16031   0.00000  Uiso   1.00
H633   H     0.90222   0.76815   0.62966   0.00000  Uiso   1.00
H634   H     0.69091   0.90593   0.52985   0.00000  Uiso   1.00
H635   H     0.77896   0.67576   0.90011   0.00000  Uiso   1.00
O636   O     0.95514   0.82831   0.62119   0.00000  Uiso   1.00
O637   O     0.67791   0.00907   0.49022   0.00000  Uiso   1.00
O638   O     0.79343   0.70710   0.66403   0.00000  Uiso   1.00
N639   N     0.92286   0.86891   0.46593   0.00000  Uiso   1.00
N640   N     0.72530   0.99772   0.37264   0.00000  Uiso   1.00
N641   N     0.80761   0.78254   0.78388   0.00000  Uiso   1.00
N642   N     0.90334   0.79909   0.56789   0.00000  Uiso   1.00
N643   N     0.70578   0.92791   0.47459   0.00000  Uiso   1.00
N644   N     0.78809   0.71273   0.88583   0.00000  Uiso   1.00
C645   C     0.32032   0.38919   0.19850   0.00000  Uiso   1.00
C646   C     0.34381   0.36653   0.29710   0.00000  Uiso   1.00
C647   C     0.37443   0.38638   0.32323   0.00000  Uiso   1.00
C648   C     0.39217   0.36002   0.41691   0.00000  Uiso   1.00
C649   C     0.43054   0.33164   0.56015   0.00000  Uiso   1.00
C650   C     0.28937   0.40204   0.27141   0.00000  Uiso   1.00
C651   C     0.27421   0.45173   0.27592   0.00000  Uiso   1.00
C652   C     0.24611   0.45526   0.34795   0.00000  Uiso   1.00
C653   C     0.19993   0.48200   0.45124   0.00000  Uiso   1.00
C654   C     0.31206   0.34273   0.10916   0.00000  Uiso   1.00
C655   C     0.31596   0.34257   0.97723   0.00000  Uiso   1.00
C656   C     0.30696   0.29617   0.91265   0.00000  Uiso   1.00
C657   C     0.29602   0.23082   0.76400   0.00000  Uiso   1.00
C658   C     0.29737   0.30708   0.31840   0.00000  Uiso   1.00
C659   C     0.33135   0.32194   0.36223   0.00000  Uiso   1.00
C660   C     0.34904   0.29554   0.45588   0.00000  Uiso   1.00
C661   C     0.37968   0.31534   0.48214   0.00000  Uiso   1.00
C662   C     0.27690   0.35744   0.33653   0.00000  Uiso   1.00
C663   C     0.24882   0.36090   0.40857   0.00000  Uiso   1.00
C664   C     0.23362   0.41059   0.41320   0.00000  Uiso   1.00
C665   C     0.29959   0.29814   0.17428   0.00000  Uiso   1.00
C666   C     0.29058   0.25173   0.10989   0.00000  Uiso   1.00
C667   C     0.29447   0.25149   0.97789   0.00000  Uiso   1.00
H668   H     0.33002   0.42391   0.14780   0.00000  Uiso   1.00
H669   H     0.38407   0.42089   0.27282   0.00000  Uiso   1.00
H670   H     0.28386   0.48624   0.22550   0.00000  Uiso   1.00
H671   H     0.32561   0.37708   0.92687   0.00000  Uiso   1.00
H672   H     0.43849   0.39789   0.44018   0.00000  Uiso   1.00
H673   H     0.22718   0.53567   0.34038   0.00000  Uiso   1.00
H674   H     0.31523   0.30551   0.71064   0.00000  Uiso   1.00
H675   H     0.28767   0.27236   0.36910   0.00000  Uiso   1.00
H676   H     0.33939   0.26103   0.50626   0.00000  Uiso   1.00
H677   H     0.23918   0.32638   0.45895   0.00000  Uiso   1.00
H678   H     0.28093   0.21723   0.16031   0.00000  Uiso   1.00
H679   H     0.40222   0.26815   0.62966   0.00000  Uiso   1.00
H680   H     0.19091   0.40593   0.52985   0.00000  Uiso   1.00
H681   H     0.27896   0.17576   0.90011   0.00000  Uiso   1.00
O682   O     0.45514   0.32831   0.62119   0.00000  Uiso   1.00
O683   O     0.17791   0.50907   0.49022   0.00000  Uiso   1.00
O684   O     0.29343   0.20710   0.66403   0.00000  Uiso   1.00
N685   N     0.42286   0.36891   0.46593   0.00000  Uiso   1.00
N686   N     0.22530   0.49772   0.37264   0.00000  Uiso   1.00
N687   N     0.30761   0.28254   0.78388   0.00000  Uiso   1.00
N688   N     0.40334   0.29909   0.56789   0.00000  Uiso   1.00
N689   N     0.20578   0.42791   0.47459   0.00000  Uiso   1.00
N690   N     0.28809   0.21273   0.88583   0.00000  Uiso   1.00
C691   C     0.32032   0.88919   0.69850   0.00000  Uiso   1.00
C692   C     0.34381   0.86653   0.79710   0.00000  Uiso   1.00
C693   C     0.37443   0.88638   0.82323   0.00000  Uiso   1.00
C694   C     0.39217   0.86002   0.91691   0.00000  Uiso   1.00
C695   C     0.43054   0.83164   0.06015   0.00000  Uiso   1.00
C696   C     0.28937   0.90204   0.77141   0.00000  Uiso   1.00
C697   C     0.27421   0.95173   0.77592   0.00000  Uiso   1.00
C698   C     0.24611   0.95526   0.84795   0.00000  Uiso   1.00
C699   C     0.19993   0.98200   0.95124   0.00000  Uiso   1.00
C700   C     0.31206   0.84273   0.60916   0.00000  Uiso   1.00
C701   C     0.31596   0.84257   0.47723   0.00000  Uiso   1.00
C702   C     0.30696   0.79617   0.41265   0.00000  Uiso   1.00
C703   C     0.29602   0.73082   0.26400   0.00000  Uiso   1.00
C704   C     0.29737   0.80708   0.81840   0.00000  Uiso   1.00
C705   C     0.33135   0.82194   0.86223   0.00000  Uiso   1.00
C706   C     0.34904   0.79554   0.95588   0.00000  Uiso   1.00
C707   C     0.37968   0.81534   0.98214   0.00000  Uiso   1.00
C708   C     0.27690   0.85744   0.83653   0.00000  Uiso   1.00
C709   C     0.24882   0.86090   0.90857   0.00000  Uiso   1.00
C710   C     0.23362   0.91059   0.91320   0.00000  Uiso   1.00
C711   C     0.29959   0.79814   0.67428   0.00000  Uiso   1.00
C712   C     0.29058   0.75173   0.60989   0.00000  Uiso   1.00
C713   C     0.29447   0.75149   0.47789   0.00000  Uiso   1.00
H714   H     0.33002   0.92391   0.64780   0.00000  Uiso   1.00
H715   H     0.38407   0.92089   0.77282   0.00000  Uiso   1.00
H716   H     0.28386   0.98624   0.72550   0.00000  Uiso   1.00
H717   H     0.32561   0.87708   0.42687   0.00000  Uiso   1.00
H718   H     0.43849   0.89789   0.94018   0.00000  Uiso   1.00
H719   H     0.22718   0.03567   0.84038   0.00000  Uiso   1.00
H720   H     0.31523   0.80551   0.21064   0.00000  Uiso   1.00
H721   H     0.28767   0.77236   0.86910   0.00000  Uiso   1.00
H722   H     0.33939   0.76103   0.00626   0.00000  Uiso   1.00
H723   H     0.23918   0.82638   0.95895   0.00000  Uiso   1.00
H724   H     0.28093   0.71723   0.66031   0.00000  Uiso   1.00
H725   H     0.40222   0.76815   0.12966   0.00000  Uiso   1.00
H726   H     0.19091   0.90593   0.02985   0.00000  Uiso   1.00
H727   H     0.27896   0.67576   0.40011   0.00000  Uiso   1.00
O728   O     0.45514   0.82831   0.12119   0.00000  Uiso   1.00
O729   O     0.17791   0.00907   0.99022   0.00000  Uiso   1.00
O730   O     0.29343   0.70710   0.16403   0.00000  Uiso   1.00
N731   N     0.42286   0.86891   0.96593   0.00000  Uiso   1.00
N732   N     0.22530   0.99772   0.87264   0.00000  Uiso   1.00
N733   N     0.30761   0.78254   0.28388   0.00000  Uiso   1.00
N734   N     0.40334   0.79909   0.06789   0.00000  Uiso   1.00
N735   N     0.20578   0.92791   0.97459   0.00000  Uiso   1.00
N736   N     0.28809   0.71273   0.38583   0.00000  Uiso   1.00
