data_job_06505
_audit_creation_date              2018-12-19
_audit_creation_method            'Materials Studio'
_symmetry_space_group_name_H-M    'P1'
_symmetry_Int_Tables_number       1
_symmetry_cell_setting            triclinic
loop_
_symmetry_equiv_pos_as_xyz
  x,y,z
_cell_length_a                    23.3157
_cell_length_b                    23.3157
_cell_length_c                    51.9853
_cell_angle_alpha                 90.0000
_cell_angle_beta                  90.0000
_cell_angle_gamma                 120.0000
loop_
_atom_site_label
_atom_site_type_symbol
_atom_site_fract_x
_atom_site_fract_y
_atom_site_fract_z
_atom_site_U_iso_or_equiv
_atom_site_adp_type
_atom_site_occupancy
C1     C     0.13859   0.72227   0.53347   0.00000  Uiso   1.00
C2     C     0.06379   0.69274   0.53543   0.00000  Uiso   1.00
C3     C     0.02823   0.72164   0.52631   0.00000  Uiso   1.00
C4     C     0.96013   0.68672   0.52999   0.00000  Uiso   1.00
C5     C     0.51542   0.98359   0.86451   0.00000  Uiso   1.00
C6     C     0.16319   0.72568   0.56091   0.00000  Uiso   1.00
C7     C     0.21121   0.78229   0.57321   0.00000  Uiso   1.00
C8     C     0.22679   0.77508   0.59834   0.00000  Uiso   1.00
C9     C     0.26977   0.78975   0.63907   0.00000  Uiso   1.00
C10    C     0.14926   0.67065   0.51966   0.00000  Uiso   1.00
C11    C     0.18559   0.68099   0.49727   0.00000  Uiso   1.00
C12    C     0.18946   0.62746   0.48766   0.00000  Uiso   1.00
C13    C     0.21081   0.55669   0.46434   0.00000  Uiso   1.00
C14    C     0.08091   0.60883   0.55623   0.00000  Uiso   1.00
C15    C     0.03246   0.63112   0.54780   0.00000  Uiso   1.00
C16    C     0.96440   0.59614   0.55150   0.00000  Uiso   1.00
C17    C     0.59541   0.95832   0.87571   0.00000  Uiso   1.00
C18    C     0.13186   0.66407   0.57328   0.00000  Uiso   1.00
C19    C     0.14738   0.65678   0.59839   0.00000  Uiso   1.00
C20    C     0.19540   0.71336   0.61073   0.00000  Uiso   1.00
C21    C     0.11793   0.60903   0.53202   0.00000  Uiso   1.00
C22    C     0.12175   0.55548   0.52245   0.00000  Uiso   1.00
C23    C     0.15807   0.56573   0.50005   0.00000  Uiso   1.00
H24    H     0.16299   0.77024   0.52384   0.00000  Uiso   1.00
H25    H     0.05249   0.76933   0.51674   0.00000  Uiso   1.00
H26    H     0.23545   0.82996   0.56363   0.00000  Uiso   1.00
H27    H     0.20983   0.72867   0.48770   0.00000  Uiso   1.00
H28    H     0.58284   0.07450   0.84767   0.00000  Uiso   1.00
H29    H     0.30196   0.86900   0.61320   0.00000  Uiso   1.00
H30    H     0.24793   0.65542   0.45309   0.00000  Uiso   1.00
H31    H     0.05651   0.56086   0.56586   0.00000  Uiso   1.00
H32    H     0.94017   0.54846   0.56106   0.00000  Uiso   1.00
H33    H     0.12312   0.60909   0.60796   0.00000  Uiso   1.00
H34    H     0.09750   0.50781   0.53202   0.00000  Uiso   1.00
H35    H     0.49167   0.89523   0.88364   0.00000  Uiso   1.00
H36    H     0.21079   0.68973   0.64918   0.00000  Uiso   1.00
H37    H     0.15676   0.47616   0.48906   0.00000  Uiso   1.00
O38    O     0.46265   0.98050   0.86175   0.00000  Uiso   1.00
O39    O     0.30213   0.81487   0.65813   0.00000  Uiso   1.00
O40    O     0.23124   0.53467   0.44806   0.00000  Uiso   1.00
N41    N     0.57735   0.03400   0.85679   0.00000  Uiso   1.00
N42    N     0.27136   0.82019   0.61589   0.00000  Uiso   1.00
N43    N     0.22087   0.62052   0.46620   0.00000  Uiso   1.00
N44    N     0.52829   0.93754   0.87614   0.00000  Uiso   1.00
N45    N     0.22230   0.72372   0.63525   0.00000  Uiso   1.00
N46    N     0.17181   0.52406   0.48556   0.00000  Uiso   1.00
C47    C     0.80526   0.05560   0.86680   0.00000  Uiso   1.00
C48    C     0.73046   0.02607   0.86877   0.00000  Uiso   1.00
C49    C     0.69489   0.05498   0.85964   0.00000  Uiso   1.00
C50    C     0.62680   0.02005   0.86332   0.00000  Uiso   1.00
C51    C     0.18209   0.31692   0.19784   0.00000  Uiso   1.00
C52    C     0.82986   0.05901   0.89425   0.00000  Uiso   1.00
C53    C     0.87787   0.11562   0.90654   0.00000  Uiso   1.00
C54    C     0.89346   0.10842   0.93167   0.00000  Uiso   1.00
C55    C     0.93643   0.12309   0.97241   0.00000  Uiso   1.00
C56    C     0.81593   0.00398   0.85299   0.00000  Uiso   1.00
C57    C     0.85225   0.01432   0.83060   0.00000  Uiso   1.00
C58    C     0.85613   0.96079   0.82099   0.00000  Uiso   1.00
C59    C     0.87748   0.89002   0.79767   0.00000  Uiso   1.00
C60    C     0.74757   0.94216   0.88957   0.00000  Uiso   1.00
C61    C     0.69913   0.96446   0.88113   0.00000  Uiso   1.00
C62    C     0.63107   0.92947   0.88483   0.00000  Uiso   1.00
C63    C     0.26207   0.29166   0.20904   0.00000  Uiso   1.00
C64    C     0.79853   0.99740   0.90661   0.00000  Uiso   1.00
C65    C     0.81405   0.99011   0.93173   0.00000  Uiso   1.00
C66    C     0.86207   0.04669   0.94406   0.00000  Uiso   1.00
C67    C     0.78460   0.94237   0.86535   0.00000  Uiso   1.00
C68    C     0.78842   0.88881   0.85578   0.00000  Uiso   1.00
C69    C     0.82474   0.89907   0.83338   0.00000  Uiso   1.00
H70    H     0.82966   0.10357   0.85718   0.00000  Uiso   1.00
H71    H     0.71916   0.10267   0.85008   0.00000  Uiso   1.00
H72    H     0.90212   0.16329   0.89697   0.00000  Uiso   1.00
H73    H     0.87649   0.06201   0.82104   0.00000  Uiso   1.00
H74    H     0.24951   0.40783   0.18100   0.00000  Uiso   1.00
H75    H     0.96863   0.20233   0.94654   0.00000  Uiso   1.00
H76    H     0.91460   0.98876   0.78642   0.00000  Uiso   1.00
H77    H     0.72318   0.89419   0.89919   0.00000  Uiso   1.00
H78    H     0.60683   0.88179   0.89440   0.00000  Uiso   1.00
H79    H     0.78979   0.94242   0.94129   0.00000  Uiso   1.00
H80    H     0.76417   0.84114   0.86536   0.00000  Uiso   1.00
H81    H     0.15834   0.22857   0.21697   0.00000  Uiso   1.00
H82    H     0.87746   0.02306   0.98251   0.00000  Uiso   1.00
H83    H     0.82343   0.80949   0.82239   0.00000  Uiso   1.00
O84    O     0.12931   0.31383   0.19508   0.00000  Uiso   1.00
O85    O     0.96879   0.14821   0.99146   0.00000  Uiso   1.00
O86    O     0.89791   0.86800   0.78139   0.00000  Uiso   1.00
N87    N     0.24401   0.36734   0.19012   0.00000  Uiso   1.00
N88    N     0.93803   0.15352   0.94923   0.00000  Uiso   1.00
N89    N     0.88753   0.95385   0.79953   0.00000  Uiso   1.00
N90    N     0.19496   0.27087   0.20948   0.00000  Uiso   1.00
N91    N     0.88897   0.05706   0.96858   0.00000  Uiso   1.00
N92    N     0.83848   0.85739   0.81889   0.00000  Uiso   1.00
C93    C     0.47193   0.38893   0.20013   0.00000  Uiso   1.00
C94    C     0.39713   0.35940   0.20210   0.00000  Uiso   1.00
C95    C     0.36156   0.38831   0.19298   0.00000  Uiso   1.00
C96    C     0.29346   0.35338   0.19666   0.00000  Uiso   1.00
C97    C     0.84875   0.65025   0.53118   0.00000  Uiso   1.00
C98    C     0.49652   0.39235   0.22758   0.00000  Uiso   1.00
C99    C     0.54454   0.44895   0.23988   0.00000  Uiso   1.00
C100   C     0.56012   0.44175   0.26500   0.00000  Uiso   1.00
C101   C     0.60310   0.45642   0.30574   0.00000  Uiso   1.00
C102   C     0.48260   0.33732   0.18632   0.00000  Uiso   1.00
C103   C     0.51892   0.34765   0.16393   0.00000  Uiso   1.00
C104   C     0.52279   0.29412   0.15433   0.00000  Uiso   1.00
C105   C     0.54415   0.22335   0.13101   0.00000  Uiso   1.00
C106   C     0.41424   0.27550   0.22290   0.00000  Uiso   1.00
C107   C     0.36579   0.29779   0.21447   0.00000  Uiso   1.00
C108   C     0.29773   0.26281   0.21816   0.00000  Uiso   1.00
C109   C     0.92874   0.62499   0.54238   0.00000  Uiso   1.00
C110   C     0.46519   0.33073   0.23995   0.00000  Uiso   1.00
C111   C     0.48071   0.32345   0.26506   0.00000  Uiso   1.00
C112   C     0.52873   0.38002   0.27739   0.00000  Uiso   1.00
C113   C     0.45126   0.27570   0.19869   0.00000  Uiso   1.00
C114   C     0.45509   0.22215   0.18912   0.00000  Uiso   1.00
C115   C     0.49140   0.23240   0.16672   0.00000  Uiso   1.00
H116   H     0.49632   0.43690   0.19051   0.00000  Uiso   1.00
H117   H     0.38583   0.43600   0.18341   0.00000  Uiso   1.00
H118   H     0.56878   0.49662   0.23030   0.00000  Uiso   1.00
H119   H     0.54316   0.39534   0.15437   0.00000  Uiso   1.00
H120   H     0.91617   0.74117   0.51433   0.00000  Uiso   1.00
H121   H     0.63529   0.53566   0.27987   0.00000  Uiso   1.00
H122   H     0.58127   0.32209   0.11975   0.00000  Uiso   1.00
H123   H     0.38984   0.22752   0.23253   0.00000  Uiso   1.00
H124   H     0.27350   0.21513   0.22773   0.00000  Uiso   1.00
H125   H     0.45646   0.27576   0.27462   0.00000  Uiso   1.00
H126   H     0.43083   0.17447   0.19869   0.00000  Uiso   1.00
H127   H     0.82500   0.56190   0.55031   0.00000  Uiso   1.00
H128   H     0.54413   0.35640   0.31584   0.00000  Uiso   1.00
H129   H     0.49010   0.14282   0.15573   0.00000  Uiso   1.00
O130   O     0.79598   0.64717   0.52842   0.00000  Uiso   1.00
O131   O     0.63546   0.48154   0.32479   0.00000  Uiso   1.00
O132   O     0.56457   0.20133   0.11472   0.00000  Uiso   1.00
N133   N     0.91068   0.70067   0.52345   0.00000  Uiso   1.00
N134   N     0.60470   0.48685   0.28256   0.00000  Uiso   1.00
N135   N     0.55420   0.28719   0.13287   0.00000  Uiso   1.00
N136   N     0.86162   0.60421   0.54281   0.00000  Uiso   1.00
N137   N     0.55564   0.39039   0.30192   0.00000  Uiso   1.00
N138   N     0.50514   0.19072   0.15222   0.00000  Uiso   1.00
C139   C     0.27773   0.41633   0.53347   0.00000  Uiso   1.00
C140   C     0.30726   0.37105   0.53543   0.00000  Uiso   1.00
C141   C     0.27836   0.30658   0.52631   0.00000  Uiso   1.00
C142   C     0.31328   0.27341   0.52999   0.00000  Uiso   1.00
C143   C     0.01641   0.53184   0.86451   0.00000  Uiso   1.00
C144   C     0.27432   0.43751   0.56091   0.00000  Uiso   1.00
C145   C     0.21771   0.42892   0.57321   0.00000  Uiso   1.00
C146   C     0.22492   0.45171   0.59834   0.00000  Uiso   1.00
C147   C     0.21025   0.48001   0.63907   0.00000  Uiso   1.00
C148   C     0.32935   0.47861   0.51966   0.00000  Uiso   1.00
C149   C     0.31901   0.50460   0.49727   0.00000  Uiso   1.00
C150   C     0.37254   0.56200   0.48766   0.00000  Uiso   1.00
C151   C     0.44331   0.65413   0.46434   0.00000  Uiso   1.00
C152   C     0.39117   0.47208   0.55623   0.00000  Uiso   1.00
C153   C     0.36888   0.40134   0.54780   0.00000  Uiso   1.00
C154   C     0.40386   0.36826   0.55150   0.00000  Uiso   1.00
C155   C     0.04168   0.63708   0.87571   0.00000  Uiso   1.00
C156   C     0.33593   0.46779   0.57328   0.00000  Uiso   1.00
C157   C     0.34322   0.49060   0.59839   0.00000  Uiso   1.00
C158   C     0.28664   0.48204   0.61073   0.00000  Uiso   1.00
C159   C     0.39097   0.50890   0.53202   0.00000  Uiso   1.00
C160   C     0.44452   0.56627   0.52245   0.00000  Uiso   1.00
C161   C     0.43427   0.59234   0.50005   0.00000  Uiso   1.00
H162   H     0.22976   0.39275   0.52384   0.00000  Uiso   1.00
H163   H     0.23067   0.28316   0.51674   0.00000  Uiso   1.00
H164   H     0.17004   0.40549   0.56363   0.00000  Uiso   1.00
H165   H     0.27133   0.48115   0.48770   0.00000  Uiso   1.00
H166   H     0.92550   0.50834   0.84767   0.00000  Uiso   1.00
H167   H     0.13100   0.43296   0.61320   0.00000  Uiso   1.00
H168   H     0.34458   0.59251   0.45309   0.00000  Uiso   1.00
H169   H     0.43914   0.49565   0.56586   0.00000  Uiso   1.00
H170   H     0.45154   0.39171   0.56106   0.00000  Uiso   1.00
H171   H     0.39091   0.51403   0.60796   0.00000  Uiso   1.00
H172   H     0.49219   0.58969   0.53202   0.00000  Uiso   1.00
H173   H     0.10477   0.59644   0.88364   0.00000  Uiso   1.00
H174   H     0.31027   0.52106   0.64918   0.00000  Uiso   1.00
H175   H     0.52384   0.68061   0.48906   0.00000  Uiso   1.00
O176   O     0.01950   0.48215   0.86175   0.00000  Uiso   1.00
O177   O     0.18513   0.48725   0.65813   0.00000  Uiso   1.00
O178   O     0.46533   0.69657   0.44806   0.00000  Uiso   1.00
N179   N     0.96600   0.54334   0.85679   0.00000  Uiso   1.00
N180   N     0.17981   0.45117   0.61589   0.00000  Uiso   1.00
N181   N     0.37948   0.60035   0.46620   0.00000  Uiso   1.00
N182   N     0.06246   0.59075   0.87614   0.00000  Uiso   1.00
N183   N     0.27628   0.49858   0.63525   0.00000  Uiso   1.00
N184   N     0.47594   0.64775   0.48556   0.00000  Uiso   1.00
C185   C     0.94440   0.74966   0.86680   0.00000  Uiso   1.00
C186   C     0.97393   0.70439   0.86877   0.00000  Uiso   1.00
C187   C     0.94502   0.63991   0.85964   0.00000  Uiso   1.00
C188   C     0.97995   0.60675   0.86332   0.00000  Uiso   1.00
C189   C     0.68308   0.86517   0.19784   0.00000  Uiso   1.00
C190   C     0.94099   0.77084   0.89425   0.00000  Uiso   1.00
C191   C     0.88438   0.76225   0.90654   0.00000  Uiso   1.00
C192   C     0.89158   0.78504   0.93167   0.00000  Uiso   1.00
C193   C     0.87691   0.81335   0.97241   0.00000  Uiso   1.00
C194   C     0.99602   0.81195   0.85299   0.00000  Uiso   1.00
C195   C     0.98568   0.83793   0.83060   0.00000  Uiso   1.00
C196   C     0.03921   0.89533   0.82099   0.00000  Uiso   1.00
C197   C     0.10998   0.98746   0.79767   0.00000  Uiso   1.00
C198   C     0.05784   0.80541   0.88957   0.00000  Uiso   1.00
C199   C     0.03554   0.73467   0.88113   0.00000  Uiso   1.00
C200   C     0.07053   0.70159   0.88483   0.00000  Uiso   1.00
C201   C     0.70834   0.97042   0.20904   0.00000  Uiso   1.00
C202   C     0.00260   0.80112   0.90661   0.00000  Uiso   1.00
C203   C     0.00989   0.82393   0.93173   0.00000  Uiso   1.00
C204   C     0.95331   0.81538   0.94406   0.00000  Uiso   1.00
C205   C     0.05763   0.84223   0.86535   0.00000  Uiso   1.00
C206   C     0.11119   0.89961   0.85578   0.00000  Uiso   1.00
C207   C     0.10093   0.92567   0.83338   0.00000  Uiso   1.00
H208   H     0.89643   0.72609   0.85718   0.00000  Uiso   1.00
H209   H     0.89733   0.61650   0.85008   0.00000  Uiso   1.00
H210   H     0.83671   0.73882   0.89697   0.00000  Uiso   1.00
H211   H     0.93799   0.81448   0.82104   0.00000  Uiso   1.00
H212   H     0.59217   0.84167   0.18100   0.00000  Uiso   1.00
H213   H     0.79767   0.76630   0.94654   0.00000  Uiso   1.00
H214   H     0.01124   0.92584   0.78642   0.00000  Uiso   1.00
H215   H     0.10581   0.82899   0.89919   0.00000  Uiso   1.00
H216   H     0.11821   0.72504   0.89440   0.00000  Uiso   1.00
H217   H     0.05758   0.84737   0.94129   0.00000  Uiso   1.00
H218   H     0.15886   0.92303   0.86536   0.00000  Uiso   1.00
H219   H     0.77143   0.92977   0.21697   0.00000  Uiso   1.00
H220   H     0.97694   0.85440   0.98251   0.00000  Uiso   1.00
H221   H     0.19051   0.01394   0.82239   0.00000  Uiso   1.00
O222   O     0.68617   0.81548   0.19508   0.00000  Uiso   1.00
O223   O     0.85179   0.82059   0.99146   0.00000  Uiso   1.00
O224   O     0.13200   0.02990   0.78139   0.00000  Uiso   1.00
N225   N     0.63266   0.87668   0.19012   0.00000  Uiso   1.00
N226   N     0.84648   0.78451   0.94923   0.00000  Uiso   1.00
N227   N     0.04615   0.93368   0.79953   0.00000  Uiso   1.00
N228   N     0.72913   0.92408   0.20948   0.00000  Uiso   1.00
N229   N     0.94294   0.83191   0.96858   0.00000  Uiso   1.00
N230   N     0.14261   0.98109   0.81889   0.00000  Uiso   1.00
C231   C     0.61107   0.08299   0.20013   0.00000  Uiso   1.00
C232   C     0.64060   0.03772   0.20210   0.00000  Uiso   1.00
C233   C     0.61169   0.97325   0.19298   0.00000  Uiso   1.00
C234   C     0.64662   0.94008   0.19666   0.00000  Uiso   1.00
C235   C     0.34975   0.19850   0.53118   0.00000  Uiso   1.00
C236   C     0.60765   0.10418   0.22758   0.00000  Uiso   1.00
C237   C     0.55105   0.09559   0.23988   0.00000  Uiso   1.00
C238   C     0.55825   0.11837   0.26500   0.00000  Uiso   1.00
C239   C     0.54358   0.14668   0.30574   0.00000  Uiso   1.00
C240   C     0.66268   0.14528   0.18632   0.00000  Uiso   1.00
C241   C     0.65235   0.17126   0.16393   0.00000  Uiso   1.00
C242   C     0.70588   0.22867   0.15433   0.00000  Uiso   1.00
C243   C     0.77665   0.32079   0.13101   0.00000  Uiso   1.00
C244   C     0.72450   0.13874   0.22290   0.00000  Uiso   1.00
C245   C     0.70221   0.06800   0.21447   0.00000  Uiso   1.00
C246   C     0.73719   0.03493   0.21816   0.00000  Uiso   1.00
C247   C     0.37501   0.30375   0.54238   0.00000  Uiso   1.00
C248   C     0.66927   0.13446   0.23995   0.00000  Uiso   1.00
C249   C     0.67655   0.15727   0.26506   0.00000  Uiso   1.00
C250   C     0.61998   0.14871   0.27739   0.00000  Uiso   1.00
C251   C     0.72430   0.17556   0.19869   0.00000  Uiso   1.00
C252   C     0.77785   0.23294   0.18912   0.00000  Uiso   1.00
C253   C     0.76760   0.25900   0.16672   0.00000  Uiso   1.00
H254   H     0.56310   0.05942   0.19051   0.00000  Uiso   1.00
H255   H     0.56400   0.94983   0.18341   0.00000  Uiso   1.00
H256   H     0.50338   0.07216   0.23030   0.00000  Uiso   1.00
H257   H     0.60466   0.14782   0.15437   0.00000  Uiso   1.00
H258   H     0.25883   0.17501   0.51433   0.00000  Uiso   1.00
H259   H     0.46434   0.09963   0.27987   0.00000  Uiso   1.00
H260   H     0.67791   0.25918   0.11975   0.00000  Uiso   1.00
H261   H     0.77248   0.16232   0.23253   0.00000  Uiso   1.00
H262   H     0.78487   0.05837   0.22773   0.00000  Uiso   1.00
H263   H     0.72424   0.18070   0.27462   0.00000  Uiso   1.00
H264   H     0.82553   0.25636   0.19869   0.00000  Uiso   1.00
H265   H     0.43810   0.26310   0.55031   0.00000  Uiso   1.00
H266   H     0.64360   0.18773   0.31584   0.00000  Uiso   1.00
H267   H     0.85718   0.34728   0.15573   0.00000  Uiso   1.00
O268   O     0.35283   0.14881   0.52842   0.00000  Uiso   1.00
O269   O     0.51846   0.15392   0.32479   0.00000  Uiso   1.00
O270   O     0.79867   0.36324   0.11472   0.00000  Uiso   1.00
N271   N     0.29933   0.21001   0.52345   0.00000  Uiso   1.00
N272   N     0.51315   0.11784   0.28256   0.00000  Uiso   1.00
N273   N     0.71281   0.26701   0.13287   0.00000  Uiso   1.00
N274   N     0.39579   0.25742   0.54281   0.00000  Uiso   1.00
N275   N     0.60961   0.16525   0.30192   0.00000  Uiso   1.00
N276   N     0.80928   0.31442   0.15222   0.00000  Uiso   1.00
C277   C     0.58367   0.86141   0.53347   0.00000  Uiso   1.00
C278   C     0.62895   0.93621   0.53543   0.00000  Uiso   1.00
C279   C     0.69342   0.97177   0.52631   0.00000  Uiso   1.00
C280   C     0.72659   0.03987   0.52999   0.00000  Uiso   1.00
C281   C     0.46816   0.48458   0.86451   0.00000  Uiso   1.00
C282   C     0.56249   0.83681   0.56091   0.00000  Uiso   1.00
C283   C     0.57108   0.78879   0.57321   0.00000  Uiso   1.00
C284   C     0.54829   0.77321   0.59834   0.00000  Uiso   1.00
C285   C     0.51999   0.73023   0.63907   0.00000  Uiso   1.00
C286   C     0.52139   0.85074   0.51966   0.00000  Uiso   1.00
C287   C     0.49540   0.81441   0.49727   0.00000  Uiso   1.00
C288   C     0.43800   0.81054   0.48766   0.00000  Uiso   1.00
C289   C     0.34587   0.78919   0.46434   0.00000  Uiso   1.00
C290   C     0.52792   0.91909   0.55623   0.00000  Uiso   1.00
C291   C     0.59866   0.96754   0.54780   0.00000  Uiso   1.00
C292   C     0.63174   0.03560   0.55150   0.00000  Uiso   1.00
C293   C     0.36292   0.40459   0.87571   0.00000  Uiso   1.00
C294   C     0.53221   0.86814   0.57328   0.00000  Uiso   1.00
C295   C     0.50940   0.85262   0.59839   0.00000  Uiso   1.00
C296   C     0.51796   0.80460   0.61073   0.00000  Uiso   1.00
C297   C     0.49110   0.88207   0.53202   0.00000  Uiso   1.00
C298   C     0.43373   0.87825   0.52245   0.00000  Uiso   1.00
C299   C     0.40766   0.84193   0.50005   0.00000  Uiso   1.00
H300   H     0.60725   0.83701   0.52384   0.00000  Uiso   1.00
H301   H     0.71684   0.94751   0.51674   0.00000  Uiso   1.00
H302   H     0.59451   0.76455   0.56363   0.00000  Uiso   1.00
H303   H     0.51885   0.79017   0.48770   0.00000  Uiso   1.00
H304   H     0.49166   0.41716   0.84767   0.00000  Uiso   1.00
H305   H     0.56704   0.69804   0.61320   0.00000  Uiso   1.00
H306   H     0.40749   0.75207   0.45309   0.00000  Uiso   1.00
H307   H     0.50435   0.94349   0.56586   0.00000  Uiso   1.00
H308   H     0.60829   0.05983   0.56106   0.00000  Uiso   1.00
H309   H     0.48597   0.87688   0.60796   0.00000  Uiso   1.00
H310   H     0.41031   0.90250   0.53202   0.00000  Uiso   1.00
H311   H     0.40356   0.50833   0.88364   0.00000  Uiso   1.00
H312   H     0.47894   0.78921   0.64918   0.00000  Uiso   1.00
H313   H     0.31939   0.84324   0.48906   0.00000  Uiso   1.00
O314   O     0.51785   0.53735   0.86175   0.00000  Uiso   1.00
O315   O     0.51275   0.69787   0.65813   0.00000  Uiso   1.00
O316   O     0.30343   0.76876   0.44806   0.00000  Uiso   1.00
N317   N     0.45666   0.42265   0.85679   0.00000  Uiso   1.00
N318   N     0.54883   0.72864   0.61589   0.00000  Uiso   1.00
N319   N     0.39965   0.77913   0.46620   0.00000  Uiso   1.00
N320   N     0.40925   0.47171   0.87614   0.00000  Uiso   1.00
N321   N     0.50142   0.77770   0.63525   0.00000  Uiso   1.00
N322   N     0.35225   0.82819   0.48556   0.00000  Uiso   1.00
C323   C     0.25034   0.19474   0.86680   0.00000  Uiso   1.00
C324   C     0.29561   0.26954   0.86877   0.00000  Uiso   1.00
C325   C     0.36009   0.30511   0.85964   0.00000  Uiso   1.00
C326   C     0.39325   0.37320   0.86332   0.00000  Uiso   1.00
C327   C     0.13483   0.81791   0.19784   0.00000  Uiso   1.00
C328   C     0.22916   0.17014   0.89425   0.00000  Uiso   1.00
C329   C     0.23775   0.12213   0.90654   0.00000  Uiso   1.00
C330   C     0.21496   0.10654   0.93167   0.00000  Uiso   1.00
C331   C     0.18665   0.06357   0.97241   0.00000  Uiso   1.00
C332   C     0.18805   0.18407   0.85299   0.00000  Uiso   1.00
C333   C     0.16207   0.14775   0.83060   0.00000  Uiso   1.00
C334   C     0.10467   0.14387   0.82099   0.00000  Uiso   1.00
C335   C     0.01254   0.12252   0.79767   0.00000  Uiso   1.00
C336   C     0.19459   0.25243   0.88957   0.00000  Uiso   1.00
C337   C     0.26533   0.30087   0.88113   0.00000  Uiso   1.00
C338   C     0.29841   0.36893   0.88483   0.00000  Uiso   1.00
C339   C     0.02958   0.73793   0.20904   0.00000  Uiso   1.00
C340   C     0.19888   0.20147   0.90661   0.00000  Uiso   1.00
C341   C     0.17607   0.18595   0.93173   0.00000  Uiso   1.00
C342   C     0.18462   0.13793   0.94406   0.00000  Uiso   1.00
C343   C     0.15777   0.21540   0.86535   0.00000  Uiso   1.00
C344   C     0.10039   0.21158   0.85578   0.00000  Uiso   1.00
C345   C     0.07433   0.17526   0.83338   0.00000  Uiso   1.00
H346   H     0.27391   0.17034   0.85718   0.00000  Uiso   1.00
H347   H     0.38350   0.28084   0.85008   0.00000  Uiso   1.00
H348   H     0.26118   0.09788   0.89697   0.00000  Uiso   1.00
H349   H     0.18552   0.12351   0.82104   0.00000  Uiso   1.00
H350   H     0.15833   0.75049   0.18100   0.00000  Uiso   1.00
H351   H     0.23370   0.03137   0.94654   0.00000  Uiso   1.00
H352   H     0.07416   0.08540   0.78642   0.00000  Uiso   1.00
H353   H     0.17101   0.27682   0.89919   0.00000  Uiso   1.00
H354   H     0.27496   0.39317   0.89440   0.00000  Uiso   1.00
H355   H     0.15263   0.21021   0.94129   0.00000  Uiso   1.00
H356   H     0.07697   0.23583   0.86536   0.00000  Uiso   1.00
H357   H     0.07023   0.84166   0.21697   0.00000  Uiso   1.00
H358   H     0.14560   0.12254   0.98251   0.00000  Uiso   1.00
H359   H     0.98606   0.17657   0.82239   0.00000  Uiso   1.00
O360   O     0.18452   0.87069   0.19508   0.00000  Uiso   1.00
O361   O     0.17941   0.03121   0.99146   0.00000  Uiso   1.00
O362   O     0.97010   0.10209   0.78139   0.00000  Uiso   1.00
N363   N     0.12332   0.75599   0.19012   0.00000  Uiso   1.00
N364   N     0.21549   0.06197   0.94923   0.00000  Uiso   1.00
N365   N     0.06632   0.11247   0.79953   0.00000  Uiso   1.00
N366   N     0.07592   0.80504   0.20948   0.00000  Uiso   1.00
N367   N     0.16809   0.11103   0.96858   0.00000  Uiso   1.00
N368   N     0.01891   0.16152   0.81889   0.00000  Uiso   1.00
C369   C     0.91701   0.52807   0.20013   0.00000  Uiso   1.00
C370   C     0.96228   0.60287   0.20210   0.00000  Uiso   1.00
C371   C     0.02675   0.63844   0.19298   0.00000  Uiso   1.00
C372   C     0.05992   0.70654   0.19666   0.00000  Uiso   1.00
C373   C     0.80150   0.15125   0.53118   0.00000  Uiso   1.00
C374   C     0.89582   0.50348   0.22758   0.00000  Uiso   1.00
C375   C     0.90441   0.45546   0.23988   0.00000  Uiso   1.00
C376   C     0.88163   0.43988   0.26500   0.00000  Uiso   1.00
C377   C     0.85332   0.39690   0.30574   0.00000  Uiso   1.00
C378   C     0.85472   0.51740   0.18632   0.00000  Uiso   1.00
C379   C     0.82874   0.48108   0.16393   0.00000  Uiso   1.00
C380   C     0.77133   0.47721   0.15433   0.00000  Uiso   1.00
C381   C     0.67921   0.45585   0.13101   0.00000  Uiso   1.00
C382   C     0.86126   0.58576   0.22290   0.00000  Uiso   1.00
C383   C     0.93200   0.63421   0.21447   0.00000  Uiso   1.00
C384   C     0.96507   0.70227   0.21816   0.00000  Uiso   1.00
C385   C     0.69625   0.07126   0.54238   0.00000  Uiso   1.00
C386   C     0.86554   0.53481   0.23995   0.00000  Uiso   1.00
C387   C     0.84273   0.51929   0.26506   0.00000  Uiso   1.00
C388   C     0.85129   0.47127   0.27739   0.00000  Uiso   1.00
C389   C     0.82444   0.54874   0.19869   0.00000  Uiso   1.00
C390   C     0.76706   0.54491   0.18912   0.00000  Uiso   1.00
C391   C     0.74100   0.50860   0.16672   0.00000  Uiso   1.00
H392   H     0.94058   0.50368   0.19051   0.00000  Uiso   1.00
H393   H     0.05017   0.61417   0.18341   0.00000  Uiso   1.00
H394   H     0.92784   0.43122   0.23030   0.00000  Uiso   1.00
H395   H     0.85218   0.45684   0.15437   0.00000  Uiso   1.00
H396   H     0.82499   0.08383   0.51433   0.00000  Uiso   1.00
H397   H     0.90037   0.36471   0.27987   0.00000  Uiso   1.00
H398   H     0.74082   0.41873   0.11975   0.00000  Uiso   1.00
H399   H     0.83768   0.61016   0.23253   0.00000  Uiso   1.00
H400   H     0.94163   0.72650   0.22773   0.00000  Uiso   1.00
H401   H     0.81930   0.54354   0.27462   0.00000  Uiso   1.00
H402   H     0.74364   0.56917   0.19869   0.00000  Uiso   1.00
H403   H     0.73690   0.17500   0.55031   0.00000  Uiso   1.00
H404   H     0.81227   0.45587   0.31584   0.00000  Uiso   1.00
H405   H     0.65272   0.50990   0.15573   0.00000  Uiso   1.00
O406   O     0.85119   0.20402   0.52842   0.00000  Uiso   1.00
O407   O     0.84608   0.36454   0.32479   0.00000  Uiso   1.00
O408   O     0.63676   0.43543   0.11472   0.00000  Uiso   1.00
N409   N     0.78999   0.08932   0.52345   0.00000  Uiso   1.00
N410   N     0.88216   0.39530   0.28256   0.00000  Uiso   1.00
N411   N     0.73299   0.44580   0.13287   0.00000  Uiso   1.00
N412   N     0.74258   0.13838   0.54281   0.00000  Uiso   1.00
N413   N     0.83475   0.44436   0.30192   0.00000  Uiso   1.00
N414   N     0.68558   0.49486   0.15222   0.00000  Uiso   1.00
C415   C     0.72227   0.13859   0.96653   0.00000  Uiso   1.00
C416   C     0.69274   0.06379   0.96457   0.00000  Uiso   1.00
C417   C     0.72164   0.02823   0.97369   0.00000  Uiso   1.00
C418   C     0.68672   0.96013   0.97001   0.00000  Uiso   1.00
C419   C     0.98359   0.51542   0.63549   0.00000  Uiso   1.00
C420   C     0.72568   0.16319   0.93909   0.00000  Uiso   1.00
C421   C     0.78229   0.21121   0.92679   0.00000  Uiso   1.00
C422   C     0.77508   0.22679   0.90166   0.00000  Uiso   1.00
C423   C     0.78975   0.26977   0.86093   0.00000  Uiso   1.00
C424   C     0.67065   0.14926   0.98034   0.00000  Uiso   1.00
C425   C     0.68099   0.18559   0.00273   0.00000  Uiso   1.00
C426   C     0.62746   0.18946   0.01234   0.00000  Uiso   1.00
C427   C     0.55669   0.21081   0.03566   0.00000  Uiso   1.00
C428   C     0.60883   0.08091   0.94377   0.00000  Uiso   1.00
C429   C     0.63112   0.03246   0.95220   0.00000  Uiso   1.00
C430   C     0.59614   0.96440   0.94850   0.00000  Uiso   1.00
C431   C     0.95832   0.59541   0.62429   0.00000  Uiso   1.00
C432   C     0.66407   0.13186   0.92672   0.00000  Uiso   1.00
C433   C     0.65678   0.14738   0.90161   0.00000  Uiso   1.00
C434   C     0.71336   0.19540   0.88927   0.00000  Uiso   1.00
C435   C     0.60903   0.11793   0.96798   0.00000  Uiso   1.00
C436   C     0.55548   0.12175   0.97755   0.00000  Uiso   1.00
C437   C     0.56573   0.15807   0.99995   0.00000  Uiso   1.00
H438   H     0.77024   0.16299   0.97616   0.00000  Uiso   1.00
H439   H     0.76933   0.05249   0.98326   0.00000  Uiso   1.00
H440   H     0.82996   0.23545   0.93637   0.00000  Uiso   1.00
H441   H     0.72867   0.20983   0.01230   0.00000  Uiso   1.00
H442   H     0.07450   0.58284   0.65233   0.00000  Uiso   1.00
H443   H     0.86900   0.30196   0.88680   0.00000  Uiso   1.00
H444   H     0.65542   0.24793   0.04691   0.00000  Uiso   1.00
H445   H     0.56086   0.05651   0.93414   0.00000  Uiso   1.00
H446   H     0.54846   0.94017   0.93894   0.00000  Uiso   1.00
H447   H     0.60909   0.12312   0.89204   0.00000  Uiso   1.00
H448   H     0.50781   0.09750   0.96798   0.00000  Uiso   1.00
H449   H     0.89523   0.49167   0.61636   0.00000  Uiso   1.00
H450   H     0.68973   0.21079   0.85082   0.00000  Uiso   1.00
H451   H     0.47616   0.15676   0.01094   0.00000  Uiso   1.00
O452   O     0.98050   0.46265   0.63825   0.00000  Uiso   1.00
O453   O     0.81487   0.30213   0.84187   0.00000  Uiso   1.00
O454   O     0.53467   0.23124   0.05194   0.00000  Uiso   1.00
N455   N     0.03400   0.57735   0.64321   0.00000  Uiso   1.00
N456   N     0.82019   0.27136   0.88411   0.00000  Uiso   1.00
N457   N     0.62052   0.22087   0.03380   0.00000  Uiso   1.00
N458   N     0.93754   0.52829   0.62386   0.00000  Uiso   1.00
N459   N     0.72372   0.22230   0.86475   0.00000  Uiso   1.00
N460   N     0.52406   0.17181   0.01444   0.00000  Uiso   1.00
C461   C     0.38893   0.47193   0.29987   0.00000  Uiso   1.00
C462   C     0.35940   0.39713   0.29790   0.00000  Uiso   1.00
C463   C     0.38831   0.36156   0.30702   0.00000  Uiso   1.00
C464   C     0.35338   0.29346   0.30334   0.00000  Uiso   1.00
C465   C     0.65025   0.84875   0.96882   0.00000  Uiso   1.00
C466   C     0.39235   0.49652   0.27242   0.00000  Uiso   1.00
C467   C     0.44895   0.54454   0.26012   0.00000  Uiso   1.00
C468   C     0.44175   0.56012   0.23500   0.00000  Uiso   1.00
C469   C     0.45642   0.60310   0.19426   0.00000  Uiso   1.00
C470   C     0.33732   0.48260   0.31368   0.00000  Uiso   1.00
C471   C     0.34765   0.51892   0.33607   0.00000  Uiso   1.00
C472   C     0.29412   0.52279   0.34567   0.00000  Uiso   1.00
C473   C     0.22335   0.54415   0.36899   0.00000  Uiso   1.00
C474   C     0.27550   0.41424   0.27710   0.00000  Uiso   1.00
C475   C     0.29779   0.36579   0.28553   0.00000  Uiso   1.00
C476   C     0.26281   0.29773   0.28184   0.00000  Uiso   1.00
C477   C     0.62499   0.92874   0.95762   0.00000  Uiso   1.00
C478   C     0.33073   0.46519   0.26005   0.00000  Uiso   1.00
C479   C     0.32345   0.48071   0.23494   0.00000  Uiso   1.00
C480   C     0.38002   0.52873   0.22261   0.00000  Uiso   1.00
C481   C     0.27570   0.45126   0.30131   0.00000  Uiso   1.00
C482   C     0.22215   0.45509   0.31088   0.00000  Uiso   1.00
C483   C     0.23240   0.49140   0.33328   0.00000  Uiso   1.00
H484   H     0.43690   0.49632   0.30949   0.00000  Uiso   1.00
H485   H     0.43600   0.38583   0.31659   0.00000  Uiso   1.00
H486   H     0.49662   0.56878   0.26970   0.00000  Uiso   1.00
H487   H     0.39534   0.54316   0.34563   0.00000  Uiso   1.00
H488   H     0.74117   0.91617   0.98567   0.00000  Uiso   1.00
H489   H     0.53566   0.63529   0.22013   0.00000  Uiso   1.00
H490   H     0.32209   0.58127   0.38025   0.00000  Uiso   1.00
H491   H     0.22752   0.38984   0.26747   0.00000  Uiso   1.00
H492   H     0.21513   0.27350   0.27227   0.00000  Uiso   1.00
H493   H     0.27576   0.45646   0.22538   0.00000  Uiso   1.00
H494   H     0.17447   0.43083   0.30131   0.00000  Uiso   1.00
H495   H     0.56190   0.82500   0.94969   0.00000  Uiso   1.00
H496   H     0.35640   0.54413   0.18416   0.00000  Uiso   1.00
H497   H     0.14282   0.49010   0.34427   0.00000  Uiso   1.00
O498   O     0.64717   0.79598   0.97158   0.00000  Uiso   1.00
O499   O     0.48154   0.63546   0.17521   0.00000  Uiso   1.00
O500   O     0.20133   0.56457   0.38528   0.00000  Uiso   1.00
N501   N     0.70067   0.91068   0.97655   0.00000  Uiso   1.00
N502   N     0.48685   0.60470   0.21744   0.00000  Uiso   1.00
N503   N     0.28719   0.55420   0.36713   0.00000  Uiso   1.00
N504   N     0.60421   0.86162   0.95719   0.00000  Uiso   1.00
N505   N     0.39039   0.55564   0.19808   0.00000  Uiso   1.00
N506   N     0.19072   0.50514   0.34778   0.00000  Uiso   1.00
C507   C     0.05560   0.80526   0.63320   0.00000  Uiso   1.00
C508   C     0.02607   0.73046   0.63123   0.00000  Uiso   1.00
C509   C     0.05498   0.69489   0.64036   0.00000  Uiso   1.00
C510   C     0.02005   0.62680   0.63668   0.00000  Uiso   1.00
C511   C     0.31692   0.18209   0.30216   0.00000  Uiso   1.00
C512   C     0.05901   0.82986   0.60575   0.00000  Uiso   1.00
C513   C     0.11562   0.87787   0.59346   0.00000  Uiso   1.00
C514   C     0.10842   0.89346   0.56833   0.00000  Uiso   1.00
C515   C     0.12309   0.93643   0.52759   0.00000  Uiso   1.00
C516   C     0.00398   0.81593   0.64701   0.00000  Uiso   1.00
C517   C     0.01432   0.85225   0.66940   0.00000  Uiso   1.00
C518   C     0.96079   0.85613   0.67901   0.00000  Uiso   1.00
C519   C     0.89002   0.87748   0.70233   0.00000  Uiso   1.00
C520   C     0.94216   0.74757   0.61043   0.00000  Uiso   1.00
C521   C     0.96446   0.69913   0.61887   0.00000  Uiso   1.00
C522   C     0.92947   0.63107   0.61517   0.00000  Uiso   1.00
C523   C     0.29166   0.26207   0.29096   0.00000  Uiso   1.00
C524   C     0.99740   0.79853   0.59339   0.00000  Uiso   1.00
C525   C     0.99011   0.81405   0.56827   0.00000  Uiso   1.00
C526   C     0.04669   0.86207   0.55594   0.00000  Uiso   1.00
C527   C     0.94237   0.78460   0.63465   0.00000  Uiso   1.00
C528   C     0.88881   0.78842   0.64422   0.00000  Uiso   1.00
C529   C     0.89907   0.82474   0.66662   0.00000  Uiso   1.00
H530   H     0.10357   0.82966   0.64282   0.00000  Uiso   1.00
H531   H     0.10267   0.71916   0.64992   0.00000  Uiso   1.00
H532   H     0.16329   0.90212   0.60303   0.00000  Uiso   1.00
H533   H     0.06201   0.87649   0.67896   0.00000  Uiso   1.00
H534   H     0.40783   0.24951   0.31900   0.00000  Uiso   1.00
H535   H     0.20233   0.96863   0.55346   0.00000  Uiso   1.00
H536   H     0.98876   0.91460   0.71358   0.00000  Uiso   1.00
H537   H     0.89419   0.72318   0.60081   0.00000  Uiso   1.00
H538   H     0.88179   0.60683   0.60560   0.00000  Uiso   1.00
H539   H     0.94242   0.78979   0.55871   0.00000  Uiso   1.00
H540   H     0.84114   0.76417   0.63464   0.00000  Uiso   1.00
H541   H     0.22857   0.15834   0.28303   0.00000  Uiso   1.00
H542   H     0.02306   0.87746   0.51749   0.00000  Uiso   1.00
H543   H     0.80949   0.82343   0.67761   0.00000  Uiso   1.00
O544   O     0.31383   0.12931   0.30492   0.00000  Uiso   1.00
O545   O     0.14821   0.96879   0.50854   0.00000  Uiso   1.00
O546   O     0.86800   0.89791   0.71861   0.00000  Uiso   1.00
N547   N     0.36734   0.24401   0.30988   0.00000  Uiso   1.00
N548   N     0.15352   0.93803   0.55077   0.00000  Uiso   1.00
N549   N     0.95385   0.88753   0.70047   0.00000  Uiso   1.00
N550   N     0.27087   0.19496   0.29052   0.00000  Uiso   1.00
N551   N     0.05706   0.88897   0.53142   0.00000  Uiso   1.00
N552   N     0.85739   0.83848   0.68111   0.00000  Uiso   1.00
C553   C     0.41633   0.27773   0.96653   0.00000  Uiso   1.00
C554   C     0.37105   0.30726   0.96457   0.00000  Uiso   1.00
C555   C     0.30658   0.27836   0.97369   0.00000  Uiso   1.00
C556   C     0.27341   0.31328   0.97001   0.00000  Uiso   1.00
C557   C     0.53184   0.01641   0.63549   0.00000  Uiso   1.00
C558   C     0.43751   0.27432   0.93909   0.00000  Uiso   1.00
C559   C     0.42892   0.21771   0.92679   0.00000  Uiso   1.00
C560   C     0.45171   0.22492   0.90166   0.00000  Uiso   1.00
C561   C     0.48001   0.21025   0.86093   0.00000  Uiso   1.00
C562   C     0.47861   0.32935   0.98034   0.00000  Uiso   1.00
C563   C     0.50460   0.31901   0.00273   0.00000  Uiso   1.00
C564   C     0.56200   0.37254   0.01234   0.00000  Uiso   1.00
C565   C     0.65413   0.44331   0.03566   0.00000  Uiso   1.00
C566   C     0.47208   0.39117   0.94377   0.00000  Uiso   1.00
C567   C     0.40134   0.36888   0.95220   0.00000  Uiso   1.00
C568   C     0.36826   0.40386   0.94850   0.00000  Uiso   1.00
C569   C     0.63708   0.04168   0.62429   0.00000  Uiso   1.00
C570   C     0.46779   0.33593   0.92672   0.00000  Uiso   1.00
C571   C     0.49060   0.34322   0.90161   0.00000  Uiso   1.00
C572   C     0.48204   0.28664   0.88927   0.00000  Uiso   1.00
C573   C     0.50890   0.39097   0.96798   0.00000  Uiso   1.00
C574   C     0.56627   0.44452   0.97755   0.00000  Uiso   1.00
C575   C     0.59234   0.43427   0.99995   0.00000  Uiso   1.00
H576   H     0.39275   0.22976   0.97616   0.00000  Uiso   1.00
H577   H     0.28316   0.23067   0.98326   0.00000  Uiso   1.00
H578   H     0.40549   0.17004   0.93637   0.00000  Uiso   1.00
H579   H     0.48115   0.27133   0.01230   0.00000  Uiso   1.00
H580   H     0.50834   0.92550   0.65233   0.00000  Uiso   1.00
H581   H     0.43296   0.13100   0.88680   0.00000  Uiso   1.00
H582   H     0.59251   0.34458   0.04691   0.00000  Uiso   1.00
H583   H     0.49565   0.43914   0.93414   0.00000  Uiso   1.00
H584   H     0.39171   0.45154   0.93894   0.00000  Uiso   1.00
H585   H     0.51403   0.39091   0.89204   0.00000  Uiso   1.00
H586   H     0.58969   0.49219   0.96798   0.00000  Uiso   1.00
H587   H     0.59644   0.10477   0.61636   0.00000  Uiso   1.00
H588   H     0.52106   0.31027   0.85082   0.00000  Uiso   1.00
H589   H     0.68061   0.52384   0.01094   0.00000  Uiso   1.00
O590   O     0.48215   0.01950   0.63825   0.00000  Uiso   1.00
O591   O     0.48725   0.18513   0.84187   0.00000  Uiso   1.00
O592   O     0.69657   0.46533   0.05194   0.00000  Uiso   1.00
N593   N     0.54334   0.96600   0.64321   0.00000  Uiso   1.00
N594   N     0.45117   0.17981   0.88411   0.00000  Uiso   1.00
N595   N     0.60035   0.37948   0.03380   0.00000  Uiso   1.00
N596   N     0.59075   0.06246   0.62386   0.00000  Uiso   1.00
N597   N     0.49858   0.27628   0.86475   0.00000  Uiso   1.00
N598   N     0.64775   0.47594   0.01444   0.00000  Uiso   1.00
C599   C     0.08299   0.61107   0.29987   0.00000  Uiso   1.00
C600   C     0.03772   0.64060   0.29790   0.00000  Uiso   1.00
C601   C     0.97325   0.61169   0.30702   0.00000  Uiso   1.00
C602   C     0.94008   0.64662   0.30334   0.00000  Uiso   1.00
C603   C     0.19850   0.34975   0.96882   0.00000  Uiso   1.00
C604   C     0.10418   0.60765   0.27242   0.00000  Uiso   1.00
C605   C     0.09559   0.55105   0.26012   0.00000  Uiso   1.00
C606   C     0.11837   0.55825   0.23500   0.00000  Uiso   1.00
C607   C     0.14668   0.54358   0.19426   0.00000  Uiso   1.00
C608   C     0.14528   0.66268   0.31368   0.00000  Uiso   1.00
C609   C     0.17126   0.65235   0.33607   0.00000  Uiso   1.00
C610   C     0.22867   0.70588   0.34567   0.00000  Uiso   1.00
C611   C     0.32079   0.77665   0.36899   0.00000  Uiso   1.00
C612   C     0.13874   0.72450   0.27710   0.00000  Uiso   1.00
C613   C     0.06800   0.70221   0.28553   0.00000  Uiso   1.00
C614   C     0.03493   0.73719   0.28184   0.00000  Uiso   1.00
C615   C     0.30375   0.37501   0.95762   0.00000  Uiso   1.00
C616   C     0.13446   0.66927   0.26005   0.00000  Uiso   1.00
C617   C     0.15727   0.67655   0.23494   0.00000  Uiso   1.00
C618   C     0.14871   0.61998   0.22261   0.00000  Uiso   1.00
C619   C     0.17556   0.72430   0.30131   0.00000  Uiso   1.00
C620   C     0.23294   0.77785   0.31088   0.00000  Uiso   1.00
C621   C     0.25900   0.76760   0.33328   0.00000  Uiso   1.00
H622   H     0.05942   0.56310   0.30949   0.00000  Uiso   1.00
H623   H     0.94983   0.56400   0.31659   0.00000  Uiso   1.00
H624   H     0.07216   0.50338   0.26970   0.00000  Uiso   1.00
H625   H     0.14782   0.60466   0.34563   0.00000  Uiso   1.00
H626   H     0.17501   0.25883   0.98567   0.00000  Uiso   1.00
H627   H     0.09963   0.46434   0.22013   0.00000  Uiso   1.00
H628   H     0.25918   0.67791   0.38025   0.00000  Uiso   1.00
H629   H     0.16232   0.77248   0.26747   0.00000  Uiso   1.00
H630   H     0.05837   0.78487   0.27227   0.00000  Uiso   1.00
H631   H     0.18070   0.72424   0.22538   0.00000  Uiso   1.00
H632   H     0.25636   0.82553   0.30131   0.00000  Uiso   1.00
H633   H     0.26310   0.43810   0.94969   0.00000  Uiso   1.00
H634   H     0.18773   0.64360   0.18416   0.00000  Uiso   1.00
H635   H     0.34728   0.85718   0.34427   0.00000  Uiso   1.00
O636   O     0.14881   0.35283   0.97158   0.00000  Uiso   1.00
O637   O     0.15392   0.51846   0.17521   0.00000  Uiso   1.00
O638   O     0.36324   0.79867   0.38528   0.00000  Uiso   1.00
N639   N     0.21001   0.29933   0.97655   0.00000  Uiso   1.00
N640   N     0.11784   0.51315   0.21744   0.00000  Uiso   1.00
N641   N     0.26701   0.71281   0.36713   0.00000  Uiso   1.00
N642   N     0.25742   0.39579   0.95719   0.00000  Uiso   1.00
N643   N     0.16525   0.60961   0.19808   0.00000  Uiso   1.00
N644   N     0.31442   0.80928   0.34778   0.00000  Uiso   1.00
C645   C     0.74966   0.94440   0.63320   0.00000  Uiso   1.00
C646   C     0.70439   0.97393   0.63123   0.00000  Uiso   1.00
C647   C     0.63991   0.94502   0.64036   0.00000  Uiso   1.00
C648   C     0.60675   0.97995   0.63668   0.00000  Uiso   1.00
C649   C     0.86517   0.68308   0.30216   0.00000  Uiso   1.00
C650   C     0.77084   0.94099   0.60575   0.00000  Uiso   1.00
C651   C     0.76225   0.88438   0.59346   0.00000  Uiso   1.00
C652   C     0.78504   0.89158   0.56833   0.00000  Uiso   1.00
C653   C     0.81335   0.87691   0.52759   0.00000  Uiso   1.00
C654   C     0.81195   0.99602   0.64701   0.00000  Uiso   1.00
C655   C     0.83793   0.98568   0.66940   0.00000  Uiso   1.00
C656   C     0.89533   0.03921   0.67901   0.00000  Uiso   1.00
C657   C     0.98746   0.10998   0.70233   0.00000  Uiso   1.00
C658   C     0.80541   0.05784   0.61043   0.00000  Uiso   1.00
C659   C     0.73467   0.03554   0.61887   0.00000  Uiso   1.00
C660   C     0.70159   0.07053   0.61517   0.00000  Uiso   1.00
C661   C     0.97042   0.70834   0.29096   0.00000  Uiso   1.00
C662   C     0.80112   0.00260   0.59339   0.00000  Uiso   1.00
C663   C     0.82393   0.00989   0.56827   0.00000  Uiso   1.00
C664   C     0.81538   0.95331   0.55594   0.00000  Uiso   1.00
C665   C     0.84223   0.05763   0.63465   0.00000  Uiso   1.00
C666   C     0.89961   0.11119   0.64422   0.00000  Uiso   1.00
C667   C     0.92567   0.10093   0.66662   0.00000  Uiso   1.00
H668   H     0.72609   0.89643   0.64282   0.00000  Uiso   1.00
H669   H     0.61650   0.89733   0.64992   0.00000  Uiso   1.00
H670   H     0.73882   0.83671   0.60303   0.00000  Uiso   1.00
H671   H     0.81448   0.93799   0.67896   0.00000  Uiso   1.00
H672   H     0.84167   0.59217   0.31900   0.00000  Uiso   1.00
H673   H     0.76630   0.79767   0.55346   0.00000  Uiso   1.00
H674   H     0.92584   0.01124   0.71358   0.00000  Uiso   1.00
H675   H     0.82899   0.10581   0.60081   0.00000  Uiso   1.00
H676   H     0.72504   0.11821   0.60560   0.00000  Uiso   1.00
H677   H     0.84737   0.05758   0.55871   0.00000  Uiso   1.00
H678   H     0.92303   0.15886   0.63464   0.00000  Uiso   1.00
H679   H     0.92977   0.77143   0.28303   0.00000  Uiso   1.00
H680   H     0.85440   0.97694   0.51749   0.00000  Uiso   1.00
H681   H     0.01394   0.19051   0.67761   0.00000  Uiso   1.00
O682   O     0.81548   0.68617   0.30492   0.00000  Uiso   1.00
O683   O     0.82059   0.85179   0.50854   0.00000  Uiso   1.00
O684   O     0.02990   0.13200   0.71861   0.00000  Uiso   1.00
N685   N     0.87668   0.63266   0.30988   0.00000  Uiso   1.00
N686   N     0.78451   0.84648   0.55077   0.00000  Uiso   1.00
N687   N     0.93368   0.04615   0.70047   0.00000  Uiso   1.00
N688   N     0.92408   0.72913   0.29052   0.00000  Uiso   1.00
N689   N     0.83191   0.94294   0.53142   0.00000  Uiso   1.00
N690   N     0.98109   0.14261   0.68111   0.00000  Uiso   1.00
C691   C     0.86141   0.58367   0.96653   0.00000  Uiso   1.00
C692   C     0.93621   0.62895   0.96457   0.00000  Uiso   1.00
C693   C     0.97177   0.69342   0.97369   0.00000  Uiso   1.00
C694   C     0.03987   0.72659   0.97001   0.00000  Uiso   1.00
C695   C     0.48458   0.46816   0.63549   0.00000  Uiso   1.00
C696   C     0.83681   0.56249   0.93909   0.00000  Uiso   1.00
C697   C     0.78879   0.57108   0.92679   0.00000  Uiso   1.00
C698   C     0.77321   0.54829   0.90166   0.00000  Uiso   1.00
C699   C     0.73023   0.51999   0.86093   0.00000  Uiso   1.00
C700   C     0.85074   0.52139   0.98034   0.00000  Uiso   1.00
C701   C     0.81441   0.49540   0.00273   0.00000  Uiso   1.00
C702   C     0.81054   0.43800   0.01234   0.00000  Uiso   1.00
C703   C     0.78919   0.34587   0.03566   0.00000  Uiso   1.00
C704   C     0.91909   0.52792   0.94377   0.00000  Uiso   1.00
C705   C     0.96754   0.59866   0.95220   0.00000  Uiso   1.00
C706   C     0.03560   0.63174   0.94850   0.00000  Uiso   1.00
C707   C     0.40459   0.36292   0.62429   0.00000  Uiso   1.00
C708   C     0.86814   0.53221   0.92672   0.00000  Uiso   1.00
C709   C     0.85262   0.50940   0.90161   0.00000  Uiso   1.00
C710   C     0.80460   0.51796   0.88927   0.00000  Uiso   1.00
C711   C     0.88207   0.49110   0.96798   0.00000  Uiso   1.00
C712   C     0.87825   0.43373   0.97755   0.00000  Uiso   1.00
C713   C     0.84193   0.40766   0.99995   0.00000  Uiso   1.00
H714   H     0.83701   0.60725   0.97616   0.00000  Uiso   1.00
H715   H     0.94751   0.71684   0.98326   0.00000  Uiso   1.00
H716   H     0.76455   0.59451   0.93637   0.00000  Uiso   1.00
H717   H     0.79017   0.51885   0.01230   0.00000  Uiso   1.00
H718   H     0.41716   0.49166   0.65233   0.00000  Uiso   1.00
H719   H     0.69804   0.56704   0.88680   0.00000  Uiso   1.00
H720   H     0.75207   0.40749   0.04691   0.00000  Uiso   1.00
H721   H     0.94349   0.50435   0.93414   0.00000  Uiso   1.00
H722   H     0.05983   0.60829   0.93894   0.00000  Uiso   1.00
H723   H     0.87688   0.48597   0.89204   0.00000  Uiso   1.00
H724   H     0.90250   0.41031   0.96798   0.00000  Uiso   1.00
H725   H     0.50833   0.40356   0.61636   0.00000  Uiso   1.00
H726   H     0.78921   0.47894   0.85082   0.00000  Uiso   1.00
H727   H     0.84324   0.31939   0.01094   0.00000  Uiso   1.00
O728   O     0.53735   0.51785   0.63825   0.00000  Uiso   1.00
O729   O     0.69787   0.51275   0.84187   0.00000  Uiso   1.00
O730   O     0.76876   0.30343   0.05194   0.00000  Uiso   1.00
N731   N     0.42265   0.45666   0.64321   0.00000  Uiso   1.00
N732   N     0.72864   0.54883   0.88411   0.00000  Uiso   1.00
N733   N     0.77913   0.39965   0.03380   0.00000  Uiso   1.00
N734   N     0.47171   0.40925   0.62386   0.00000  Uiso   1.00
N735   N     0.77770   0.50142   0.86475   0.00000  Uiso   1.00
N736   N     0.82819   0.35225   0.01444   0.00000  Uiso   1.00
C737   C     0.52807   0.91701   0.29987   0.00000  Uiso   1.00
C738   C     0.60287   0.96228   0.29790   0.00000  Uiso   1.00
C739   C     0.63844   0.02675   0.30702   0.00000  Uiso   1.00
C740   C     0.70654   0.05992   0.30334   0.00000  Uiso   1.00
C741   C     0.15125   0.80150   0.96882   0.00000  Uiso   1.00
C742   C     0.50348   0.89582   0.27242   0.00000  Uiso   1.00
C743   C     0.45546   0.90441   0.26012   0.00000  Uiso   1.00
C744   C     0.43988   0.88163   0.23500   0.00000  Uiso   1.00
C745   C     0.39690   0.85332   0.19426   0.00000  Uiso   1.00
C746   C     0.51740   0.85472   0.31368   0.00000  Uiso   1.00
C747   C     0.48108   0.82874   0.33607   0.00000  Uiso   1.00
C748   C     0.47721   0.77133   0.34567   0.00000  Uiso   1.00
C749   C     0.45585   0.67921   0.36899   0.00000  Uiso   1.00
C750   C     0.58576   0.86126   0.27710   0.00000  Uiso   1.00
C751   C     0.63421   0.93200   0.28553   0.00000  Uiso   1.00
C752   C     0.70227   0.96507   0.28184   0.00000  Uiso   1.00
C753   C     0.07126   0.69625   0.95762   0.00000  Uiso   1.00
C754   C     0.53481   0.86554   0.26005   0.00000  Uiso   1.00
C755   C     0.51929   0.84273   0.23494   0.00000  Uiso   1.00
C756   C     0.47127   0.85129   0.22261   0.00000  Uiso   1.00
C757   C     0.54874   0.82444   0.30131   0.00000  Uiso   1.00
C758   C     0.54491   0.76706   0.31088   0.00000  Uiso   1.00
C759   C     0.50860   0.74100   0.33328   0.00000  Uiso   1.00
H760   H     0.50368   0.94058   0.30949   0.00000  Uiso   1.00
H761   H     0.61417   0.05017   0.31659   0.00000  Uiso   1.00
H762   H     0.43122   0.92784   0.26970   0.00000  Uiso   1.00
H763   H     0.45684   0.85218   0.34563   0.00000  Uiso   1.00
H764   H     0.08383   0.82499   0.98567   0.00000  Uiso   1.00
H765   H     0.36471   0.90037   0.22013   0.00000  Uiso   1.00
H766   H     0.41873   0.74082   0.38025   0.00000  Uiso   1.00
H767   H     0.61016   0.83768   0.26747   0.00000  Uiso   1.00
H768   H     0.72650   0.94163   0.27227   0.00000  Uiso   1.00
H769   H     0.54354   0.81930   0.22538   0.00000  Uiso   1.00
H770   H     0.56917   0.74364   0.30131   0.00000  Uiso   1.00
H771   H     0.17500   0.73690   0.94969   0.00000  Uiso   1.00
H772   H     0.45587   0.81227   0.18416   0.00000  Uiso   1.00
H773   H     0.50990   0.65272   0.34427   0.00000  Uiso   1.00
O774   O     0.20402   0.85119   0.97158   0.00000  Uiso   1.00
O775   O     0.36454   0.84608   0.17521   0.00000  Uiso   1.00
O776   O     0.43543   0.63676   0.38528   0.00000  Uiso   1.00
N777   N     0.08932   0.78999   0.97655   0.00000  Uiso   1.00
N778   N     0.39530   0.88216   0.21744   0.00000  Uiso   1.00
N779   N     0.44580   0.73299   0.36713   0.00000  Uiso   1.00
N780   N     0.13838   0.74258   0.95719   0.00000  Uiso   1.00
N781   N     0.44436   0.83475   0.19808   0.00000  Uiso   1.00
N782   N     0.49486   0.68558   0.34778   0.00000  Uiso   1.00
C783   C     0.19474   0.25034   0.63320   0.00000  Uiso   1.00
C784   C     0.26954   0.29561   0.63123   0.00000  Uiso   1.00
C785   C     0.30511   0.36009   0.64036   0.00000  Uiso   1.00
C786   C     0.37320   0.39325   0.63668   0.00000  Uiso   1.00
C787   C     0.81791   0.13483   0.30216   0.00000  Uiso   1.00
C788   C     0.17014   0.22916   0.60575   0.00000  Uiso   1.00
C789   C     0.12213   0.23775   0.59346   0.00000  Uiso   1.00
C790   C     0.10654   0.21496   0.56833   0.00000  Uiso   1.00
C791   C     0.06357   0.18665   0.52759   0.00000  Uiso   1.00
C792   C     0.18407   0.18805   0.64701   0.00000  Uiso   1.00
C793   C     0.14775   0.16207   0.66940   0.00000  Uiso   1.00
C794   C     0.14387   0.10467   0.67901   0.00000  Uiso   1.00
C795   C     0.12252   0.01254   0.70233   0.00000  Uiso   1.00
C796   C     0.25243   0.19459   0.61043   0.00000  Uiso   1.00
C797   C     0.30087   0.26533   0.61887   0.00000  Uiso   1.00
C798   C     0.36893   0.29841   0.61517   0.00000  Uiso   1.00
C799   C     0.73793   0.02958   0.29096   0.00000  Uiso   1.00
C800   C     0.20147   0.19888   0.59339   0.00000  Uiso   1.00
C801   C     0.18595   0.17607   0.56827   0.00000  Uiso   1.00
C802   C     0.13793   0.18462   0.55594   0.00000  Uiso   1.00
C803   C     0.21540   0.15777   0.63465   0.00000  Uiso   1.00
C804   C     0.21158   0.10039   0.64422   0.00000  Uiso   1.00
C805   C     0.17526   0.07433   0.66662   0.00000  Uiso   1.00
H806   H     0.17034   0.27391   0.64282   0.00000  Uiso   1.00
H807   H     0.28084   0.38350   0.64992   0.00000  Uiso   1.00
H808   H     0.09788   0.26118   0.60303   0.00000  Uiso   1.00
H809   H     0.12351   0.18552   0.67896   0.00000  Uiso   1.00
H810   H     0.75049   0.15833   0.31900   0.00000  Uiso   1.00
H811   H     0.03137   0.23370   0.55346   0.00000  Uiso   1.00
H812   H     0.08540   0.07416   0.71358   0.00000  Uiso   1.00
H813   H     0.27682   0.17101   0.60081   0.00000  Uiso   1.00
H814   H     0.39317   0.27496   0.60560   0.00000  Uiso   1.00
H815   H     0.21021   0.15263   0.55871   0.00000  Uiso   1.00
H816   H     0.23583   0.07697   0.63464   0.00000  Uiso   1.00
H817   H     0.84166   0.07023   0.28303   0.00000  Uiso   1.00
H818   H     0.12254   0.14560   0.51749   0.00000  Uiso   1.00
H819   H     0.17657   0.98606   0.67761   0.00000  Uiso   1.00
O820   O     0.87069   0.18452   0.30492   0.00000  Uiso   1.00
O821   O     0.03121   0.17941   0.50854   0.00000  Uiso   1.00
O822   O     0.10209   0.97010   0.71861   0.00000  Uiso   1.00
N823   N     0.75599   0.12332   0.30988   0.00000  Uiso   1.00
N824   N     0.06197   0.21549   0.55077   0.00000  Uiso   1.00
N825   N     0.11247   0.06632   0.70047   0.00000  Uiso   1.00
N826   N     0.80504   0.07592   0.29052   0.00000  Uiso   1.00
N827   N     0.11103   0.16809   0.53142   0.00000  Uiso   1.00
N828   N     0.16152   0.01891   0.68111   0.00000  Uiso   1.00
C829   C     0.86141   0.27773   0.46653   0.00000  Uiso   1.00
C830   C     0.93621   0.30726   0.46457   0.00000  Uiso   1.00
C831   C     0.97177   0.27836   0.47369   0.00000  Uiso   1.00
C832   C     0.03987   0.31328   0.47001   0.00000  Uiso   1.00
C833   C     0.48458   0.01641   0.13549   0.00000  Uiso   1.00
C834   C     0.83681   0.27432   0.43909   0.00000  Uiso   1.00
C835   C     0.78879   0.21771   0.42679   0.00000  Uiso   1.00
C836   C     0.77321   0.22492   0.40166   0.00000  Uiso   1.00
C837   C     0.73023   0.21025   0.36093   0.00000  Uiso   1.00
C838   C     0.85074   0.32935   0.48034   0.00000  Uiso   1.00
C839   C     0.81441   0.31901   0.50273   0.00000  Uiso   1.00
C840   C     0.81054   0.37254   0.51234   0.00000  Uiso   1.00
C841   C     0.78919   0.44331   0.53566   0.00000  Uiso   1.00
C842   C     0.91909   0.39117   0.44377   0.00000  Uiso   1.00
C843   C     0.96754   0.36888   0.45220   0.00000  Uiso   1.00
C844   C     0.03560   0.40386   0.44850   0.00000  Uiso   1.00
C845   C     0.40459   0.04168   0.12429   0.00000  Uiso   1.00
C846   C     0.86814   0.33593   0.42672   0.00000  Uiso   1.00
C847   C     0.85262   0.34322   0.40161   0.00000  Uiso   1.00
C848   C     0.80460   0.28664   0.38927   0.00000  Uiso   1.00
C849   C     0.88207   0.39097   0.46798   0.00000  Uiso   1.00
C850   C     0.87825   0.44452   0.47755   0.00000  Uiso   1.00
C851   C     0.84193   0.43427   0.49995   0.00000  Uiso   1.00
H852   H     0.83701   0.22976   0.47616   0.00000  Uiso   1.00
H853   H     0.94751   0.23067   0.48326   0.00000  Uiso   1.00
H854   H     0.76455   0.17004   0.43637   0.00000  Uiso   1.00
H855   H     0.79017   0.27133   0.51230   0.00000  Uiso   1.00
H856   H     0.41716   0.92550   0.15233   0.00000  Uiso   1.00
H857   H     0.69804   0.13100   0.38680   0.00000  Uiso   1.00
H858   H     0.75207   0.34458   0.54691   0.00000  Uiso   1.00
H859   H     0.94349   0.43914   0.43414   0.00000  Uiso   1.00
H860   H     0.05983   0.45154   0.43894   0.00000  Uiso   1.00
H861   H     0.87688   0.39091   0.39204   0.00000  Uiso   1.00
H862   H     0.90250   0.49219   0.46798   0.00000  Uiso   1.00
H863   H     0.50833   0.10477   0.11636   0.00000  Uiso   1.00
H864   H     0.78921   0.31027   0.35082   0.00000  Uiso   1.00
H865   H     0.84324   0.52384   0.51094   0.00000  Uiso   1.00
O866   O     0.53735   0.01950   0.13825   0.00000  Uiso   1.00
O867   O     0.69787   0.18513   0.34187   0.00000  Uiso   1.00
O868   O     0.76876   0.46533   0.55194   0.00000  Uiso   1.00
N869   N     0.42265   0.96600   0.14321   0.00000  Uiso   1.00
N870   N     0.72864   0.17981   0.38411   0.00000  Uiso   1.00
N871   N     0.77913   0.37948   0.53380   0.00000  Uiso   1.00
N872   N     0.47171   0.06246   0.12386   0.00000  Uiso   1.00
N873   N     0.77770   0.27628   0.36475   0.00000  Uiso   1.00
N874   N     0.82819   0.47594   0.51444   0.00000  Uiso   1.00
C875   C     0.52807   0.61107   0.79987   0.00000  Uiso   1.00
C876   C     0.60287   0.64060   0.79790   0.00000  Uiso   1.00
C877   C     0.63844   0.61169   0.80702   0.00000  Uiso   1.00
C878   C     0.70654   0.64662   0.80334   0.00000  Uiso   1.00
C879   C     0.15125   0.34975   0.46882   0.00000  Uiso   1.00
C880   C     0.50348   0.60765   0.77242   0.00000  Uiso   1.00
C881   C     0.45546   0.55105   0.76012   0.00000  Uiso   1.00
C882   C     0.43988   0.55825   0.73500   0.00000  Uiso   1.00
C883   C     0.39690   0.54358   0.69426   0.00000  Uiso   1.00
C884   C     0.51740   0.66268   0.81368   0.00000  Uiso   1.00
C885   C     0.48108   0.65235   0.83607   0.00000  Uiso   1.00
C886   C     0.47721   0.70588   0.84567   0.00000  Uiso   1.00
C887   C     0.45585   0.77665   0.86899   0.00000  Uiso   1.00
C888   C     0.58576   0.72450   0.77710   0.00000  Uiso   1.00
C889   C     0.63421   0.70221   0.78553   0.00000  Uiso   1.00
C890   C     0.70227   0.73719   0.78184   0.00000  Uiso   1.00
C891   C     0.07126   0.37501   0.45762   0.00000  Uiso   1.00
C892   C     0.53481   0.66927   0.76005   0.00000  Uiso   1.00
C893   C     0.51929   0.67655   0.73494   0.00000  Uiso   1.00
C894   C     0.47127   0.61998   0.72261   0.00000  Uiso   1.00
C895   C     0.54874   0.72430   0.80131   0.00000  Uiso   1.00
C896   C     0.54491   0.77785   0.81088   0.00000  Uiso   1.00
C897   C     0.50860   0.76760   0.83328   0.00000  Uiso   1.00
H898   H     0.50368   0.56310   0.80949   0.00000  Uiso   1.00
H899   H     0.61417   0.56400   0.81659   0.00000  Uiso   1.00
H900   H     0.43122   0.50338   0.76970   0.00000  Uiso   1.00
H901   H     0.45684   0.60466   0.84563   0.00000  Uiso   1.00
H902   H     0.08383   0.25883   0.48567   0.00000  Uiso   1.00
H903   H     0.36471   0.46434   0.72013   0.00000  Uiso   1.00
H904   H     0.41873   0.67791   0.88025   0.00000  Uiso   1.00
H905   H     0.61016   0.77248   0.76747   0.00000  Uiso   1.00
H906   H     0.72650   0.78487   0.77227   0.00000  Uiso   1.00
H907   H     0.54354   0.72424   0.72538   0.00000  Uiso   1.00
H908   H     0.56917   0.82553   0.80131   0.00000  Uiso   1.00
H909   H     0.17500   0.43810   0.44969   0.00000  Uiso   1.00
H910   H     0.45587   0.64360   0.68416   0.00000  Uiso   1.00
H911   H     0.50990   0.85718   0.84427   0.00000  Uiso   1.00
O912   O     0.20402   0.35283   0.47158   0.00000  Uiso   1.00
O913   O     0.36454   0.51846   0.67521   0.00000  Uiso   1.00
O914   O     0.43543   0.79867   0.88528   0.00000  Uiso   1.00
N915   N     0.08932   0.29933   0.47655   0.00000  Uiso   1.00
N916   N     0.39530   0.51315   0.71744   0.00000  Uiso   1.00
N917   N     0.44580   0.71281   0.86713   0.00000  Uiso   1.00
N918   N     0.13838   0.39579   0.45719   0.00000  Uiso   1.00
N919   N     0.44436   0.60961   0.69808   0.00000  Uiso   1.00
N920   N     0.49486   0.80928   0.84778   0.00000  Uiso   1.00
C921   C     0.19474   0.94440   0.13320   0.00000  Uiso   1.00
C922   C     0.26954   0.97393   0.13123   0.00000  Uiso   1.00
C923   C     0.30511   0.94502   0.14036   0.00000  Uiso   1.00
C924   C     0.37320   0.97995   0.13668   0.00000  Uiso   1.00
C925   C     0.81791   0.68308   0.80216   0.00000  Uiso   1.00
C926   C     0.17014   0.94099   0.10575   0.00000  Uiso   1.00
C927   C     0.12213   0.88438   0.09346   0.00000  Uiso   1.00
C928   C     0.10654   0.89158   0.06833   0.00000  Uiso   1.00
C929   C     0.06357   0.87691   0.02759   0.00000  Uiso   1.00
C930   C     0.18407   0.99602   0.14701   0.00000  Uiso   1.00
C931   C     0.14775   0.98568   0.16940   0.00000  Uiso   1.00
C932   C     0.14387   0.03921   0.17901   0.00000  Uiso   1.00
C933   C     0.12252   0.10998   0.20233   0.00000  Uiso   1.00
C934   C     0.25243   0.05784   0.11043   0.00000  Uiso   1.00
C935   C     0.30087   0.03554   0.11887   0.00000  Uiso   1.00
C936   C     0.36893   0.07053   0.11517   0.00000  Uiso   1.00
C937   C     0.73793   0.70834   0.79096   0.00000  Uiso   1.00
C938   C     0.20147   0.00260   0.09339   0.00000  Uiso   1.00
C939   C     0.18595   0.00989   0.06827   0.00000  Uiso   1.00
C940   C     0.13793   0.95331   0.05594   0.00000  Uiso   1.00
C941   C     0.21540   0.05763   0.13465   0.00000  Uiso   1.00
C942   C     0.21158   0.11119   0.14422   0.00000  Uiso   1.00
C943   C     0.17526   0.10093   0.16662   0.00000  Uiso   1.00
H944   H     0.17034   0.89643   0.14282   0.00000  Uiso   1.00
H945   H     0.28084   0.89733   0.14992   0.00000  Uiso   1.00
H946   H     0.09788   0.83671   0.10303   0.00000  Uiso   1.00
H947   H     0.12351   0.93799   0.17896   0.00000  Uiso   1.00
H948   H     0.75049   0.59217   0.81900   0.00000  Uiso   1.00
H949   H     0.03137   0.79767   0.05346   0.00000  Uiso   1.00
H950   H     0.08540   0.01124   0.21358   0.00000  Uiso   1.00
H951   H     0.27682   0.10581   0.10081   0.00000  Uiso   1.00
H952   H     0.39317   0.11821   0.10560   0.00000  Uiso   1.00
H953   H     0.21021   0.05758   0.05871   0.00000  Uiso   1.00
H954   H     0.23583   0.15886   0.13464   0.00000  Uiso   1.00
H955   H     0.84166   0.77143   0.78303   0.00000  Uiso   1.00
H956   H     0.12254   0.97694   0.01749   0.00000  Uiso   1.00
H957   H     0.17657   0.19051   0.17761   0.00000  Uiso   1.00
O958   O     0.87069   0.68617   0.80492   0.00000  Uiso   1.00
O959   O     0.03121   0.85179   0.00854   0.00000  Uiso   1.00
O960   O     0.10209   0.13200   0.21861   0.00000  Uiso   1.00
N961   N     0.75599   0.63266   0.80988   0.00000  Uiso   1.00
N962   N     0.06197   0.84648   0.05077   0.00000  Uiso   1.00
N963   N     0.11247   0.04615   0.20047   0.00000  Uiso   1.00
N964   N     0.80504   0.72913   0.79052   0.00000  Uiso   1.00
N965   N     0.11103   0.94294   0.03142   0.00000  Uiso   1.00
N966   N     0.16152   0.14261   0.18111   0.00000  Uiso   1.00
C967   C     0.72227   0.58367   0.46653   0.00000  Uiso   1.00
C968   C     0.69274   0.62895   0.46457   0.00000  Uiso   1.00
C969   C     0.72164   0.69342   0.47369   0.00000  Uiso   1.00
C970   C     0.68672   0.72659   0.47001   0.00000  Uiso   1.00
C971   C     0.98359   0.46816   0.13549   0.00000  Uiso   1.00
C972   C     0.72568   0.56249   0.43909   0.00000  Uiso   1.00
C973   C     0.78229   0.57108   0.42679   0.00000  Uiso   1.00
C974   C     0.77508   0.54829   0.40166   0.00000  Uiso   1.00
C975   C     0.78975   0.51999   0.36093   0.00000  Uiso   1.00
C976   C     0.67065   0.52139   0.48034   0.00000  Uiso   1.00
C977   C     0.68099   0.49540   0.50273   0.00000  Uiso   1.00
C978   C     0.62746   0.43800   0.51234   0.00000  Uiso   1.00
C979   C     0.55669   0.34587   0.53566   0.00000  Uiso   1.00
C980   C     0.60883   0.52792   0.44377   0.00000  Uiso   1.00
C981   C     0.63112   0.59866   0.45220   0.00000  Uiso   1.00
C982   C     0.59614   0.63174   0.44850   0.00000  Uiso   1.00
C983   C     0.95832   0.36292   0.12429   0.00000  Uiso   1.00
C984   C     0.66407   0.53221   0.42672   0.00000  Uiso   1.00
C985   C     0.65678   0.50940   0.40161   0.00000  Uiso   1.00
C986   C     0.71336   0.51796   0.38927   0.00000  Uiso   1.00
C987   C     0.60903   0.49110   0.46798   0.00000  Uiso   1.00
C988   C     0.55548   0.43373   0.47755   0.00000  Uiso   1.00
C989   C     0.56573   0.40766   0.49995   0.00000  Uiso   1.00
H990   H     0.77024   0.60725   0.47616   0.00000  Uiso   1.00
H991   H     0.76933   0.71684   0.48326   0.00000  Uiso   1.00
H992   H     0.82996   0.59451   0.43637   0.00000  Uiso   1.00
H993   H     0.72867   0.51885   0.51230   0.00000  Uiso   1.00
H994   H     0.07450   0.49166   0.15233   0.00000  Uiso   1.00
H995   H     0.86900   0.56704   0.38680   0.00000  Uiso   1.00
H996   H     0.65542   0.40749   0.54691   0.00000  Uiso   1.00
H997   H     0.56086   0.50435   0.43414   0.00000  Uiso   1.00
H998   H     0.54846   0.60829   0.43894   0.00000  Uiso   1.00
H999   H     0.60909   0.48597   0.39204   0.00000  Uiso   1.00
H1000  H     0.50781   0.41031   0.46798   0.00000  Uiso   1.00
H1001  H     0.89523   0.40356   0.11636   0.00000  Uiso   1.00
H1002  H     0.68973   0.47894   0.35082   0.00000  Uiso   1.00
H1003  H     0.47616   0.31939   0.51094   0.00000  Uiso   1.00
O1004  O     0.98050   0.51785   0.13825   0.00000  Uiso   1.00
O1005  O     0.81487   0.51275   0.34187   0.00000  Uiso   1.00
O1006  O     0.53467   0.30343   0.55194   0.00000  Uiso   1.00
N1007  N     0.03400   0.45666   0.14321   0.00000  Uiso   1.00
N1008  N     0.82019   0.54883   0.38411   0.00000  Uiso   1.00
N1009  N     0.62052   0.39965   0.53380   0.00000  Uiso   1.00
N1010  N     0.93754   0.40925   0.12386   0.00000  Uiso   1.00
N1011  N     0.72372   0.50142   0.36475   0.00000  Uiso   1.00
N1012  N     0.52406   0.35225   0.51444   0.00000  Uiso   1.00
C1013  C     0.38893   0.91701   0.79987   0.00000  Uiso   1.00
C1014  C     0.35940   0.96228   0.79790   0.00000  Uiso   1.00
C1015  C     0.38831   0.02675   0.80702   0.00000  Uiso   1.00
C1016  C     0.35338   0.05992   0.80334   0.00000  Uiso   1.00
C1017  C     0.65025   0.80150   0.46882   0.00000  Uiso   1.00
C1018  C     0.39235   0.89582   0.77242   0.00000  Uiso   1.00
C1019  C     0.44895   0.90441   0.76012   0.00000  Uiso   1.00
C1020  C     0.44175   0.88163   0.73500   0.00000  Uiso   1.00
C1021  C     0.45642   0.85332   0.69426   0.00000  Uiso   1.00
C1022  C     0.33732   0.85472   0.81368   0.00000  Uiso   1.00
C1023  C     0.34765   0.82874   0.83607   0.00000  Uiso   1.00
C1024  C     0.29412   0.77133   0.84567   0.00000  Uiso   1.00
C1025  C     0.22335   0.67921   0.86899   0.00000  Uiso   1.00
C1026  C     0.27550   0.86126   0.77710   0.00000  Uiso   1.00
C1027  C     0.29779   0.93200   0.78553   0.00000  Uiso   1.00
C1028  C     0.26281   0.96507   0.78184   0.00000  Uiso   1.00
C1029  C     0.62499   0.69625   0.45762   0.00000  Uiso   1.00
C1030  C     0.33073   0.86554   0.76005   0.00000  Uiso   1.00
C1031  C     0.32345   0.84273   0.73494   0.00000  Uiso   1.00
C1032  C     0.38002   0.85129   0.72261   0.00000  Uiso   1.00
C1033  C     0.27570   0.82444   0.80131   0.00000  Uiso   1.00
C1034  C     0.22215   0.76706   0.81088   0.00000  Uiso   1.00
C1035  C     0.23240   0.74100   0.83328   0.00000  Uiso   1.00
H1036  H     0.43690   0.94058   0.80949   0.00000  Uiso   1.00
H1037  H     0.43600   0.05017   0.81659   0.00000  Uiso   1.00
H1038  H     0.49662   0.92784   0.76970   0.00000  Uiso   1.00
H1039  H     0.39534   0.85218   0.84563   0.00000  Uiso   1.00
H1040  H     0.74117   0.82499   0.48567   0.00000  Uiso   1.00
H1041  H     0.53566   0.90037   0.72013   0.00000  Uiso   1.00
H1042  H     0.32209   0.74082   0.88025   0.00000  Uiso   1.00
H1043  H     0.22752   0.83768   0.76747   0.00000  Uiso   1.00
H1044  H     0.21513   0.94163   0.77227   0.00000  Uiso   1.00
H1045  H     0.27576   0.81930   0.72538   0.00000  Uiso   1.00
H1046  H     0.17447   0.74364   0.80131   0.00000  Uiso   1.00
H1047  H     0.56190   0.73690   0.44969   0.00000  Uiso   1.00
H1048  H     0.35640   0.81227   0.68416   0.00000  Uiso   1.00
H1049  H     0.14282   0.65272   0.84427   0.00000  Uiso   1.00
O1050  O     0.64717   0.85119   0.47158   0.00000  Uiso   1.00
O1051  O     0.48154   0.84608   0.67521   0.00000  Uiso   1.00
O1052  O     0.20133   0.63676   0.88528   0.00000  Uiso   1.00
N1053  N     0.70067   0.78999   0.47655   0.00000  Uiso   1.00
N1054  N     0.48685   0.88216   0.71744   0.00000  Uiso   1.00
N1055  N     0.28719   0.73299   0.86713   0.00000  Uiso   1.00
N1056  N     0.60421   0.74258   0.45719   0.00000  Uiso   1.00
N1057  N     0.39039   0.83475   0.69808   0.00000  Uiso   1.00
N1058  N     0.19072   0.68558   0.84778   0.00000  Uiso   1.00
C1059  C     0.05560   0.25034   0.13320   0.00000  Uiso   1.00
C1060  C     0.02607   0.29561   0.13123   0.00000  Uiso   1.00
C1061  C     0.05498   0.36009   0.14036   0.00000  Uiso   1.00
C1062  C     0.02005   0.39325   0.13668   0.00000  Uiso   1.00
C1063  C     0.31692   0.13483   0.80216   0.00000  Uiso   1.00
C1064  C     0.05901   0.22916   0.10575   0.00000  Uiso   1.00
C1065  C     0.11562   0.23775   0.09346   0.00000  Uiso   1.00
C1066  C     0.10842   0.21496   0.06833   0.00000  Uiso   1.00
C1067  C     0.12309   0.18665   0.02759   0.00000  Uiso   1.00
C1068  C     0.00398   0.18805   0.14701   0.00000  Uiso   1.00
C1069  C     0.01432   0.16207   0.16940   0.00000  Uiso   1.00
C1070  C     0.96079   0.10467   0.17901   0.00000  Uiso   1.00
C1071  C     0.89002   0.01254   0.20233   0.00000  Uiso   1.00
C1072  C     0.94216   0.19459   0.11043   0.00000  Uiso   1.00
C1073  C     0.96446   0.26533   0.11887   0.00000  Uiso   1.00
C1074  C     0.92947   0.29841   0.11517   0.00000  Uiso   1.00
C1075  C     0.29166   0.02958   0.79096   0.00000  Uiso   1.00
C1076  C     0.99740   0.19888   0.09339   0.00000  Uiso   1.00
C1077  C     0.99011   0.17607   0.06827   0.00000  Uiso   1.00
C1078  C     0.04669   0.18462   0.05594   0.00000  Uiso   1.00
C1079  C     0.94237   0.15777   0.13465   0.00000  Uiso   1.00
C1080  C     0.88881   0.10039   0.14422   0.00000  Uiso   1.00
C1081  C     0.89907   0.07433   0.16662   0.00000  Uiso   1.00
H1082  H     0.10357   0.27391   0.14282   0.00000  Uiso   1.00
H1083  H     0.10267   0.38350   0.14992   0.00000  Uiso   1.00
H1084  H     0.16329   0.26118   0.10303   0.00000  Uiso   1.00
H1085  H     0.06201   0.18552   0.17896   0.00000  Uiso   1.00
H1086  H     0.40783   0.15833   0.81900   0.00000  Uiso   1.00
H1087  H     0.20233   0.23370   0.05346   0.00000  Uiso   1.00
H1088  H     0.98876   0.07416   0.21358   0.00000  Uiso   1.00
H1089  H     0.89419   0.17101   0.10081   0.00000  Uiso   1.00
H1090  H     0.88179   0.27496   0.10560   0.00000  Uiso   1.00
H1091  H     0.94242   0.15263   0.05871   0.00000  Uiso   1.00
H1092  H     0.84114   0.07697   0.13464   0.00000  Uiso   1.00
H1093  H     0.22857   0.07023   0.78303   0.00000  Uiso   1.00
H1094  H     0.02306   0.14560   0.01749   0.00000  Uiso   1.00
H1095  H     0.80949   0.98606   0.17761   0.00000  Uiso   1.00
O1096  O     0.31383   0.18452   0.80492   0.00000  Uiso   1.00
O1097  O     0.14821   0.17941   0.00854   0.00000  Uiso   1.00
O1098  O     0.86800   0.97010   0.21861   0.00000  Uiso   1.00
N1099  N     0.36734   0.12332   0.80988   0.00000  Uiso   1.00
N1100  N     0.15352   0.21549   0.05077   0.00000  Uiso   1.00
N1101  N     0.95385   0.06632   0.20047   0.00000  Uiso   1.00
N1102  N     0.27087   0.07592   0.79052   0.00000  Uiso   1.00
N1103  N     0.05706   0.16809   0.03142   0.00000  Uiso   1.00
N1104  N     0.85739   0.01891   0.18111   0.00000  Uiso   1.00
C1105  C     0.41633   0.13859   0.46653   0.00000  Uiso   1.00
C1106  C     0.37105   0.06379   0.46457   0.00000  Uiso   1.00
C1107  C     0.30658   0.02823   0.47369   0.00000  Uiso   1.00
C1108  C     0.27341   0.96013   0.47001   0.00000  Uiso   1.00
C1109  C     0.53184   0.51542   0.13549   0.00000  Uiso   1.00
C1110  C     0.43751   0.16319   0.43909   0.00000  Uiso   1.00
C1111  C     0.42892   0.21121   0.42679   0.00000  Uiso   1.00
C1112  C     0.45171   0.22679   0.40166   0.00000  Uiso   1.00
C1113  C     0.48001   0.26977   0.36093   0.00000  Uiso   1.00
C1114  C     0.47861   0.14926   0.48034   0.00000  Uiso   1.00
C1115  C     0.50460   0.18559   0.50273   0.00000  Uiso   1.00
C1116  C     0.56200   0.18946   0.51234   0.00000  Uiso   1.00
C1117  C     0.65413   0.21081   0.53566   0.00000  Uiso   1.00
C1118  C     0.47208   0.08091   0.44377   0.00000  Uiso   1.00
C1119  C     0.40134   0.03246   0.45220   0.00000  Uiso   1.00
C1120  C     0.36826   0.96440   0.44850   0.00000  Uiso   1.00
C1121  C     0.63708   0.59541   0.12429   0.00000  Uiso   1.00
C1122  C     0.46779   0.13186   0.42672   0.00000  Uiso   1.00
C1123  C     0.49060   0.14738   0.40161   0.00000  Uiso   1.00
C1124  C     0.48204   0.19540   0.38927   0.00000  Uiso   1.00
C1125  C     0.50890   0.11793   0.46798   0.00000  Uiso   1.00
C1126  C     0.56627   0.12175   0.47755   0.00000  Uiso   1.00
C1127  C     0.59234   0.15807   0.49995   0.00000  Uiso   1.00
H1128  H     0.39275   0.16299   0.47616   0.00000  Uiso   1.00
H1129  H     0.28316   0.05249   0.48326   0.00000  Uiso   1.00
H1130  H     0.40549   0.23545   0.43637   0.00000  Uiso   1.00
H1131  H     0.48115   0.20983   0.51230   0.00000  Uiso   1.00
H1132  H     0.50834   0.58284   0.15233   0.00000  Uiso   1.00
H1133  H     0.43296   0.30196   0.38680   0.00000  Uiso   1.00
H1134  H     0.59251   0.24793   0.54691   0.00000  Uiso   1.00
H1135  H     0.49565   0.05651   0.43414   0.00000  Uiso   1.00
H1136  H     0.39171   0.94017   0.43894   0.00000  Uiso   1.00
H1137  H     0.51403   0.12312   0.39204   0.00000  Uiso   1.00
H1138  H     0.58969   0.09750   0.46798   0.00000  Uiso   1.00
H1139  H     0.59644   0.49167   0.11636   0.00000  Uiso   1.00
H1140  H     0.52106   0.21079   0.35082   0.00000  Uiso   1.00
H1141  H     0.68061   0.15676   0.51094   0.00000  Uiso   1.00
O1142  O     0.48215   0.46265   0.13825   0.00000  Uiso   1.00
O1143  O     0.48725   0.30213   0.34187   0.00000  Uiso   1.00
O1144  O     0.69657   0.23124   0.55194   0.00000  Uiso   1.00
N1145  N     0.54334   0.57735   0.14321   0.00000  Uiso   1.00
N1146  N     0.45117   0.27136   0.38411   0.00000  Uiso   1.00
N1147  N     0.60035   0.22087   0.53380   0.00000  Uiso   1.00
N1148  N     0.59075   0.52829   0.12386   0.00000  Uiso   1.00
N1149  N     0.49858   0.22230   0.36475   0.00000  Uiso   1.00
N1150  N     0.64775   0.17181   0.51444   0.00000  Uiso   1.00
C1151  C     0.08299   0.47193   0.79987   0.00000  Uiso   1.00
C1152  C     0.03772   0.39713   0.79790   0.00000  Uiso   1.00
C1153  C     0.97325   0.36156   0.80702   0.00000  Uiso   1.00
C1154  C     0.94008   0.29346   0.80334   0.00000  Uiso   1.00
C1155  C     0.19850   0.84875   0.46882   0.00000  Uiso   1.00
C1156  C     0.10418   0.49652   0.77242   0.00000  Uiso   1.00
C1157  C     0.09559   0.54454   0.76012   0.00000  Uiso   1.00
C1158  C     0.11837   0.56012   0.73500   0.00000  Uiso   1.00
C1159  C     0.14668   0.60310   0.69426   0.00000  Uiso   1.00
C1160  C     0.14528   0.48260   0.81368   0.00000  Uiso   1.00
C1161  C     0.17126   0.51892   0.83607   0.00000  Uiso   1.00
C1162  C     0.22867   0.52279   0.84567   0.00000  Uiso   1.00
C1163  C     0.32079   0.54415   0.86899   0.00000  Uiso   1.00
C1164  C     0.13874   0.41424   0.77710   0.00000  Uiso   1.00
C1165  C     0.06800   0.36579   0.78553   0.00000  Uiso   1.00
C1166  C     0.03493   0.29773   0.78184   0.00000  Uiso   1.00
C1167  C     0.30375   0.92874   0.45762   0.00000  Uiso   1.00
C1168  C     0.13446   0.46519   0.76005   0.00000  Uiso   1.00
C1169  C     0.15727   0.48071   0.73494   0.00000  Uiso   1.00
C1170  C     0.14871   0.52873   0.72261   0.00000  Uiso   1.00
C1171  C     0.17556   0.45126   0.80131   0.00000  Uiso   1.00
C1172  C     0.23294   0.45509   0.81088   0.00000  Uiso   1.00
C1173  C     0.25900   0.49140   0.83328   0.00000  Uiso   1.00
H1174  H     0.05942   0.49632   0.80949   0.00000  Uiso   1.00
H1175  H     0.94983   0.38583   0.81659   0.00000  Uiso   1.00
H1176  H     0.07216   0.56878   0.76970   0.00000  Uiso   1.00
H1177  H     0.14782   0.54316   0.84563   0.00000  Uiso   1.00
H1178  H     0.17501   0.91617   0.48567   0.00000  Uiso   1.00
H1179  H     0.09963   0.63529   0.72013   0.00000  Uiso   1.00
H1180  H     0.25918   0.58127   0.88025   0.00000  Uiso   1.00
H1181  H     0.16232   0.38984   0.76747   0.00000  Uiso   1.00
H1182  H     0.05837   0.27350   0.77227   0.00000  Uiso   1.00
H1183  H     0.18070   0.45646   0.72538   0.00000  Uiso   1.00
H1184  H     0.25636   0.43083   0.80131   0.00000  Uiso   1.00
H1185  H     0.26310   0.82500   0.44969   0.00000  Uiso   1.00
H1186  H     0.18773   0.54413   0.68416   0.00000  Uiso   1.00
H1187  H     0.34728   0.49010   0.84427   0.00000  Uiso   1.00
O1188  O     0.14881   0.79598   0.47158   0.00000  Uiso   1.00
O1189  O     0.15392   0.63546   0.67521   0.00000  Uiso   1.00
O1190  O     0.36324   0.56457   0.88528   0.00000  Uiso   1.00
N1191  N     0.21001   0.91068   0.47655   0.00000  Uiso   1.00
N1192  N     0.11784   0.60470   0.71744   0.00000  Uiso   1.00
N1193  N     0.26701   0.55420   0.86713   0.00000  Uiso   1.00
N1194  N     0.25742   0.86162   0.45719   0.00000  Uiso   1.00
N1195  N     0.16525   0.55564   0.69808   0.00000  Uiso   1.00
N1196  N     0.31442   0.50514   0.84778   0.00000  Uiso   1.00
C1197  C     0.74966   0.80526   0.13320   0.00000  Uiso   1.00
C1198  C     0.70439   0.73046   0.13123   0.00000  Uiso   1.00
C1199  C     0.63991   0.69489   0.14036   0.00000  Uiso   1.00
C1200  C     0.60675   0.62680   0.13668   0.00000  Uiso   1.00
C1201  C     0.86517   0.18209   0.80216   0.00000  Uiso   1.00
C1202  C     0.77084   0.82986   0.10575   0.00000  Uiso   1.00
C1203  C     0.76225   0.87787   0.09346   0.00000  Uiso   1.00
C1204  C     0.78504   0.89346   0.06833   0.00000  Uiso   1.00
C1205  C     0.81335   0.93643   0.02759   0.00000  Uiso   1.00
C1206  C     0.81195   0.81593   0.14701   0.00000  Uiso   1.00
C1207  C     0.83793   0.85225   0.16940   0.00000  Uiso   1.00
C1208  C     0.89533   0.85613   0.17901   0.00000  Uiso   1.00
C1209  C     0.98746   0.87748   0.20233   0.00000  Uiso   1.00
C1210  C     0.80541   0.74757   0.11043   0.00000  Uiso   1.00
C1211  C     0.73467   0.69913   0.11887   0.00000  Uiso   1.00
C1212  C     0.70159   0.63107   0.11517   0.00000  Uiso   1.00
C1213  C     0.97042   0.26207   0.79096   0.00000  Uiso   1.00
C1214  C     0.80112   0.79853   0.09339   0.00000  Uiso   1.00
C1215  C     0.82393   0.81405   0.06827   0.00000  Uiso   1.00
C1216  C     0.81538   0.86207   0.05594   0.00000  Uiso   1.00
C1217  C     0.84223   0.78460   0.13465   0.00000  Uiso   1.00
C1218  C     0.89961   0.78842   0.14422   0.00000  Uiso   1.00
C1219  C     0.92567   0.82474   0.16662   0.00000  Uiso   1.00
H1220  H     0.72609   0.82966   0.14282   0.00000  Uiso   1.00
H1221  H     0.61650   0.71916   0.14992   0.00000  Uiso   1.00
H1222  H     0.73882   0.90212   0.10303   0.00000  Uiso   1.00
H1223  H     0.81448   0.87649   0.17896   0.00000  Uiso   1.00
H1224  H     0.84167   0.24951   0.81900   0.00000  Uiso   1.00
H1225  H     0.76630   0.96863   0.05346   0.00000  Uiso   1.00
H1226  H     0.92584   0.91460   0.21358   0.00000  Uiso   1.00
H1227  H     0.82899   0.72318   0.10081   0.00000  Uiso   1.00
H1228  H     0.72504   0.60683   0.10560   0.00000  Uiso   1.00
H1229  H     0.84737   0.78979   0.05871   0.00000  Uiso   1.00
H1230  H     0.92303   0.76417   0.13464   0.00000  Uiso   1.00
H1231  H     0.92977   0.15834   0.78303   0.00000  Uiso   1.00
H1232  H     0.85440   0.87746   0.01749   0.00000  Uiso   1.00
H1233  H     0.01394   0.82343   0.17761   0.00000  Uiso   1.00
O1234  O     0.81548   0.12931   0.80492   0.00000  Uiso   1.00
O1235  O     0.82059   0.96879   0.00854   0.00000  Uiso   1.00
O1236  O     0.02990   0.89791   0.21861   0.00000  Uiso   1.00
N1237  N     0.87668   0.24401   0.80988   0.00000  Uiso   1.00
N1238  N     0.78451   0.93803   0.05077   0.00000  Uiso   1.00
N1239  N     0.93368   0.88753   0.20047   0.00000  Uiso   1.00
N1240  N     0.92408   0.19496   0.79052   0.00000  Uiso   1.00
N1241  N     0.83191   0.88897   0.03142   0.00000  Uiso   1.00
N1242  N     0.98109   0.83848   0.18111   0.00000  Uiso   1.00
C1243  C     0.27773   0.86141   0.03347   0.00000  Uiso   1.00
C1244  C     0.30726   0.93621   0.03543   0.00000  Uiso   1.00
C1245  C     0.27836   0.97177   0.02631   0.00000  Uiso   1.00
C1246  C     0.31328   0.03987   0.02999   0.00000  Uiso   1.00
C1247  C     0.01641   0.48458   0.36451   0.00000  Uiso   1.00
C1248  C     0.27432   0.83681   0.06091   0.00000  Uiso   1.00
C1249  C     0.21771   0.78879   0.07321   0.00000  Uiso   1.00
C1250  C     0.22492   0.77321   0.09834   0.00000  Uiso   1.00
C1251  C     0.21025   0.73023   0.13907   0.00000  Uiso   1.00
C1252  C     0.32935   0.85074   0.01966   0.00000  Uiso   1.00
C1253  C     0.31901   0.81441   0.99727   0.00000  Uiso   1.00
C1254  C     0.37254   0.81054   0.98766   0.00000  Uiso   1.00
C1255  C     0.44331   0.78919   0.96434   0.00000  Uiso   1.00
C1256  C     0.39117   0.91909   0.05623   0.00000  Uiso   1.00
C1257  C     0.36888   0.96754   0.04780   0.00000  Uiso   1.00
C1258  C     0.40386   0.03560   0.05150   0.00000  Uiso   1.00
C1259  C     0.04168   0.40459   0.37571   0.00000  Uiso   1.00
C1260  C     0.33593   0.86814   0.07328   0.00000  Uiso   1.00
C1261  C     0.34322   0.85262   0.09839   0.00000  Uiso   1.00
C1262  C     0.28664   0.80460   0.11073   0.00000  Uiso   1.00
C1263  C     0.39097   0.88207   0.03202   0.00000  Uiso   1.00
C1264  C     0.44452   0.87825   0.02245   0.00000  Uiso   1.00
C1265  C     0.43427   0.84193   0.00005   0.00000  Uiso   1.00
H1266  H     0.22976   0.83701   0.02384   0.00000  Uiso   1.00
H1267  H     0.23067   0.94751   0.01674   0.00000  Uiso   1.00
H1268  H     0.17004   0.76455   0.06363   0.00000  Uiso   1.00
H1269  H     0.27133   0.79017   0.98770   0.00000  Uiso   1.00
H1270  H     0.92550   0.41716   0.34767   0.00000  Uiso   1.00
H1271  H     0.13100   0.69804   0.11320   0.00000  Uiso   1.00
H1272  H     0.34458   0.75207   0.95309   0.00000  Uiso   1.00
H1273  H     0.43914   0.94349   0.06586   0.00000  Uiso   1.00
H1274  H     0.45154   0.05983   0.06106   0.00000  Uiso   1.00
H1275  H     0.39091   0.87688   0.10796   0.00000  Uiso   1.00
H1276  H     0.49219   0.90250   0.03202   0.00000  Uiso   1.00
H1277  H     0.10477   0.50833   0.38364   0.00000  Uiso   1.00
H1278  H     0.31027   0.78921   0.14918   0.00000  Uiso   1.00
H1279  H     0.52384   0.84324   0.98906   0.00000  Uiso   1.00
O1280  O     0.01950   0.53735   0.36175   0.00000  Uiso   1.00
O1281  O     0.18513   0.69787   0.15813   0.00000  Uiso   1.00
O1282  O     0.46533   0.76876   0.94806   0.00000  Uiso   1.00
N1283  N     0.96600   0.42265   0.35679   0.00000  Uiso   1.00
N1284  N     0.17981   0.72864   0.11589   0.00000  Uiso   1.00
N1285  N     0.37948   0.77913   0.96620   0.00000  Uiso   1.00
N1286  N     0.06246   0.47171   0.37614   0.00000  Uiso   1.00
N1287  N     0.27628   0.77770   0.13525   0.00000  Uiso   1.00
N1288  N     0.47594   0.82819   0.98556   0.00000  Uiso   1.00
C1289  C     0.94440   0.19474   0.36680   0.00000  Uiso   1.00
C1290  C     0.97393   0.26954   0.36877   0.00000  Uiso   1.00
C1291  C     0.94502   0.30511   0.35964   0.00000  Uiso   1.00
C1292  C     0.97995   0.37320   0.36332   0.00000  Uiso   1.00
C1293  C     0.68308   0.81791   0.69784   0.00000  Uiso   1.00
C1294  C     0.94099   0.17014   0.39425   0.00000  Uiso   1.00
C1295  C     0.88438   0.12213   0.40654   0.00000  Uiso   1.00
C1296  C     0.89158   0.10654   0.43167   0.00000  Uiso   1.00
C1297  C     0.87691   0.06357   0.47241   0.00000  Uiso   1.00
C1298  C     0.99602   0.18407   0.35299   0.00000  Uiso   1.00
C1299  C     0.98568   0.14775   0.33060   0.00000  Uiso   1.00
C1300  C     0.03921   0.14387   0.32099   0.00000  Uiso   1.00
C1301  C     0.10998   0.12252   0.29767   0.00000  Uiso   1.00
C1302  C     0.05784   0.25243   0.38957   0.00000  Uiso   1.00
C1303  C     0.03554   0.30087   0.38113   0.00000  Uiso   1.00
C1304  C     0.07053   0.36893   0.38483   0.00000  Uiso   1.00
C1305  C     0.70834   0.73793   0.70904   0.00000  Uiso   1.00
C1306  C     0.00260   0.20147   0.40661   0.00000  Uiso   1.00
C1307  C     0.00989   0.18595   0.43173   0.00000  Uiso   1.00
C1308  C     0.95331   0.13793   0.44406   0.00000  Uiso   1.00
C1309  C     0.05763   0.21540   0.36535   0.00000  Uiso   1.00
C1310  C     0.11119   0.21158   0.35578   0.00000  Uiso   1.00
C1311  C     0.10093   0.17526   0.33338   0.00000  Uiso   1.00
H1312  H     0.89643   0.17034   0.35718   0.00000  Uiso   1.00
H1313  H     0.89733   0.28084   0.35008   0.00000  Uiso   1.00
H1314  H     0.83671   0.09788   0.39697   0.00000  Uiso   1.00
H1315  H     0.93799   0.12351   0.32104   0.00000  Uiso   1.00
H1316  H     0.59217   0.75049   0.68100   0.00000  Uiso   1.00
H1317  H     0.79767   0.03137   0.44654   0.00000  Uiso   1.00
H1318  H     0.01124   0.08540   0.28642   0.00000  Uiso   1.00
H1319  H     0.10581   0.27682   0.39919   0.00000  Uiso   1.00
H1320  H     0.11821   0.39317   0.39440   0.00000  Uiso   1.00
H1321  H     0.05758   0.21021   0.44129   0.00000  Uiso   1.00
H1322  H     0.15886   0.23583   0.36536   0.00000  Uiso   1.00
H1323  H     0.77143   0.84166   0.71697   0.00000  Uiso   1.00
H1324  H     0.97694   0.12254   0.48251   0.00000  Uiso   1.00
H1325  H     0.19051   0.17657   0.32239   0.00000  Uiso   1.00
O1326  O     0.68617   0.87069   0.69508   0.00000  Uiso   1.00
O1327  O     0.85179   0.03121   0.49146   0.00000  Uiso   1.00
O1328  O     0.13200   0.10209   0.28139   0.00000  Uiso   1.00
N1329  N     0.63266   0.75599   0.69012   0.00000  Uiso   1.00
N1330  N     0.84648   0.06197   0.44923   0.00000  Uiso   1.00
N1331  N     0.04615   0.11247   0.29953   0.00000  Uiso   1.00
N1332  N     0.72913   0.80504   0.70948   0.00000  Uiso   1.00
N1333  N     0.94294   0.11103   0.46858   0.00000  Uiso   1.00
N1334  N     0.14261   0.16152   0.31889   0.00000  Uiso   1.00
C1335  C     0.61107   0.52807   0.70013   0.00000  Uiso   1.00
C1336  C     0.64060   0.60287   0.70210   0.00000  Uiso   1.00
C1337  C     0.61169   0.63844   0.69298   0.00000  Uiso   1.00
C1338  C     0.64662   0.70654   0.69666   0.00000  Uiso   1.00
C1339  C     0.34975   0.15125   0.03118   0.00000  Uiso   1.00
C1340  C     0.60765   0.50348   0.72758   0.00000  Uiso   1.00
C1341  C     0.55105   0.45546   0.73988   0.00000  Uiso   1.00
C1342  C     0.55825   0.43988   0.76500   0.00000  Uiso   1.00
C1343  C     0.54358   0.39690   0.80574   0.00000  Uiso   1.00
C1344  C     0.66268   0.51740   0.68632   0.00000  Uiso   1.00
C1345  C     0.65235   0.48108   0.66393   0.00000  Uiso   1.00
C1346  C     0.70588   0.47721   0.65433   0.00000  Uiso   1.00
C1347  C     0.77665   0.45585   0.63101   0.00000  Uiso   1.00
C1348  C     0.72450   0.58576   0.72290   0.00000  Uiso   1.00
C1349  C     0.70221   0.63421   0.71447   0.00000  Uiso   1.00
C1350  C     0.73719   0.70227   0.71816   0.00000  Uiso   1.00
C1351  C     0.37501   0.07126   0.04238   0.00000  Uiso   1.00
C1352  C     0.66927   0.53481   0.73995   0.00000  Uiso   1.00
C1353  C     0.67655   0.51929   0.76506   0.00000  Uiso   1.00
C1354  C     0.61998   0.47127   0.77739   0.00000  Uiso   1.00
C1355  C     0.72430   0.54874   0.69869   0.00000  Uiso   1.00
C1356  C     0.77785   0.54491   0.68912   0.00000  Uiso   1.00
C1357  C     0.76760   0.50860   0.66672   0.00000  Uiso   1.00
H1358  H     0.56310   0.50368   0.69051   0.00000  Uiso   1.00
H1359  H     0.56400   0.61417   0.68341   0.00000  Uiso   1.00
H1360  H     0.50338   0.43122   0.73030   0.00000  Uiso   1.00
H1361  H     0.60466   0.45684   0.65437   0.00000  Uiso   1.00
H1362  H     0.25883   0.08383   0.01433   0.00000  Uiso   1.00
H1363  H     0.46434   0.36471   0.77987   0.00000  Uiso   1.00
H1364  H     0.67791   0.41873   0.61975   0.00000  Uiso   1.00
H1365  H     0.77248   0.61016   0.73253   0.00000  Uiso   1.00
H1366  H     0.78487   0.72650   0.72773   0.00000  Uiso   1.00
H1367  H     0.72424   0.54354   0.77462   0.00000  Uiso   1.00
H1368  H     0.82553   0.56917   0.69869   0.00000  Uiso   1.00
H1369  H     0.43810   0.17500   0.05031   0.00000  Uiso   1.00
H1370  H     0.64360   0.45587   0.81584   0.00000  Uiso   1.00
H1371  H     0.85718   0.50990   0.65573   0.00000  Uiso   1.00
O1372  O     0.35283   0.20402   0.02842   0.00000  Uiso   1.00
O1373  O     0.51846   0.36454   0.82479   0.00000  Uiso   1.00
O1374  O     0.79867   0.43543   0.61472   0.00000  Uiso   1.00
N1375  N     0.29933   0.08932   0.02345   0.00000  Uiso   1.00
N1376  N     0.51315   0.39530   0.78256   0.00000  Uiso   1.00
N1377  N     0.71281   0.44580   0.63287   0.00000  Uiso   1.00
N1378  N     0.39579   0.13838   0.04281   0.00000  Uiso   1.00
N1379  N     0.60961   0.44436   0.80192   0.00000  Uiso   1.00
N1380  N     0.80928   0.49486   0.65222   0.00000  Uiso   1.00
C1381  C     0.58367   0.72227   0.03347   0.00000  Uiso   1.00
C1382  C     0.62895   0.69274   0.03543   0.00000  Uiso   1.00
C1383  C     0.69342   0.72164   0.02631   0.00000  Uiso   1.00
C1384  C     0.72659   0.68672   0.02999   0.00000  Uiso   1.00
C1385  C     0.46816   0.98359   0.36451   0.00000  Uiso   1.00
C1386  C     0.56249   0.72568   0.06091   0.00000  Uiso   1.00
C1387  C     0.57108   0.78229   0.07321   0.00000  Uiso   1.00
C1388  C     0.54829   0.77508   0.09834   0.00000  Uiso   1.00
C1389  C     0.51999   0.78975   0.13907   0.00000  Uiso   1.00
C1390  C     0.52139   0.67065   0.01966   0.00000  Uiso   1.00
C1391  C     0.49540   0.68099   0.99727   0.00000  Uiso   1.00
C1392  C     0.43800   0.62746   0.98766   0.00000  Uiso   1.00
C1393  C     0.34587   0.55669   0.96434   0.00000  Uiso   1.00
C1394  C     0.52792   0.60883   0.05623   0.00000  Uiso   1.00
C1395  C     0.59866   0.63112   0.04780   0.00000  Uiso   1.00
C1396  C     0.63174   0.59614   0.05150   0.00000  Uiso   1.00
C1397  C     0.36292   0.95832   0.37571   0.00000  Uiso   1.00
C1398  C     0.53221   0.66407   0.07328   0.00000  Uiso   1.00
C1399  C     0.50940   0.65678   0.09839   0.00000  Uiso   1.00
C1400  C     0.51796   0.71336   0.11073   0.00000  Uiso   1.00
C1401  C     0.49110   0.60903   0.03202   0.00000  Uiso   1.00
C1402  C     0.43373   0.55548   0.02245   0.00000  Uiso   1.00
C1403  C     0.40766   0.56573   0.00005   0.00000  Uiso   1.00
H1404  H     0.60725   0.77024   0.02384   0.00000  Uiso   1.00
H1405  H     0.71684   0.76933   0.01674   0.00000  Uiso   1.00
H1406  H     0.59451   0.82996   0.06363   0.00000  Uiso   1.00
H1407  H     0.51885   0.72867   0.98770   0.00000  Uiso   1.00
H1408  H     0.49166   0.07450   0.34767   0.00000  Uiso   1.00
H1409  H     0.56704   0.86900   0.11320   0.00000  Uiso   1.00
H1410  H     0.40749   0.65542   0.95309   0.00000  Uiso   1.00
H1411  H     0.50435   0.56086   0.06586   0.00000  Uiso   1.00
H1412  H     0.60829   0.54846   0.06106   0.00000  Uiso   1.00
H1413  H     0.48597   0.60909   0.10796   0.00000  Uiso   1.00
H1414  H     0.41031   0.50781   0.03202   0.00000  Uiso   1.00
H1415  H     0.40356   0.89523   0.38364   0.00000  Uiso   1.00
H1416  H     0.47894   0.68973   0.14918   0.00000  Uiso   1.00
H1417  H     0.31939   0.47616   0.98906   0.00000  Uiso   1.00
O1418  O     0.51785   0.98050   0.36175   0.00000  Uiso   1.00
O1419  O     0.51275   0.81487   0.15813   0.00000  Uiso   1.00
O1420  O     0.30343   0.53467   0.94806   0.00000  Uiso   1.00
N1421  N     0.45666   0.03400   0.35679   0.00000  Uiso   1.00
N1422  N     0.54883   0.82019   0.11589   0.00000  Uiso   1.00
N1423  N     0.39965   0.62052   0.96620   0.00000  Uiso   1.00
N1424  N     0.40925   0.93754   0.37614   0.00000  Uiso   1.00
N1425  N     0.50142   0.72372   0.13525   0.00000  Uiso   1.00
N1426  N     0.35225   0.52406   0.98556   0.00000  Uiso   1.00
C1427  C     0.25034   0.05560   0.36680   0.00000  Uiso   1.00
C1428  C     0.29561   0.02607   0.36877   0.00000  Uiso   1.00
C1429  C     0.36009   0.05498   0.35964   0.00000  Uiso   1.00
C1430  C     0.39325   0.02005   0.36332   0.00000  Uiso   1.00
C1431  C     0.13483   0.31692   0.69784   0.00000  Uiso   1.00
C1432  C     0.22916   0.05901   0.39425   0.00000  Uiso   1.00
C1433  C     0.23775   0.11562   0.40654   0.00000  Uiso   1.00
C1434  C     0.21496   0.10842   0.43167   0.00000  Uiso   1.00
C1435  C     0.18665   0.12309   0.47241   0.00000  Uiso   1.00
C1436  C     0.18805   0.00398   0.35299   0.00000  Uiso   1.00
C1437  C     0.16207   0.01432   0.33060   0.00000  Uiso   1.00
C1438  C     0.10467   0.96079   0.32099   0.00000  Uiso   1.00
C1439  C     0.01254   0.89002   0.29767   0.00000  Uiso   1.00
C1440  C     0.19459   0.94216   0.38957   0.00000  Uiso   1.00
C1441  C     0.26533   0.96446   0.38113   0.00000  Uiso   1.00
C1442  C     0.29841   0.92947   0.38483   0.00000  Uiso   1.00
C1443  C     0.02958   0.29166   0.70904   0.00000  Uiso   1.00
C1444  C     0.19888   0.99740   0.40661   0.00000  Uiso   1.00
C1445  C     0.17607   0.99011   0.43173   0.00000  Uiso   1.00
C1446  C     0.18462   0.04669   0.44406   0.00000  Uiso   1.00
C1447  C     0.15777   0.94237   0.36535   0.00000  Uiso   1.00
C1448  C     0.10039   0.88881   0.35578   0.00000  Uiso   1.00
C1449  C     0.07433   0.89907   0.33338   0.00000  Uiso   1.00
H1450  H     0.27391   0.10357   0.35718   0.00000  Uiso   1.00
H1451  H     0.38350   0.10267   0.35008   0.00000  Uiso   1.00
H1452  H     0.26118   0.16329   0.39697   0.00000  Uiso   1.00
H1453  H     0.18552   0.06201   0.32104   0.00000  Uiso   1.00
H1454  H     0.15833   0.40783   0.68100   0.00000  Uiso   1.00
H1455  H     0.23370   0.20233   0.44654   0.00000  Uiso   1.00
H1456  H     0.07416   0.98876   0.28642   0.00000  Uiso   1.00
H1457  H     0.17101   0.89419   0.39919   0.00000  Uiso   1.00
H1458  H     0.27496   0.88179   0.39440   0.00000  Uiso   1.00
H1459  H     0.15263   0.94242   0.44129   0.00000  Uiso   1.00
H1460  H     0.07697   0.84114   0.36536   0.00000  Uiso   1.00
H1461  H     0.07023   0.22857   0.71697   0.00000  Uiso   1.00
H1462  H     0.14560   0.02306   0.48251   0.00000  Uiso   1.00
H1463  H     0.98606   0.80949   0.32239   0.00000  Uiso   1.00
O1464  O     0.18452   0.31383   0.69508   0.00000  Uiso   1.00
O1465  O     0.17941   0.14821   0.49146   0.00000  Uiso   1.00
O1466  O     0.97010   0.86800   0.28139   0.00000  Uiso   1.00
N1467  N     0.12332   0.36734   0.69012   0.00000  Uiso   1.00
N1468  N     0.21549   0.15352   0.44923   0.00000  Uiso   1.00
N1469  N     0.06632   0.95385   0.29953   0.00000  Uiso   1.00
N1470  N     0.07592   0.27087   0.70948   0.00000  Uiso   1.00
N1471  N     0.16809   0.05706   0.46858   0.00000  Uiso   1.00
N1472  N     0.01891   0.85739   0.31889   0.00000  Uiso   1.00
C1473  C     0.91701   0.38893   0.70013   0.00000  Uiso   1.00
C1474  C     0.96228   0.35940   0.70210   0.00000  Uiso   1.00
C1475  C     0.02675   0.38831   0.69298   0.00000  Uiso   1.00
C1476  C     0.05992   0.35338   0.69666   0.00000  Uiso   1.00
C1477  C     0.80150   0.65025   0.03118   0.00000  Uiso   1.00
C1478  C     0.89582   0.39235   0.72758   0.00000  Uiso   1.00
C1479  C     0.90441   0.44895   0.73988   0.00000  Uiso   1.00
C1480  C     0.88163   0.44175   0.76500   0.00000  Uiso   1.00
C1481  C     0.85332   0.45642   0.80574   0.00000  Uiso   1.00
C1482  C     0.85472   0.33732   0.68632   0.00000  Uiso   1.00
C1483  C     0.82874   0.34765   0.66393   0.00000  Uiso   1.00
C1484  C     0.77133   0.29412   0.65433   0.00000  Uiso   1.00
C1485  C     0.67921   0.22335   0.63101   0.00000  Uiso   1.00
C1486  C     0.86126   0.27550   0.72290   0.00000  Uiso   1.00
C1487  C     0.93200   0.29779   0.71447   0.00000  Uiso   1.00
C1488  C     0.96507   0.26281   0.71816   0.00000  Uiso   1.00
C1489  C     0.69625   0.62499   0.04238   0.00000  Uiso   1.00
C1490  C     0.86554   0.33073   0.73995   0.00000  Uiso   1.00
C1491  C     0.84273   0.32345   0.76506   0.00000  Uiso   1.00
C1492  C     0.85129   0.38002   0.77739   0.00000  Uiso   1.00
C1493  C     0.82444   0.27570   0.69869   0.00000  Uiso   1.00
C1494  C     0.76706   0.22215   0.68912   0.00000  Uiso   1.00
C1495  C     0.74100   0.23240   0.66672   0.00000  Uiso   1.00
H1496  H     0.94058   0.43690   0.69051   0.00000  Uiso   1.00
H1497  H     0.05017   0.43600   0.68341   0.00000  Uiso   1.00
H1498  H     0.92784   0.49662   0.73030   0.00000  Uiso   1.00
H1499  H     0.85218   0.39534   0.65437   0.00000  Uiso   1.00
H1500  H     0.82499   0.74117   0.01433   0.00000  Uiso   1.00
H1501  H     0.90037   0.53566   0.77987   0.00000  Uiso   1.00
H1502  H     0.74082   0.32209   0.61975   0.00000  Uiso   1.00
H1503  H     0.83768   0.22752   0.73253   0.00000  Uiso   1.00
H1504  H     0.94163   0.21513   0.72773   0.00000  Uiso   1.00
H1505  H     0.81930   0.27576   0.77462   0.00000  Uiso   1.00
H1506  H     0.74364   0.17447   0.69869   0.00000  Uiso   1.00
H1507  H     0.73690   0.56190   0.05031   0.00000  Uiso   1.00
H1508  H     0.81227   0.35640   0.81584   0.00000  Uiso   1.00
H1509  H     0.65272   0.14282   0.65573   0.00000  Uiso   1.00
O1510  O     0.85119   0.64717   0.02842   0.00000  Uiso   1.00
O1511  O     0.84608   0.48154   0.82479   0.00000  Uiso   1.00
O1512  O     0.63676   0.20133   0.61472   0.00000  Uiso   1.00
N1513  N     0.78999   0.70067   0.02345   0.00000  Uiso   1.00
N1514  N     0.88216   0.48685   0.78256   0.00000  Uiso   1.00
N1515  N     0.73299   0.28719   0.63287   0.00000  Uiso   1.00
N1516  N     0.74258   0.60421   0.04281   0.00000  Uiso   1.00
N1517  N     0.83475   0.39039   0.80192   0.00000  Uiso   1.00
N1518  N     0.68558   0.19072   0.65222   0.00000  Uiso   1.00
C1519  C     0.13859   0.41633   0.03347   0.00000  Uiso   1.00
C1520  C     0.06379   0.37105   0.03543   0.00000  Uiso   1.00
C1521  C     0.02823   0.30658   0.02631   0.00000  Uiso   1.00
C1522  C     0.96013   0.27341   0.02999   0.00000  Uiso   1.00
C1523  C     0.51542   0.53184   0.36451   0.00000  Uiso   1.00
C1524  C     0.16319   0.43751   0.06091   0.00000  Uiso   1.00
C1525  C     0.21121   0.42892   0.07321   0.00000  Uiso   1.00
C1526  C     0.22679   0.45171   0.09834   0.00000  Uiso   1.00
C1527  C     0.26977   0.48001   0.13907   0.00000  Uiso   1.00
C1528  C     0.14926   0.47861   0.01966   0.00000  Uiso   1.00
C1529  C     0.18559   0.50460   0.99727   0.00000  Uiso   1.00
C1530  C     0.18946   0.56200   0.98766   0.00000  Uiso   1.00
C1531  C     0.21081   0.65413   0.96434   0.00000  Uiso   1.00
C1532  C     0.08091   0.47208   0.05623   0.00000  Uiso   1.00
C1533  C     0.03246   0.40134   0.04780   0.00000  Uiso   1.00
C1534  C     0.96440   0.36826   0.05150   0.00000  Uiso   1.00
C1535  C     0.59541   0.63708   0.37571   0.00000  Uiso   1.00
C1536  C     0.13186   0.46779   0.07328   0.00000  Uiso   1.00
C1537  C     0.14738   0.49060   0.09839   0.00000  Uiso   1.00
C1538  C     0.19540   0.48204   0.11073   0.00000  Uiso   1.00
C1539  C     0.11793   0.50890   0.03202   0.00000  Uiso   1.00
C1540  C     0.12175   0.56627   0.02245   0.00000  Uiso   1.00
C1541  C     0.15807   0.59234   0.00005   0.00000  Uiso   1.00
H1542  H     0.16299   0.39275   0.02384   0.00000  Uiso   1.00
H1543  H     0.05249   0.28316   0.01674   0.00000  Uiso   1.00
H1544  H     0.23545   0.40549   0.06363   0.00000  Uiso   1.00
H1545  H     0.20983   0.48115   0.98770   0.00000  Uiso   1.00
H1546  H     0.58284   0.50834   0.34767   0.00000  Uiso   1.00
H1547  H     0.30196   0.43296   0.11320   0.00000  Uiso   1.00
H1548  H     0.24793   0.59251   0.95309   0.00000  Uiso   1.00
H1549  H     0.05651   0.49565   0.06586   0.00000  Uiso   1.00
H1550  H     0.94017   0.39171   0.06106   0.00000  Uiso   1.00
H1551  H     0.12312   0.51403   0.10796   0.00000  Uiso   1.00
H1552  H     0.09750   0.58969   0.03202   0.00000  Uiso   1.00
H1553  H     0.49167   0.59644   0.38364   0.00000  Uiso   1.00
H1554  H     0.21079   0.52106   0.14918   0.00000  Uiso   1.00
H1555  H     0.15676   0.68061   0.98906   0.00000  Uiso   1.00
O1556  O     0.46265   0.48215   0.36175   0.00000  Uiso   1.00
O1557  O     0.30213   0.48725   0.15813   0.00000  Uiso   1.00
O1558  O     0.23124   0.69657   0.94806   0.00000  Uiso   1.00
N1559  N     0.57735   0.54334   0.35679   0.00000  Uiso   1.00
N1560  N     0.27136   0.45117   0.11589   0.00000  Uiso   1.00
N1561  N     0.22087   0.60035   0.96620   0.00000  Uiso   1.00
N1562  N     0.52829   0.59075   0.37614   0.00000  Uiso   1.00
N1563  N     0.22230   0.49858   0.13525   0.00000  Uiso   1.00
N1564  N     0.17181   0.64775   0.98556   0.00000  Uiso   1.00
C1565  C     0.80526   0.74966   0.36680   0.00000  Uiso   1.00
C1566  C     0.73046   0.70439   0.36877   0.00000  Uiso   1.00
C1567  C     0.69489   0.63991   0.35964   0.00000  Uiso   1.00
C1568  C     0.62680   0.60675   0.36332   0.00000  Uiso   1.00
C1569  C     0.18209   0.86517   0.69784   0.00000  Uiso   1.00
C1570  C     0.82986   0.77084   0.39425   0.00000  Uiso   1.00
C1571  C     0.87787   0.76225   0.40654   0.00000  Uiso   1.00
C1572  C     0.89346   0.78504   0.43167   0.00000  Uiso   1.00
C1573  C     0.93643   0.81335   0.47241   0.00000  Uiso   1.00
C1574  C     0.81593   0.81195   0.35299   0.00000  Uiso   1.00
C1575  C     0.85225   0.83793   0.33060   0.00000  Uiso   1.00
C1576  C     0.85613   0.89533   0.32099   0.00000  Uiso   1.00
C1577  C     0.87748   0.98746   0.29767   0.00000  Uiso   1.00
C1578  C     0.74757   0.80541   0.38957   0.00000  Uiso   1.00
C1579  C     0.69913   0.73467   0.38113   0.00000  Uiso   1.00
C1580  C     0.63107   0.70159   0.38483   0.00000  Uiso   1.00
C1581  C     0.26207   0.97042   0.70904   0.00000  Uiso   1.00
C1582  C     0.79853   0.80112   0.40661   0.00000  Uiso   1.00
C1583  C     0.81405   0.82393   0.43173   0.00000  Uiso   1.00
C1584  C     0.86207   0.81538   0.44406   0.00000  Uiso   1.00
C1585  C     0.78460   0.84223   0.36535   0.00000  Uiso   1.00
C1586  C     0.78842   0.89961   0.35578   0.00000  Uiso   1.00
C1587  C     0.82474   0.92567   0.33338   0.00000  Uiso   1.00
H1588  H     0.82966   0.72609   0.35718   0.00000  Uiso   1.00
H1589  H     0.71916   0.61650   0.35008   0.00000  Uiso   1.00
H1590  H     0.90212   0.73882   0.39697   0.00000  Uiso   1.00
H1591  H     0.87649   0.81448   0.32104   0.00000  Uiso   1.00
H1592  H     0.24951   0.84167   0.68100   0.00000  Uiso   1.00
H1593  H     0.96863   0.76630   0.44654   0.00000  Uiso   1.00
H1594  H     0.91460   0.92584   0.28642   0.00000  Uiso   1.00
H1595  H     0.72318   0.82899   0.39919   0.00000  Uiso   1.00
H1596  H     0.60683   0.72504   0.39440   0.00000  Uiso   1.00
H1597  H     0.78979   0.84737   0.44129   0.00000  Uiso   1.00
H1598  H     0.76417   0.92303   0.36536   0.00000  Uiso   1.00
H1599  H     0.15834   0.92977   0.71697   0.00000  Uiso   1.00
H1600  H     0.87746   0.85440   0.48251   0.00000  Uiso   1.00
H1601  H     0.82343   0.01394   0.32239   0.00000  Uiso   1.00
O1602  O     0.12931   0.81548   0.69508   0.00000  Uiso   1.00
O1603  O     0.96879   0.82059   0.49146   0.00000  Uiso   1.00
O1604  O     0.89791   0.02990   0.28139   0.00000  Uiso   1.00
N1605  N     0.24401   0.87668   0.69012   0.00000  Uiso   1.00
N1606  N     0.93803   0.78451   0.44923   0.00000  Uiso   1.00
N1607  N     0.88753   0.93368   0.29953   0.00000  Uiso   1.00
N1608  N     0.19496   0.92408   0.70948   0.00000  Uiso   1.00
N1609  N     0.88897   0.83191   0.46858   0.00000  Uiso   1.00
N1610  N     0.83848   0.98109   0.31889   0.00000  Uiso   1.00
C1611  C     0.47193   0.08299   0.70013   0.00000  Uiso   1.00
C1612  C     0.39713   0.03772   0.70210   0.00000  Uiso   1.00
C1613  C     0.36156   0.97325   0.69298   0.00000  Uiso   1.00
C1614  C     0.29346   0.94008   0.69666   0.00000  Uiso   1.00
C1615  C     0.84875   0.19850   0.03118   0.00000  Uiso   1.00
C1616  C     0.49652   0.10418   0.72758   0.00000  Uiso   1.00
C1617  C     0.54454   0.09559   0.73988   0.00000  Uiso   1.00
C1618  C     0.56012   0.11837   0.76500   0.00000  Uiso   1.00
C1619  C     0.60310   0.14668   0.80574   0.00000  Uiso   1.00
C1620  C     0.48260   0.14528   0.68632   0.00000  Uiso   1.00
C1621  C     0.51892   0.17126   0.66393   0.00000  Uiso   1.00
C1622  C     0.52279   0.22867   0.65433   0.00000  Uiso   1.00
C1623  C     0.54415   0.32079   0.63101   0.00000  Uiso   1.00
C1624  C     0.41424   0.13874   0.72290   0.00000  Uiso   1.00
C1625  C     0.36579   0.06800   0.71447   0.00000  Uiso   1.00
C1626  C     0.29773   0.03493   0.71816   0.00000  Uiso   1.00
C1627  C     0.92874   0.30375   0.04238   0.00000  Uiso   1.00
C1628  C     0.46519   0.13446   0.73995   0.00000  Uiso   1.00
C1629  C     0.48071   0.15727   0.76506   0.00000  Uiso   1.00
C1630  C     0.52873   0.14871   0.77739   0.00000  Uiso   1.00
C1631  C     0.45126   0.17556   0.69869   0.00000  Uiso   1.00
C1632  C     0.45509   0.23294   0.68912   0.00000  Uiso   1.00
C1633  C     0.49140   0.25900   0.66672   0.00000  Uiso   1.00
H1634  H     0.49632   0.05942   0.69051   0.00000  Uiso   1.00
H1635  H     0.38583   0.94983   0.68341   0.00000  Uiso   1.00
H1636  H     0.56878   0.07216   0.73030   0.00000  Uiso   1.00
H1637  H     0.54316   0.14782   0.65437   0.00000  Uiso   1.00
H1638  H     0.91617   0.17501   0.01433   0.00000  Uiso   1.00
H1639  H     0.63529   0.09963   0.77987   0.00000  Uiso   1.00
H1640  H     0.58127   0.25918   0.61975   0.00000  Uiso   1.00
H1641  H     0.38984   0.16232   0.73253   0.00000  Uiso   1.00
H1642  H     0.27350   0.05837   0.72773   0.00000  Uiso   1.00
H1643  H     0.45646   0.18070   0.77462   0.00000  Uiso   1.00
H1644  H     0.43083   0.25636   0.69869   0.00000  Uiso   1.00
H1645  H     0.82500   0.26310   0.05031   0.00000  Uiso   1.00
H1646  H     0.54413   0.18773   0.81584   0.00000  Uiso   1.00
H1647  H     0.49010   0.34728   0.65573   0.00000  Uiso   1.00
O1648  O     0.79598   0.14881   0.02842   0.00000  Uiso   1.00
O1649  O     0.63546   0.15392   0.82479   0.00000  Uiso   1.00
O1650  O     0.56457   0.36324   0.61472   0.00000  Uiso   1.00
N1651  N     0.91068   0.21001   0.02345   0.00000  Uiso   1.00
N1652  N     0.60470   0.11784   0.78256   0.00000  Uiso   1.00
N1653  N     0.55420   0.26701   0.63287   0.00000  Uiso   1.00
N1654  N     0.86162   0.25742   0.04281   0.00000  Uiso   1.00
N1655  N     0.55564   0.16525   0.80192   0.00000  Uiso   1.00
N1656  N     0.50514   0.31442   0.65222   0.00000  Uiso   1.00
