data_job_05865
_audit_creation_date              2018-12-19
_audit_creation_method            'Materials Studio'
_symmetry_space_group_name_H-M    'P1'
_symmetry_Int_Tables_number       1
_symmetry_cell_setting            triclinic
loop_
_symmetry_equiv_pos_as_xyz
  x,y,z
_cell_length_a                    32.7299
_cell_length_b                    17.0353
_cell_length_c                    24.9366
_cell_angle_alpha                 90.0000
_cell_angle_beta                  90.0000
_cell_angle_gamma                 90.0000
loop_
_atom_site_label
_atom_site_type_symbol
_atom_site_fract_x
_atom_site_fract_y
_atom_site_fract_z
_atom_site_U_iso_or_equiv
_atom_site_adp_type
_atom_site_occupancy
C1     C     0.12233   0.23474   0.11452   0.00000  Uiso   1.00
C2     C     0.08269   0.26170   0.14086   0.00000  Uiso   1.00
C3     C     0.07643   0.33357   0.16574   0.00000  Uiso   1.00
C4     C     0.03799   0.34704   0.18742   0.00000  Uiso   1.00
C5     C     0.98117   0.39748   0.22882   0.00000  Uiso   1.00
C6     C     0.13382   0.15777   0.14186   0.00000  Uiso   1.00
C7     C     0.17055   0.14226   0.16758   0.00000  Uiso   1.00
C8     C     0.17515   0.06824   0.19010   0.00000  Uiso   1.00
C9     C     0.19772   0.95731   0.23302   0.00000  Uiso   1.00
C10    C     0.11132   0.21355   0.05689   0.00000  Uiso   1.00
C11    C     0.12914   0.24491   0.01116   0.00000  Uiso   1.00
C12    C     0.11481   0.21783   0.96212   0.00000  Uiso   1.00
C13    C     0.10245   0.19350   0.87311   0.00000  Uiso   1.00
C14    C     0.06520   0.13087   0.10876   0.00000  Uiso   1.00
C15    C     0.05166   0.20528   0.13773   0.00000  Uiso   1.00
C16    C     0.01322   0.21865   0.15937   0.00000  Uiso   1.00
C17    C     0.00690   0.29053   0.18428   0.00000  Uiso   1.00
C18    C     0.10279   0.10136   0.13874   0.00000  Uiso   1.00
C19    C     0.10734   0.02734   0.16121   0.00000  Uiso   1.00
C20    C     0.14406   0.01172   0.18696   0.00000  Uiso   1.00
C21    C     0.08029   0.15713   0.05376   0.00000  Uiso   1.00
C22    C     0.06593   0.12999   0.00479   0.00000  Uiso   1.00
C23    C     0.08372   0.16131   0.95899   0.00000  Uiso   1.00
H24    H     0.14649   0.27865   0.11695   0.00000  Uiso   1.00
H25    H     0.10045   0.37721   0.16816   0.00000  Uiso   1.00
H26    H     0.19455   0.18593   0.16999   0.00000  Uiso   1.00
H27    H     0.15315   0.28857   0.01359   0.00000  Uiso   1.00
H28    H     0.03573   0.46159   0.22357   0.00000  Uiso   1.00
H29    H     0.23416   0.05825   0.22742   0.00000  Uiso   1.00
H30    H     0.14686   0.27468   0.89762   0.00000  Uiso   1.00
H31    H     0.04104   0.08694   0.10633   0.00000  Uiso   1.00
H32    H     0.98921   0.17498   0.15695   0.00000  Uiso   1.00
H33    H     0.08332   0.98370   0.15878   0.00000  Uiso   1.00
H34    H     0.04192   0.08633   0.00238   0.00000  Uiso   1.00
H35    H     0.94545   0.29745   0.21447   0.00000  Uiso   1.00
H36    H     0.14388   0.89411   0.21832   0.00000  Uiso   1.00
H37    H     0.05657   0.11054   0.88852   0.00000  Uiso   1.00
O38    O     0.95841   0.44088   0.25253   0.00000  Uiso   1.00
O39    O     0.21874   0.91171   0.25757   0.00000  Uiso   1.00
O40    O     0.10420   0.19567   0.82488   0.00000  Uiso   1.00
N41    N     0.02159   0.41088   0.21447   0.00000  Uiso   1.00
N42    N     0.20711   0.03379   0.21808   0.00000  Uiso   1.00
N43    N     0.12550   0.23612   0.90974   0.00000  Uiso   1.00
N44    N     0.97301   0.32256   0.20957   0.00000  Uiso   1.00
N45    N     0.15853   0.94546   0.21318   0.00000  Uiso   1.00
N46    N     0.07692   0.14780   0.90485   0.00000  Uiso   1.00
C47    C     0.62233   0.73474   0.11452   0.00000  Uiso   1.00
C48    C     0.58269   0.76170   0.14086   0.00000  Uiso   1.00
C49    C     0.57643   0.83357   0.16574   0.00000  Uiso   1.00
C50    C     0.53799   0.84704   0.18742   0.00000  Uiso   1.00
C51    C     0.48117   0.89748   0.22882   0.00000  Uiso   1.00
C52    C     0.63382   0.65777   0.14186   0.00000  Uiso   1.00
C53    C     0.67055   0.64226   0.16758   0.00000  Uiso   1.00
C54    C     0.67515   0.56824   0.19010   0.00000  Uiso   1.00
C55    C     0.69772   0.45731   0.23302   0.00000  Uiso   1.00
C56    C     0.61132   0.71355   0.05689   0.00000  Uiso   1.00
C57    C     0.62914   0.74491   0.01116   0.00000  Uiso   1.00
C58    C     0.61481   0.71783   0.96212   0.00000  Uiso   1.00
C59    C     0.60245   0.69350   0.87311   0.00000  Uiso   1.00
C60    C     0.56520   0.63087   0.10876   0.00000  Uiso   1.00
C61    C     0.55166   0.70528   0.13773   0.00000  Uiso   1.00
C62    C     0.51322   0.71865   0.15937   0.00000  Uiso   1.00
C63    C     0.50690   0.79053   0.18428   0.00000  Uiso   1.00
C64    C     0.60279   0.60136   0.13874   0.00000  Uiso   1.00
C65    C     0.60734   0.52734   0.16121   0.00000  Uiso   1.00
C66    C     0.64406   0.51172   0.18696   0.00000  Uiso   1.00
C67    C     0.58029   0.65713   0.05376   0.00000  Uiso   1.00
C68    C     0.56593   0.62999   0.00479   0.00000  Uiso   1.00
C69    C     0.58372   0.66131   0.95899   0.00000  Uiso   1.00
H70    H     0.64649   0.77865   0.11695   0.00000  Uiso   1.00
H71    H     0.60045   0.87721   0.16816   0.00000  Uiso   1.00
H72    H     0.69455   0.68593   0.16999   0.00000  Uiso   1.00
H73    H     0.65315   0.78857   0.01359   0.00000  Uiso   1.00
H74    H     0.53573   0.96159   0.22357   0.00000  Uiso   1.00
H75    H     0.73416   0.55825   0.22742   0.00000  Uiso   1.00
H76    H     0.64686   0.77468   0.89762   0.00000  Uiso   1.00
H77    H     0.54104   0.58694   0.10633   0.00000  Uiso   1.00
H78    H     0.48921   0.67498   0.15695   0.00000  Uiso   1.00
H79    H     0.58332   0.48370   0.15878   0.00000  Uiso   1.00
H80    H     0.54192   0.58633   0.00238   0.00000  Uiso   1.00
H81    H     0.44545   0.79745   0.21447   0.00000  Uiso   1.00
H82    H     0.64388   0.39411   0.21832   0.00000  Uiso   1.00
H83    H     0.55657   0.61054   0.88852   0.00000  Uiso   1.00
O84    O     0.45841   0.94088   0.25253   0.00000  Uiso   1.00
O85    O     0.71874   0.41171   0.25757   0.00000  Uiso   1.00
O86    O     0.60420   0.69567   0.82488   0.00000  Uiso   1.00
N87    N     0.52159   0.91088   0.21447   0.00000  Uiso   1.00
N88    N     0.70711   0.53379   0.21808   0.00000  Uiso   1.00
N89    N     0.62550   0.73612   0.90974   0.00000  Uiso   1.00
N90    N     0.47301   0.82256   0.20957   0.00000  Uiso   1.00
N91    N     0.65853   0.44546   0.21318   0.00000  Uiso   1.00
N92    N     0.57692   0.64780   0.90485   0.00000  Uiso   1.00
C93    C     0.37767   0.26526   0.11452   0.00000  Uiso   1.00
C94    C     0.41731   0.23830   0.14086   0.00000  Uiso   1.00
C95    C     0.42357   0.16643   0.16574   0.00000  Uiso   1.00
C96    C     0.46201   0.15296   0.18742   0.00000  Uiso   1.00
C97    C     0.51883   0.10252   0.22882   0.00000  Uiso   1.00
C98    C     0.36618   0.34223   0.14186   0.00000  Uiso   1.00
C99    C     0.32945   0.35774   0.16758   0.00000  Uiso   1.00
C100   C     0.32485   0.43176   0.19010   0.00000  Uiso   1.00
C101   C     0.30228   0.54269   0.23302   0.00000  Uiso   1.00
C102   C     0.38868   0.28645   0.05689   0.00000  Uiso   1.00
C103   C     0.37086   0.25509   0.01116   0.00000  Uiso   1.00
C104   C     0.38519   0.28217   0.96212   0.00000  Uiso   1.00
C105   C     0.39755   0.30650   0.87311   0.00000  Uiso   1.00
C106   C     0.43480   0.36913   0.10876   0.00000  Uiso   1.00
C107   C     0.44834   0.29472   0.13773   0.00000  Uiso   1.00
C108   C     0.48678   0.28135   0.15937   0.00000  Uiso   1.00
C109   C     0.49310   0.20947   0.18428   0.00000  Uiso   1.00
C110   C     0.39721   0.39864   0.13874   0.00000  Uiso   1.00
C111   C     0.39266   0.47266   0.16121   0.00000  Uiso   1.00
C112   C     0.35594   0.48828   0.18696   0.00000  Uiso   1.00
C113   C     0.41971   0.34287   0.05376   0.00000  Uiso   1.00
C114   C     0.43407   0.37001   0.00479   0.00000  Uiso   1.00
C115   C     0.41628   0.33869   0.95899   0.00000  Uiso   1.00
H116   H     0.35351   0.22135   0.11695   0.00000  Uiso   1.00
H117   H     0.39955   0.12279   0.16816   0.00000  Uiso   1.00
H118   H     0.30545   0.31407   0.16999   0.00000  Uiso   1.00
H119   H     0.34685   0.21143   0.01359   0.00000  Uiso   1.00
H120   H     0.46427   0.03841   0.22357   0.00000  Uiso   1.00
H121   H     0.26584   0.44175   0.22742   0.00000  Uiso   1.00
H122   H     0.35314   0.22532   0.89762   0.00000  Uiso   1.00
H123   H     0.45896   0.41306   0.10633   0.00000  Uiso   1.00
H124   H     0.51079   0.32502   0.15695   0.00000  Uiso   1.00
H125   H     0.41668   0.51630   0.15878   0.00000  Uiso   1.00
H126   H     0.45808   0.41367   0.00238   0.00000  Uiso   1.00
H127   H     0.55455   0.20255   0.21447   0.00000  Uiso   1.00
H128   H     0.35612   0.60589   0.21832   0.00000  Uiso   1.00
H129   H     0.44343   0.38946   0.88852   0.00000  Uiso   1.00
O130   O     0.54159   0.05912   0.25253   0.00000  Uiso   1.00
O131   O     0.28126   0.58829   0.25757   0.00000  Uiso   1.00
O132   O     0.39580   0.30433   0.82488   0.00000  Uiso   1.00
N133   N     0.47841   0.08912   0.21447   0.00000  Uiso   1.00
N134   N     0.29289   0.46621   0.21808   0.00000  Uiso   1.00
N135   N     0.37450   0.26388   0.90974   0.00000  Uiso   1.00
N136   N     0.52699   0.17744   0.20957   0.00000  Uiso   1.00
N137   N     0.34147   0.55454   0.21318   0.00000  Uiso   1.00
N138   N     0.42308   0.35220   0.90485   0.00000  Uiso   1.00
C139   C     0.87767   0.76526   0.11452   0.00000  Uiso   1.00
C140   C     0.91731   0.73830   0.14086   0.00000  Uiso   1.00
C141   C     0.92357   0.66643   0.16574   0.00000  Uiso   1.00
C142   C     0.96201   0.65296   0.18742   0.00000  Uiso   1.00
C143   C     0.01883   0.60252   0.22882   0.00000  Uiso   1.00
C144   C     0.86618   0.84223   0.14186   0.00000  Uiso   1.00
C145   C     0.82945   0.85774   0.16758   0.00000  Uiso   1.00
C146   C     0.82485   0.93176   0.19010   0.00000  Uiso   1.00
C147   C     0.80228   0.04269   0.23302   0.00000  Uiso   1.00
C148   C     0.88868   0.78645   0.05689   0.00000  Uiso   1.00
C149   C     0.87086   0.75509   0.01116   0.00000  Uiso   1.00
C150   C     0.88519   0.78217   0.96212   0.00000  Uiso   1.00
C151   C     0.89755   0.80650   0.87311   0.00000  Uiso   1.00
C152   C     0.93480   0.86913   0.10876   0.00000  Uiso   1.00
C153   C     0.94834   0.79472   0.13773   0.00000  Uiso   1.00
C154   C     0.98678   0.78135   0.15937   0.00000  Uiso   1.00
C155   C     0.99310   0.70947   0.18428   0.00000  Uiso   1.00
C156   C     0.89721   0.89864   0.13874   0.00000  Uiso   1.00
C157   C     0.89266   0.97266   0.16121   0.00000  Uiso   1.00
C158   C     0.85594   0.98828   0.18696   0.00000  Uiso   1.00
C159   C     0.91971   0.84287   0.05376   0.00000  Uiso   1.00
C160   C     0.93407   0.87001   0.00479   0.00000  Uiso   1.00
C161   C     0.91628   0.83869   0.95899   0.00000  Uiso   1.00
H162   H     0.85351   0.72135   0.11695   0.00000  Uiso   1.00
H163   H     0.89955   0.62279   0.16816   0.00000  Uiso   1.00
H164   H     0.80545   0.81407   0.16999   0.00000  Uiso   1.00
H165   H     0.84685   0.71143   0.01359   0.00000  Uiso   1.00
H166   H     0.96427   0.53841   0.22357   0.00000  Uiso   1.00
H167   H     0.76584   0.94175   0.22742   0.00000  Uiso   1.00
H168   H     0.85314   0.72532   0.89762   0.00000  Uiso   1.00
H169   H     0.95896   0.91306   0.10633   0.00000  Uiso   1.00
H170   H     0.01079   0.82502   0.15695   0.00000  Uiso   1.00
H171   H     0.91668   0.01630   0.15878   0.00000  Uiso   1.00
H172   H     0.95808   0.91367   0.00238   0.00000  Uiso   1.00
H173   H     0.05455   0.70255   0.21447   0.00000  Uiso   1.00
H174   H     0.85612   0.10589   0.21832   0.00000  Uiso   1.00
H175   H     0.94343   0.88946   0.88852   0.00000  Uiso   1.00
O176   O     0.04159   0.55912   0.25253   0.00000  Uiso   1.00
O177   O     0.78126   0.08829   0.25757   0.00000  Uiso   1.00
O178   O     0.89580   0.80433   0.82488   0.00000  Uiso   1.00
N179   N     0.97841   0.58912   0.21447   0.00000  Uiso   1.00
N180   N     0.79289   0.96621   0.21808   0.00000  Uiso   1.00
N181   N     0.87450   0.76388   0.90974   0.00000  Uiso   1.00
N182   N     0.02699   0.67744   0.20957   0.00000  Uiso   1.00
N183   N     0.84147   0.05454   0.21318   0.00000  Uiso   1.00
N184   N     0.92308   0.85220   0.90485   0.00000  Uiso   1.00
C185   C     0.87767   0.23474   0.88548   0.00000  Uiso   1.00
C186   C     0.91731   0.26170   0.85914   0.00000  Uiso   1.00
C187   C     0.92357   0.33357   0.83426   0.00000  Uiso   1.00
C188   C     0.96201   0.34704   0.81258   0.00000  Uiso   1.00
C189   C     0.01883   0.39748   0.77118   0.00000  Uiso   1.00
C190   C     0.86618   0.15777   0.85814   0.00000  Uiso   1.00
C191   C     0.82945   0.14226   0.83242   0.00000  Uiso   1.00
C192   C     0.82485   0.06824   0.80990   0.00000  Uiso   1.00
C193   C     0.80228   0.95731   0.76698   0.00000  Uiso   1.00
C194   C     0.88868   0.21355   0.94311   0.00000  Uiso   1.00
C195   C     0.87086   0.24491   0.98884   0.00000  Uiso   1.00
C196   C     0.88519   0.21783   0.03788   0.00000  Uiso   1.00
C197   C     0.89755   0.19350   0.12689   0.00000  Uiso   1.00
C198   C     0.93480   0.13087   0.89124   0.00000  Uiso   1.00
C199   C     0.94834   0.20528   0.86227   0.00000  Uiso   1.00
C200   C     0.98678   0.21865   0.84063   0.00000  Uiso   1.00
C201   C     0.99310   0.29053   0.81572   0.00000  Uiso   1.00
C202   C     0.89721   0.10136   0.86126   0.00000  Uiso   1.00
C203   C     0.89266   0.02734   0.83879   0.00000  Uiso   1.00
C204   C     0.85594   0.01172   0.81304   0.00000  Uiso   1.00
C205   C     0.91971   0.15713   0.94624   0.00000  Uiso   1.00
C206   C     0.93407   0.12999   0.99521   0.00000  Uiso   1.00
C207   C     0.91628   0.16131   0.04101   0.00000  Uiso   1.00
H208   H     0.85351   0.27865   0.88305   0.00000  Uiso   1.00
H209   H     0.89955   0.37721   0.83184   0.00000  Uiso   1.00
H210   H     0.80545   0.18593   0.83001   0.00000  Uiso   1.00
H211   H     0.84685   0.28857   0.98641   0.00000  Uiso   1.00
H212   H     0.96427   0.46159   0.77643   0.00000  Uiso   1.00
H213   H     0.76584   0.05825   0.77258   0.00000  Uiso   1.00
H214   H     0.85314   0.27468   0.10238   0.00000  Uiso   1.00
H215   H     0.95896   0.08694   0.89367   0.00000  Uiso   1.00
H216   H     0.01079   0.17498   0.84305   0.00000  Uiso   1.00
H217   H     0.91668   0.98370   0.84122   0.00000  Uiso   1.00
H218   H     0.95808   0.08633   0.99762   0.00000  Uiso   1.00
H219   H     0.05455   0.29745   0.78553   0.00000  Uiso   1.00
H220   H     0.85612   0.89411   0.78168   0.00000  Uiso   1.00
H221   H     0.94343   0.11054   0.11148   0.00000  Uiso   1.00
O222   O     0.04159   0.44088   0.74747   0.00000  Uiso   1.00
O223   O     0.78126   0.91171   0.74243   0.00000  Uiso   1.00
O224   O     0.89580   0.19567   0.17512   0.00000  Uiso   1.00
N225   N     0.97841   0.41088   0.78553   0.00000  Uiso   1.00
N226   N     0.79289   0.03379   0.78192   0.00000  Uiso   1.00
N227   N     0.87450   0.23612   0.09026   0.00000  Uiso   1.00
N228   N     0.02699   0.32256   0.79043   0.00000  Uiso   1.00
N229   N     0.84147   0.94546   0.78682   0.00000  Uiso   1.00
N230   N     0.92308   0.14780   0.09515   0.00000  Uiso   1.00
C231   C     0.37767   0.73474   0.88548   0.00000  Uiso   1.00
C232   C     0.41731   0.76170   0.85914   0.00000  Uiso   1.00
C233   C     0.42357   0.83357   0.83426   0.00000  Uiso   1.00
C234   C     0.46201   0.84704   0.81258   0.00000  Uiso   1.00
C235   C     0.51883   0.89748   0.77118   0.00000  Uiso   1.00
C236   C     0.36618   0.65777   0.85814   0.00000  Uiso   1.00
C237   C     0.32945   0.64226   0.83242   0.00000  Uiso   1.00
C238   C     0.32485   0.56824   0.80990   0.00000  Uiso   1.00
C239   C     0.30228   0.45731   0.76698   0.00000  Uiso   1.00
C240   C     0.38868   0.71355   0.94311   0.00000  Uiso   1.00
C241   C     0.37086   0.74491   0.98884   0.00000  Uiso   1.00
C242   C     0.38519   0.71783   0.03788   0.00000  Uiso   1.00
C243   C     0.39755   0.69350   0.12689   0.00000  Uiso   1.00
C244   C     0.43480   0.63087   0.89124   0.00000  Uiso   1.00
C245   C     0.44834   0.70528   0.86227   0.00000  Uiso   1.00
C246   C     0.48678   0.71865   0.84063   0.00000  Uiso   1.00
C247   C     0.49310   0.79053   0.81572   0.00000  Uiso   1.00
C248   C     0.39721   0.60136   0.86126   0.00000  Uiso   1.00
C249   C     0.39266   0.52734   0.83879   0.00000  Uiso   1.00
C250   C     0.35594   0.51172   0.81304   0.00000  Uiso   1.00
C251   C     0.41971   0.65713   0.94624   0.00000  Uiso   1.00
C252   C     0.43407   0.62999   0.99521   0.00000  Uiso   1.00
C253   C     0.41628   0.66131   0.04101   0.00000  Uiso   1.00
H254   H     0.35351   0.77865   0.88305   0.00000  Uiso   1.00
H255   H     0.39955   0.87721   0.83184   0.00000  Uiso   1.00
H256   H     0.30545   0.68593   0.83001   0.00000  Uiso   1.00
H257   H     0.34685   0.78857   0.98641   0.00000  Uiso   1.00
H258   H     0.46427   0.96159   0.77643   0.00000  Uiso   1.00
H259   H     0.26584   0.55825   0.77258   0.00000  Uiso   1.00
H260   H     0.35314   0.77468   0.10238   0.00000  Uiso   1.00
H261   H     0.45896   0.58694   0.89367   0.00000  Uiso   1.00
H262   H     0.51079   0.67498   0.84305   0.00000  Uiso   1.00
H263   H     0.41668   0.48370   0.84122   0.00000  Uiso   1.00
H264   H     0.45808   0.58633   0.99762   0.00000  Uiso   1.00
H265   H     0.55455   0.79745   0.78553   0.00000  Uiso   1.00
H266   H     0.35612   0.39411   0.78168   0.00000  Uiso   1.00
H267   H     0.44343   0.61054   0.11148   0.00000  Uiso   1.00
O268   O     0.54159   0.94088   0.74747   0.00000  Uiso   1.00
O269   O     0.28126   0.41171   0.74243   0.00000  Uiso   1.00
O270   O     0.39580   0.69567   0.17512   0.00000  Uiso   1.00
N271   N     0.47841   0.91088   0.78553   0.00000  Uiso   1.00
N272   N     0.29289   0.53379   0.78192   0.00000  Uiso   1.00
N273   N     0.37450   0.73612   0.09026   0.00000  Uiso   1.00
N274   N     0.52699   0.82256   0.79043   0.00000  Uiso   1.00
N275   N     0.34147   0.44546   0.78682   0.00000  Uiso   1.00
N276   N     0.42308   0.64780   0.09515   0.00000  Uiso   1.00
C277   C     0.62233   0.26526   0.88548   0.00000  Uiso   1.00
C278   C     0.58269   0.23830   0.85914   0.00000  Uiso   1.00
C279   C     0.57643   0.16643   0.83426   0.00000  Uiso   1.00
C280   C     0.53799   0.15296   0.81258   0.00000  Uiso   1.00
C281   C     0.48117   0.10252   0.77118   0.00000  Uiso   1.00
C282   C     0.63382   0.34223   0.85814   0.00000  Uiso   1.00
C283   C     0.67055   0.35774   0.83242   0.00000  Uiso   1.00
C284   C     0.67515   0.43176   0.80990   0.00000  Uiso   1.00
C285   C     0.69772   0.54269   0.76698   0.00000  Uiso   1.00
C286   C     0.61132   0.28645   0.94311   0.00000  Uiso   1.00
C287   C     0.62914   0.25509   0.98884   0.00000  Uiso   1.00
C288   C     0.61481   0.28217   0.03788   0.00000  Uiso   1.00
C289   C     0.60245   0.30650   0.12689   0.00000  Uiso   1.00
C290   C     0.56520   0.36913   0.89124   0.00000  Uiso   1.00
C291   C     0.55166   0.29472   0.86227   0.00000  Uiso   1.00
C292   C     0.51322   0.28135   0.84063   0.00000  Uiso   1.00
C293   C     0.50690   0.20947   0.81572   0.00000  Uiso   1.00
C294   C     0.60279   0.39864   0.86126   0.00000  Uiso   1.00
C295   C     0.60734   0.47266   0.83879   0.00000  Uiso   1.00
C296   C     0.64406   0.48828   0.81304   0.00000  Uiso   1.00
C297   C     0.58029   0.34287   0.94624   0.00000  Uiso   1.00
C298   C     0.56593   0.37001   0.99521   0.00000  Uiso   1.00
C299   C     0.58372   0.33869   0.04101   0.00000  Uiso   1.00
H300   H     0.64649   0.22135   0.88305   0.00000  Uiso   1.00
H301   H     0.60045   0.12279   0.83184   0.00000  Uiso   1.00
H302   H     0.69455   0.31407   0.83001   0.00000  Uiso   1.00
H303   H     0.65315   0.21143   0.98641   0.00000  Uiso   1.00
H304   H     0.53573   0.03841   0.77643   0.00000  Uiso   1.00
H305   H     0.73416   0.44175   0.77258   0.00000  Uiso   1.00
H306   H     0.64686   0.22532   0.10238   0.00000  Uiso   1.00
H307   H     0.54104   0.41306   0.89367   0.00000  Uiso   1.00
H308   H     0.48921   0.32502   0.84305   0.00000  Uiso   1.00
H309   H     0.58332   0.51630   0.84122   0.00000  Uiso   1.00
H310   H     0.54192   0.41367   0.99762   0.00000  Uiso   1.00
H311   H     0.44545   0.20255   0.78553   0.00000  Uiso   1.00
H312   H     0.64388   0.60589   0.78168   0.00000  Uiso   1.00
H313   H     0.55657   0.38946   0.11148   0.00000  Uiso   1.00
O314   O     0.45841   0.05912   0.74747   0.00000  Uiso   1.00
O315   O     0.71874   0.58829   0.74243   0.00000  Uiso   1.00
O316   O     0.60420   0.30433   0.17512   0.00000  Uiso   1.00
N317   N     0.52159   0.08912   0.78553   0.00000  Uiso   1.00
N318   N     0.70711   0.46621   0.78192   0.00000  Uiso   1.00
N319   N     0.62550   0.26388   0.09026   0.00000  Uiso   1.00
N320   N     0.47301   0.17744   0.79043   0.00000  Uiso   1.00
N321   N     0.65853   0.55454   0.78682   0.00000  Uiso   1.00
N322   N     0.57692   0.35220   0.09515   0.00000  Uiso   1.00
C323   C     0.12233   0.76526   0.88548   0.00000  Uiso   1.00
C324   C     0.08269   0.73830   0.85914   0.00000  Uiso   1.00
C325   C     0.07643   0.66643   0.83426   0.00000  Uiso   1.00
C326   C     0.03799   0.65296   0.81258   0.00000  Uiso   1.00
C327   C     0.98117   0.60252   0.77118   0.00000  Uiso   1.00
C328   C     0.13382   0.84223   0.85814   0.00000  Uiso   1.00
C329   C     0.17055   0.85774   0.83242   0.00000  Uiso   1.00
C330   C     0.17515   0.93176   0.80990   0.00000  Uiso   1.00
C331   C     0.19772   0.04269   0.76698   0.00000  Uiso   1.00
C332   C     0.11132   0.78645   0.94311   0.00000  Uiso   1.00
C333   C     0.12914   0.75509   0.98884   0.00000  Uiso   1.00
C334   C     0.11481   0.78217   0.03788   0.00000  Uiso   1.00
C335   C     0.10245   0.80650   0.12689   0.00000  Uiso   1.00
C336   C     0.06520   0.86913   0.89124   0.00000  Uiso   1.00
C337   C     0.05166   0.79472   0.86227   0.00000  Uiso   1.00
C338   C     0.01322   0.78135   0.84063   0.00000  Uiso   1.00
C339   C     0.00690   0.70947   0.81572   0.00000  Uiso   1.00
C340   C     0.10279   0.89864   0.86126   0.00000  Uiso   1.00
C341   C     0.10734   0.97266   0.83879   0.00000  Uiso   1.00
C342   C     0.14406   0.98828   0.81304   0.00000  Uiso   1.00
C343   C     0.08029   0.84287   0.94624   0.00000  Uiso   1.00
C344   C     0.06593   0.87001   0.99521   0.00000  Uiso   1.00
C345   C     0.08372   0.83869   0.04101   0.00000  Uiso   1.00
H346   H     0.14649   0.72135   0.88305   0.00000  Uiso   1.00
H347   H     0.10045   0.62279   0.83184   0.00000  Uiso   1.00
H348   H     0.19455   0.81407   0.83001   0.00000  Uiso   1.00
H349   H     0.15315   0.71143   0.98641   0.00000  Uiso   1.00
H350   H     0.03573   0.53841   0.77643   0.00000  Uiso   1.00
H351   H     0.23416   0.94175   0.77258   0.00000  Uiso   1.00
H352   H     0.14686   0.72532   0.10238   0.00000  Uiso   1.00
H353   H     0.04104   0.91306   0.89367   0.00000  Uiso   1.00
H354   H     0.98921   0.82502   0.84305   0.00000  Uiso   1.00
H355   H     0.08332   0.01630   0.84122   0.00000  Uiso   1.00
H356   H     0.04192   0.91367   0.99762   0.00000  Uiso   1.00
H357   H     0.94545   0.70255   0.78553   0.00000  Uiso   1.00
H358   H     0.14388   0.10589   0.78168   0.00000  Uiso   1.00
H359   H     0.05657   0.88946   0.11148   0.00000  Uiso   1.00
O360   O     0.95841   0.55912   0.74747   0.00000  Uiso   1.00
O361   O     0.21874   0.08829   0.74243   0.00000  Uiso   1.00
O362   O     0.10420   0.80433   0.17512   0.00000  Uiso   1.00
N363   N     0.02159   0.58912   0.78553   0.00000  Uiso   1.00
N364   N     0.20711   0.96621   0.78192   0.00000  Uiso   1.00
N365   N     0.12550   0.76388   0.09026   0.00000  Uiso   1.00
N366   N     0.97301   0.67744   0.79043   0.00000  Uiso   1.00
N367   N     0.15853   0.05454   0.78682   0.00000  Uiso   1.00
N368   N     0.07692   0.85220   0.09515   0.00000  Uiso   1.00
C369   C     0.87767   0.26526   0.38548   0.00000  Uiso   1.00
C370   C     0.91731   0.23830   0.35914   0.00000  Uiso   1.00
C371   C     0.92357   0.16643   0.33426   0.00000  Uiso   1.00
C372   C     0.96201   0.15296   0.31258   0.00000  Uiso   1.00
C373   C     0.01883   0.10252   0.27118   0.00000  Uiso   1.00
C374   C     0.86618   0.34223   0.35814   0.00000  Uiso   1.00
C375   C     0.82945   0.35774   0.33242   0.00000  Uiso   1.00
C376   C     0.82485   0.43176   0.30990   0.00000  Uiso   1.00
C377   C     0.80228   0.54269   0.26698   0.00000  Uiso   1.00
C378   C     0.88868   0.28645   0.44311   0.00000  Uiso   1.00
C379   C     0.87086   0.25509   0.48884   0.00000  Uiso   1.00
C380   C     0.88519   0.28217   0.53788   0.00000  Uiso   1.00
C381   C     0.89755   0.30650   0.62689   0.00000  Uiso   1.00
C382   C     0.93480   0.36913   0.39124   0.00000  Uiso   1.00
C383   C     0.94834   0.29472   0.36227   0.00000  Uiso   1.00
C384   C     0.98678   0.28135   0.34063   0.00000  Uiso   1.00
C385   C     0.99310   0.20947   0.31572   0.00000  Uiso   1.00
C386   C     0.89721   0.39864   0.36126   0.00000  Uiso   1.00
C387   C     0.89266   0.47266   0.33879   0.00000  Uiso   1.00
C388   C     0.85594   0.48828   0.31304   0.00000  Uiso   1.00
C389   C     0.91971   0.34287   0.44624   0.00000  Uiso   1.00
C390   C     0.93407   0.37001   0.49521   0.00000  Uiso   1.00
C391   C     0.91628   0.33869   0.54101   0.00000  Uiso   1.00
H392   H     0.85351   0.22135   0.38305   0.00000  Uiso   1.00
H393   H     0.89955   0.12279   0.33184   0.00000  Uiso   1.00
H394   H     0.80545   0.31407   0.33001   0.00000  Uiso   1.00
H395   H     0.84685   0.21143   0.48641   0.00000  Uiso   1.00
H396   H     0.96427   0.03841   0.27643   0.00000  Uiso   1.00
H397   H     0.76584   0.44175   0.27258   0.00000  Uiso   1.00
H398   H     0.85314   0.22532   0.60238   0.00000  Uiso   1.00
H399   H     0.95896   0.41306   0.39367   0.00000  Uiso   1.00
H400   H     0.01079   0.32502   0.34305   0.00000  Uiso   1.00
H401   H     0.91668   0.51630   0.34122   0.00000  Uiso   1.00
H402   H     0.95808   0.41367   0.49762   0.00000  Uiso   1.00
H403   H     0.05455   0.20255   0.28553   0.00000  Uiso   1.00
H404   H     0.85612   0.60589   0.28168   0.00000  Uiso   1.00
H405   H     0.94343   0.38946   0.61148   0.00000  Uiso   1.00
O406   O     0.04159   0.05912   0.24747   0.00000  Uiso   1.00
O407   O     0.78126   0.58829   0.24243   0.00000  Uiso   1.00
O408   O     0.89580   0.30433   0.67512   0.00000  Uiso   1.00
N409   N     0.97841   0.08912   0.28553   0.00000  Uiso   1.00
N410   N     0.79289   0.46621   0.28192   0.00000  Uiso   1.00
N411   N     0.87450   0.26388   0.59026   0.00000  Uiso   1.00
N412   N     0.02699   0.17744   0.29043   0.00000  Uiso   1.00
N413   N     0.84147   0.55454   0.28682   0.00000  Uiso   1.00
N414   N     0.92308   0.35220   0.59515   0.00000  Uiso   1.00
C415   C     0.37767   0.76526   0.38548   0.00000  Uiso   1.00
C416   C     0.41731   0.73830   0.35914   0.00000  Uiso   1.00
C417   C     0.42357   0.66643   0.33426   0.00000  Uiso   1.00
C418   C     0.46201   0.65296   0.31258   0.00000  Uiso   1.00
C419   C     0.51883   0.60252   0.27118   0.00000  Uiso   1.00
C420   C     0.36618   0.84223   0.35814   0.00000  Uiso   1.00
C421   C     0.32945   0.85774   0.33242   0.00000  Uiso   1.00
C422   C     0.32485   0.93176   0.30990   0.00000  Uiso   1.00
C423   C     0.30228   0.04269   0.26698   0.00000  Uiso   1.00
C424   C     0.38868   0.78645   0.44311   0.00000  Uiso   1.00
C425   C     0.37086   0.75509   0.48884   0.00000  Uiso   1.00
C426   C     0.38519   0.78217   0.53788   0.00000  Uiso   1.00
C427   C     0.39755   0.80650   0.62689   0.00000  Uiso   1.00
C428   C     0.43480   0.86913   0.39124   0.00000  Uiso   1.00
C429   C     0.44834   0.79472   0.36227   0.00000  Uiso   1.00
C430   C     0.48678   0.78135   0.34063   0.00000  Uiso   1.00
C431   C     0.49310   0.70947   0.31572   0.00000  Uiso   1.00
C432   C     0.39721   0.89864   0.36126   0.00000  Uiso   1.00
C433   C     0.39266   0.97266   0.33879   0.00000  Uiso   1.00
C434   C     0.35594   0.98828   0.31304   0.00000  Uiso   1.00
C435   C     0.41971   0.84287   0.44624   0.00000  Uiso   1.00
C436   C     0.43407   0.87001   0.49521   0.00000  Uiso   1.00
C437   C     0.41628   0.83869   0.54101   0.00000  Uiso   1.00
H438   H     0.35351   0.72135   0.38305   0.00000  Uiso   1.00
H439   H     0.39955   0.62279   0.33184   0.00000  Uiso   1.00
H440   H     0.30545   0.81407   0.33001   0.00000  Uiso   1.00
H441   H     0.34685   0.71143   0.48641   0.00000  Uiso   1.00
H442   H     0.46427   0.53841   0.27643   0.00000  Uiso   1.00
H443   H     0.26584   0.94175   0.27258   0.00000  Uiso   1.00
H444   H     0.35314   0.72532   0.60238   0.00000  Uiso   1.00
H445   H     0.45896   0.91306   0.39367   0.00000  Uiso   1.00
H446   H     0.51079   0.82502   0.34305   0.00000  Uiso   1.00
H447   H     0.41668   0.01630   0.34122   0.00000  Uiso   1.00
H448   H     0.45808   0.91367   0.49762   0.00000  Uiso   1.00
H449   H     0.55455   0.70255   0.28553   0.00000  Uiso   1.00
H450   H     0.35612   0.10589   0.28168   0.00000  Uiso   1.00
H451   H     0.44343   0.88946   0.61148   0.00000  Uiso   1.00
O452   O     0.54159   0.55912   0.24747   0.00000  Uiso   1.00
O453   O     0.28126   0.08829   0.24243   0.00000  Uiso   1.00
O454   O     0.39580   0.80433   0.67512   0.00000  Uiso   1.00
N455   N     0.47841   0.58912   0.28553   0.00000  Uiso   1.00
N456   N     0.29289   0.96621   0.28192   0.00000  Uiso   1.00
N457   N     0.37450   0.76388   0.59026   0.00000  Uiso   1.00
N458   N     0.52699   0.67744   0.29043   0.00000  Uiso   1.00
N459   N     0.34147   0.05454   0.28682   0.00000  Uiso   1.00
N460   N     0.42308   0.85220   0.59515   0.00000  Uiso   1.00
C461   C     0.62233   0.23474   0.38548   0.00000  Uiso   1.00
C462   C     0.58269   0.26170   0.35914   0.00000  Uiso   1.00
C463   C     0.57643   0.33357   0.33426   0.00000  Uiso   1.00
C464   C     0.53799   0.34704   0.31258   0.00000  Uiso   1.00
C465   C     0.48117   0.39748   0.27118   0.00000  Uiso   1.00
C466   C     0.63382   0.15777   0.35814   0.00000  Uiso   1.00
C467   C     0.67055   0.14226   0.33242   0.00000  Uiso   1.00
C468   C     0.67515   0.06824   0.30990   0.00000  Uiso   1.00
C469   C     0.69772   0.95731   0.26698   0.00000  Uiso   1.00
C470   C     0.61132   0.21355   0.44311   0.00000  Uiso   1.00
C471   C     0.62914   0.24491   0.48884   0.00000  Uiso   1.00
C472   C     0.61481   0.21783   0.53788   0.00000  Uiso   1.00
C473   C     0.60245   0.19350   0.62689   0.00000  Uiso   1.00
C474   C     0.56520   0.13087   0.39124   0.00000  Uiso   1.00
C475   C     0.55166   0.20528   0.36227   0.00000  Uiso   1.00
C476   C     0.51322   0.21865   0.34063   0.00000  Uiso   1.00
C477   C     0.50690   0.29053   0.31572   0.00000  Uiso   1.00
C478   C     0.60279   0.10136   0.36126   0.00000  Uiso   1.00
C479   C     0.60734   0.02734   0.33879   0.00000  Uiso   1.00
C480   C     0.64406   0.01172   0.31304   0.00000  Uiso   1.00
C481   C     0.58029   0.15713   0.44624   0.00000  Uiso   1.00
C482   C     0.56593   0.12999   0.49521   0.00000  Uiso   1.00
C483   C     0.58372   0.16131   0.54101   0.00000  Uiso   1.00
H484   H     0.64649   0.27865   0.38305   0.00000  Uiso   1.00
H485   H     0.60045   0.37721   0.33184   0.00000  Uiso   1.00
H486   H     0.69455   0.18593   0.33001   0.00000  Uiso   1.00
H487   H     0.65315   0.28857   0.48641   0.00000  Uiso   1.00
H488   H     0.53573   0.46159   0.27643   0.00000  Uiso   1.00
H489   H     0.73416   0.05825   0.27258   0.00000  Uiso   1.00
H490   H     0.64686   0.27468   0.60238   0.00000  Uiso   1.00
H491   H     0.54104   0.08694   0.39367   0.00000  Uiso   1.00
H492   H     0.48921   0.17498   0.34305   0.00000  Uiso   1.00
H493   H     0.58332   0.98370   0.34122   0.00000  Uiso   1.00
H494   H     0.54192   0.08633   0.49762   0.00000  Uiso   1.00
H495   H     0.44545   0.29745   0.28553   0.00000  Uiso   1.00
H496   H     0.64388   0.89411   0.28168   0.00000  Uiso   1.00
H497   H     0.55657   0.11054   0.61148   0.00000  Uiso   1.00
O498   O     0.45841   0.44088   0.24747   0.00000  Uiso   1.00
O499   O     0.71874   0.91171   0.24243   0.00000  Uiso   1.00
O500   O     0.60420   0.19567   0.67512   0.00000  Uiso   1.00
N501   N     0.52159   0.41088   0.28553   0.00000  Uiso   1.00
N502   N     0.70711   0.03379   0.28192   0.00000  Uiso   1.00
N503   N     0.62550   0.23612   0.59026   0.00000  Uiso   1.00
N504   N     0.47301   0.32256   0.29043   0.00000  Uiso   1.00
N505   N     0.65853   0.94546   0.28682   0.00000  Uiso   1.00
N506   N     0.57692   0.14780   0.59515   0.00000  Uiso   1.00
C507   C     0.12233   0.73474   0.38548   0.00000  Uiso   1.00
C508   C     0.08269   0.76170   0.35914   0.00000  Uiso   1.00
C509   C     0.07643   0.83357   0.33426   0.00000  Uiso   1.00
C510   C     0.03799   0.84704   0.31258   0.00000  Uiso   1.00
C511   C     0.98117   0.89748   0.27118   0.00000  Uiso   1.00
C512   C     0.13382   0.65777   0.35814   0.00000  Uiso   1.00
C513   C     0.17055   0.64226   0.33242   0.00000  Uiso   1.00
C514   C     0.17515   0.56824   0.30990   0.00000  Uiso   1.00
C515   C     0.19772   0.45731   0.26698   0.00000  Uiso   1.00
C516   C     0.11132   0.71355   0.44311   0.00000  Uiso   1.00
C517   C     0.12914   0.74491   0.48884   0.00000  Uiso   1.00
C518   C     0.11481   0.71783   0.53788   0.00000  Uiso   1.00
C519   C     0.10245   0.69350   0.62689   0.00000  Uiso   1.00
C520   C     0.06520   0.63087   0.39124   0.00000  Uiso   1.00
C521   C     0.05166   0.70528   0.36227   0.00000  Uiso   1.00
C522   C     0.01322   0.71865   0.34063   0.00000  Uiso   1.00
C523   C     0.00690   0.79053   0.31572   0.00000  Uiso   1.00
C524   C     0.10279   0.60136   0.36126   0.00000  Uiso   1.00
C525   C     0.10734   0.52734   0.33879   0.00000  Uiso   1.00
C526   C     0.14406   0.51172   0.31304   0.00000  Uiso   1.00
C527   C     0.08029   0.65713   0.44624   0.00000  Uiso   1.00
C528   C     0.06593   0.62999   0.49521   0.00000  Uiso   1.00
C529   C     0.08372   0.66131   0.54101   0.00000  Uiso   1.00
H530   H     0.14649   0.77865   0.38305   0.00000  Uiso   1.00
H531   H     0.10045   0.87721   0.33184   0.00000  Uiso   1.00
H532   H     0.19455   0.68593   0.33001   0.00000  Uiso   1.00
H533   H     0.15315   0.78857   0.48641   0.00000  Uiso   1.00
H534   H     0.03573   0.96159   0.27643   0.00000  Uiso   1.00
H535   H     0.23416   0.55825   0.27258   0.00000  Uiso   1.00
H536   H     0.14686   0.77468   0.60238   0.00000  Uiso   1.00
H537   H     0.04104   0.58694   0.39367   0.00000  Uiso   1.00
H538   H     0.98921   0.67498   0.34305   0.00000  Uiso   1.00
H539   H     0.08332   0.48370   0.34122   0.00000  Uiso   1.00
H540   H     0.04192   0.58633   0.49762   0.00000  Uiso   1.00
H541   H     0.94545   0.79745   0.28553   0.00000  Uiso   1.00
H542   H     0.14388   0.39411   0.28168   0.00000  Uiso   1.00
H543   H     0.05657   0.61054   0.61148   0.00000  Uiso   1.00
O544   O     0.95841   0.94088   0.24747   0.00000  Uiso   1.00
O545   O     0.21874   0.41171   0.24243   0.00000  Uiso   1.00
O546   O     0.10420   0.69567   0.67512   0.00000  Uiso   1.00
N547   N     0.02159   0.91088   0.28553   0.00000  Uiso   1.00
N548   N     0.20711   0.53379   0.28192   0.00000  Uiso   1.00
N549   N     0.12550   0.73612   0.59026   0.00000  Uiso   1.00
N550   N     0.97301   0.82256   0.29043   0.00000  Uiso   1.00
N551   N     0.15853   0.44546   0.28682   0.00000  Uiso   1.00
N552   N     0.07692   0.64780   0.59515   0.00000  Uiso   1.00
C553   C     0.12233   0.26526   0.61452   0.00000  Uiso   1.00
C554   C     0.08269   0.23830   0.64086   0.00000  Uiso   1.00
C555   C     0.07643   0.16643   0.66574   0.00000  Uiso   1.00
C556   C     0.03799   0.15296   0.68742   0.00000  Uiso   1.00
C557   C     0.98117   0.10252   0.72882   0.00000  Uiso   1.00
C558   C     0.13382   0.34223   0.64186   0.00000  Uiso   1.00
C559   C     0.17055   0.35774   0.66758   0.00000  Uiso   1.00
C560   C     0.17515   0.43176   0.69010   0.00000  Uiso   1.00
C561   C     0.19772   0.54269   0.73302   0.00000  Uiso   1.00
C562   C     0.11132   0.28645   0.55689   0.00000  Uiso   1.00
C563   C     0.12914   0.25509   0.51116   0.00000  Uiso   1.00
C564   C     0.11481   0.28217   0.46212   0.00000  Uiso   1.00
C565   C     0.10245   0.30650   0.37311   0.00000  Uiso   1.00
C566   C     0.06520   0.36913   0.60876   0.00000  Uiso   1.00
C567   C     0.05166   0.29472   0.63773   0.00000  Uiso   1.00
C568   C     0.01322   0.28135   0.65937   0.00000  Uiso   1.00
C569   C     0.00690   0.20947   0.68428   0.00000  Uiso   1.00
C570   C     0.10279   0.39864   0.63874   0.00000  Uiso   1.00
C571   C     0.10734   0.47266   0.66121   0.00000  Uiso   1.00
C572   C     0.14406   0.48828   0.68696   0.00000  Uiso   1.00
C573   C     0.08029   0.34287   0.55376   0.00000  Uiso   1.00
C574   C     0.06593   0.37001   0.50479   0.00000  Uiso   1.00
C575   C     0.08372   0.33869   0.45899   0.00000  Uiso   1.00
H576   H     0.14649   0.22135   0.61695   0.00000  Uiso   1.00
H577   H     0.10045   0.12279   0.66816   0.00000  Uiso   1.00
H578   H     0.19455   0.31407   0.66999   0.00000  Uiso   1.00
H579   H     0.15315   0.21143   0.51359   0.00000  Uiso   1.00
H580   H     0.03573   0.03841   0.72357   0.00000  Uiso   1.00
H581   H     0.23416   0.44175   0.72742   0.00000  Uiso   1.00
H582   H     0.14686   0.22532   0.39762   0.00000  Uiso   1.00
H583   H     0.04104   0.41306   0.60633   0.00000  Uiso   1.00
H584   H     0.98921   0.32502   0.65695   0.00000  Uiso   1.00
H585   H     0.08332   0.51630   0.65878   0.00000  Uiso   1.00
H586   H     0.04192   0.41367   0.50238   0.00000  Uiso   1.00
H587   H     0.94545   0.20255   0.71447   0.00000  Uiso   1.00
H588   H     0.14388   0.60589   0.71832   0.00000  Uiso   1.00
H589   H     0.05657   0.38946   0.38852   0.00000  Uiso   1.00
O590   O     0.95841   0.05912   0.75253   0.00000  Uiso   1.00
O591   O     0.21874   0.58829   0.75757   0.00000  Uiso   1.00
O592   O     0.10420   0.30433   0.32488   0.00000  Uiso   1.00
N593   N     0.02159   0.08912   0.71447   0.00000  Uiso   1.00
N594   N     0.20711   0.46621   0.71808   0.00000  Uiso   1.00
N595   N     0.12550   0.26388   0.40974   0.00000  Uiso   1.00
N596   N     0.97301   0.17744   0.70957   0.00000  Uiso   1.00
N597   N     0.15853   0.55454   0.71318   0.00000  Uiso   1.00
N598   N     0.07692   0.35220   0.40485   0.00000  Uiso   1.00
C599   C     0.62233   0.76526   0.61452   0.00000  Uiso   1.00
C600   C     0.58269   0.73830   0.64086   0.00000  Uiso   1.00
C601   C     0.57643   0.66643   0.66574   0.00000  Uiso   1.00
C602   C     0.53799   0.65296   0.68742   0.00000  Uiso   1.00
C603   C     0.48117   0.60252   0.72882   0.00000  Uiso   1.00
C604   C     0.63382   0.84223   0.64186   0.00000  Uiso   1.00
C605   C     0.67055   0.85774   0.66758   0.00000  Uiso   1.00
C606   C     0.67515   0.93176   0.69010   0.00000  Uiso   1.00
C607   C     0.69772   0.04269   0.73302   0.00000  Uiso   1.00
C608   C     0.61132   0.78645   0.55689   0.00000  Uiso   1.00
C609   C     0.62914   0.75509   0.51116   0.00000  Uiso   1.00
C610   C     0.61481   0.78217   0.46212   0.00000  Uiso   1.00
C611   C     0.60245   0.80650   0.37311   0.00000  Uiso   1.00
C612   C     0.56520   0.86913   0.60876   0.00000  Uiso   1.00
C613   C     0.55166   0.79472   0.63773   0.00000  Uiso   1.00
C614   C     0.51322   0.78135   0.65937   0.00000  Uiso   1.00
C615   C     0.50690   0.70947   0.68428   0.00000  Uiso   1.00
C616   C     0.60279   0.89864   0.63874   0.00000  Uiso   1.00
C617   C     0.60734   0.97266   0.66121   0.00000  Uiso   1.00
C618   C     0.64406   0.98828   0.68696   0.00000  Uiso   1.00
C619   C     0.58029   0.84287   0.55376   0.00000  Uiso   1.00
C620   C     0.56593   0.87001   0.50479   0.00000  Uiso   1.00
C621   C     0.58372   0.83869   0.45899   0.00000  Uiso   1.00
H622   H     0.64649   0.72135   0.61695   0.00000  Uiso   1.00
H623   H     0.60045   0.62279   0.66816   0.00000  Uiso   1.00
H624   H     0.69455   0.81407   0.66999   0.00000  Uiso   1.00
H625   H     0.65315   0.71143   0.51359   0.00000  Uiso   1.00
H626   H     0.53573   0.53841   0.72357   0.00000  Uiso   1.00
H627   H     0.73416   0.94175   0.72742   0.00000  Uiso   1.00
H628   H     0.64686   0.72532   0.39762   0.00000  Uiso   1.00
H629   H     0.54104   0.91306   0.60633   0.00000  Uiso   1.00
H630   H     0.48921   0.82502   0.65695   0.00000  Uiso   1.00
H631   H     0.58332   0.01630   0.65878   0.00000  Uiso   1.00
H632   H     0.54192   0.91367   0.50238   0.00000  Uiso   1.00
H633   H     0.44545   0.70255   0.71447   0.00000  Uiso   1.00
H634   H     0.64388   0.10589   0.71832   0.00000  Uiso   1.00
H635   H     0.55657   0.88946   0.38852   0.00000  Uiso   1.00
O636   O     0.45841   0.55912   0.75253   0.00000  Uiso   1.00
O637   O     0.71874   0.08829   0.75757   0.00000  Uiso   1.00
O638   O     0.60420   0.80433   0.32488   0.00000  Uiso   1.00
N639   N     0.52159   0.58912   0.71447   0.00000  Uiso   1.00
N640   N     0.70711   0.96621   0.71808   0.00000  Uiso   1.00
N641   N     0.62550   0.76388   0.40974   0.00000  Uiso   1.00
N642   N     0.47301   0.67744   0.70957   0.00000  Uiso   1.00
N643   N     0.65853   0.05454   0.71318   0.00000  Uiso   1.00
N644   N     0.57692   0.85220   0.40485   0.00000  Uiso   1.00
C645   C     0.37767   0.23474   0.61452   0.00000  Uiso   1.00
C646   C     0.41731   0.26170   0.64086   0.00000  Uiso   1.00
C647   C     0.42357   0.33357   0.66574   0.00000  Uiso   1.00
C648   C     0.46201   0.34704   0.68742   0.00000  Uiso   1.00
C649   C     0.51883   0.39748   0.72882   0.00000  Uiso   1.00
C650   C     0.36618   0.15777   0.64186   0.00000  Uiso   1.00
C651   C     0.32945   0.14226   0.66758   0.00000  Uiso   1.00
C652   C     0.32485   0.06824   0.69010   0.00000  Uiso   1.00
C653   C     0.30228   0.95731   0.73302   0.00000  Uiso   1.00
C654   C     0.38868   0.21355   0.55689   0.00000  Uiso   1.00
C655   C     0.37086   0.24491   0.51116   0.00000  Uiso   1.00
C656   C     0.38519   0.21783   0.46212   0.00000  Uiso   1.00
C657   C     0.39755   0.19350   0.37311   0.00000  Uiso   1.00
C658   C     0.43480   0.13087   0.60876   0.00000  Uiso   1.00
C659   C     0.44834   0.20528   0.63773   0.00000  Uiso   1.00
C660   C     0.48678   0.21865   0.65937   0.00000  Uiso   1.00
C661   C     0.49310   0.29053   0.68428   0.00000  Uiso   1.00
C662   C     0.39721   0.10136   0.63874   0.00000  Uiso   1.00
C663   C     0.39266   0.02734   0.66121   0.00000  Uiso   1.00
C664   C     0.35594   0.01172   0.68696   0.00000  Uiso   1.00
C665   C     0.41971   0.15713   0.55376   0.00000  Uiso   1.00
C666   C     0.43407   0.12999   0.50479   0.00000  Uiso   1.00
C667   C     0.41628   0.16131   0.45899   0.00000  Uiso   1.00
H668   H     0.35351   0.27865   0.61695   0.00000  Uiso   1.00
H669   H     0.39955   0.37721   0.66816   0.00000  Uiso   1.00
H670   H     0.30545   0.18593   0.66999   0.00000  Uiso   1.00
H671   H     0.34685   0.28857   0.51359   0.00000  Uiso   1.00
H672   H     0.46427   0.46159   0.72357   0.00000  Uiso   1.00
H673   H     0.26584   0.05825   0.72742   0.00000  Uiso   1.00
H674   H     0.35314   0.27468   0.39762   0.00000  Uiso   1.00
H675   H     0.45896   0.08694   0.60633   0.00000  Uiso   1.00
H676   H     0.51079   0.17498   0.65695   0.00000  Uiso   1.00
H677   H     0.41668   0.98370   0.65878   0.00000  Uiso   1.00
H678   H     0.45808   0.08633   0.50238   0.00000  Uiso   1.00
H679   H     0.55455   0.29745   0.71447   0.00000  Uiso   1.00
H680   H     0.35612   0.89411   0.71832   0.00000  Uiso   1.00
H681   H     0.44343   0.11054   0.38852   0.00000  Uiso   1.00
O682   O     0.54159   0.44088   0.75253   0.00000  Uiso   1.00
O683   O     0.28126   0.91171   0.75757   0.00000  Uiso   1.00
O684   O     0.39580   0.19567   0.32488   0.00000  Uiso   1.00
N685   N     0.47841   0.41088   0.71447   0.00000  Uiso   1.00
N686   N     0.29289   0.03379   0.71808   0.00000  Uiso   1.00
N687   N     0.37450   0.23612   0.40974   0.00000  Uiso   1.00
N688   N     0.52699   0.32256   0.70957   0.00000  Uiso   1.00
N689   N     0.34147   0.94546   0.71318   0.00000  Uiso   1.00
N690   N     0.42308   0.14780   0.40485   0.00000  Uiso   1.00
C691   C     0.87767   0.73474   0.61452   0.00000  Uiso   1.00
C692   C     0.91731   0.76170   0.64086   0.00000  Uiso   1.00
C693   C     0.92357   0.83357   0.66574   0.00000  Uiso   1.00
C694   C     0.96201   0.84704   0.68742   0.00000  Uiso   1.00
C695   C     0.01883   0.89748   0.72882   0.00000  Uiso   1.00
C696   C     0.86618   0.65777   0.64186   0.00000  Uiso   1.00
C697   C     0.82945   0.64226   0.66758   0.00000  Uiso   1.00
C698   C     0.82485   0.56824   0.69010   0.00000  Uiso   1.00
C699   C     0.80228   0.45731   0.73302   0.00000  Uiso   1.00
C700   C     0.88868   0.71355   0.55689   0.00000  Uiso   1.00
C701   C     0.87086   0.74491   0.51116   0.00000  Uiso   1.00
C702   C     0.88519   0.71783   0.46212   0.00000  Uiso   1.00
C703   C     0.89755   0.69350   0.37311   0.00000  Uiso   1.00
C704   C     0.93480   0.63087   0.60876   0.00000  Uiso   1.00
C705   C     0.94834   0.70528   0.63773   0.00000  Uiso   1.00
C706   C     0.98678   0.71865   0.65937   0.00000  Uiso   1.00
C707   C     0.99310   0.79053   0.68428   0.00000  Uiso   1.00
C708   C     0.89721   0.60136   0.63874   0.00000  Uiso   1.00
C709   C     0.89266   0.52734   0.66121   0.00000  Uiso   1.00
C710   C     0.85594   0.51172   0.68696   0.00000  Uiso   1.00
C711   C     0.91971   0.65713   0.55376   0.00000  Uiso   1.00
C712   C     0.93407   0.62999   0.50479   0.00000  Uiso   1.00
C713   C     0.91628   0.66131   0.45899   0.00000  Uiso   1.00
H714   H     0.85351   0.77865   0.61695   0.00000  Uiso   1.00
H715   H     0.89955   0.87721   0.66816   0.00000  Uiso   1.00
H716   H     0.80545   0.68593   0.66999   0.00000  Uiso   1.00
H717   H     0.84685   0.78857   0.51359   0.00000  Uiso   1.00
H718   H     0.96427   0.96159   0.72357   0.00000  Uiso   1.00
H719   H     0.76584   0.55825   0.72742   0.00000  Uiso   1.00
H720   H     0.85314   0.77468   0.39762   0.00000  Uiso   1.00
H721   H     0.95896   0.58694   0.60633   0.00000  Uiso   1.00
H722   H     0.01079   0.67498   0.65695   0.00000  Uiso   1.00
H723   H     0.91668   0.48370   0.65878   0.00000  Uiso   1.00
H724   H     0.95808   0.58633   0.50238   0.00000  Uiso   1.00
H725   H     0.05455   0.79745   0.71447   0.00000  Uiso   1.00
H726   H     0.85612   0.39411   0.71832   0.00000  Uiso   1.00
H727   H     0.94343   0.61054   0.38852   0.00000  Uiso   1.00
O728   O     0.04159   0.94088   0.75253   0.00000  Uiso   1.00
O729   O     0.78126   0.41171   0.75757   0.00000  Uiso   1.00
O730   O     0.89580   0.69567   0.32488   0.00000  Uiso   1.00
N731   N     0.97841   0.91088   0.71447   0.00000  Uiso   1.00
N732   N     0.79289   0.53379   0.71808   0.00000  Uiso   1.00
N733   N     0.87450   0.73612   0.40974   0.00000  Uiso   1.00
N734   N     0.02699   0.82256   0.70957   0.00000  Uiso   1.00
N735   N     0.84147   0.44546   0.71318   0.00000  Uiso   1.00
N736   N     0.92308   0.64780   0.40485   0.00000  Uiso   1.00
