data_job_06821
_audit_creation_date              2018-12-19
_audit_creation_method            'Materials Studio'
_symmetry_space_group_name_H-M    'P1'
_symmetry_Int_Tables_number       1
_symmetry_cell_setting            triclinic
loop_
_symmetry_equiv_pos_as_xyz
  x,y,z
_cell_length_a                    27.6641
_cell_length_b                    27.6641
_cell_length_c                    44.4526
_cell_angle_alpha                 90.0000
_cell_angle_beta                  90.0000
_cell_angle_gamma                 120.0000
loop_
_atom_site_label
_atom_site_type_symbol
_atom_site_fract_x
_atom_site_fract_y
_atom_site_fract_z
_atom_site_U_iso_or_equiv
_atom_site_adp_type
_atom_site_occupancy
C1     C     0.64127   0.70963   0.60023   0.00000  Uiso   1.00
C2     C     0.67103   0.70353   0.62761   0.00000  Uiso   1.00
C3     C     0.71469   0.69241   0.62689   0.00000  Uiso   1.00
C4     C     0.73623   0.68839   0.65439   0.00000  Uiso   1.00
C5     C     0.11900   0.34451   0.35942   0.00000  Uiso   1.00
C6     C     0.57954   0.66711   0.60439   0.00000  Uiso   1.00
C7     C     0.54629   0.62538   0.58415   0.00000  Uiso   1.00
C8     C     0.82415   0.25737   0.25877   0.00000  Uiso   1.00
C9     C     0.73154   0.19030   0.26108   0.00000  Uiso   1.00
C10    C     0.64626   0.76689   0.60303   0.00000  Uiso   1.00
C11    C     0.66909   0.80905   0.58165   0.00000  Uiso   1.00
C12    C     0.66978   0.85838   0.58846   0.00000  Uiso   1.00
C13    C     0.68077   0.94625   0.58866   0.00000  Uiso   1.00
C14    C     0.60189   0.72224   0.65033   0.00000  Uiso   1.00
C15    C     0.64963   0.71038   0.65482   0.00000  Uiso   1.00
C16    C     0.00445   0.37304   0.34898   0.00000  Uiso   1.00
C17    C     0.04814   0.36192   0.34831   0.00000  Uiso   1.00
C18    C     0.55815   0.67396   0.63160   0.00000  Uiso   1.00
C19    C     0.83605   0.30600   0.30625   0.00000  Uiso   1.00
C20    C     0.80272   0.26423   0.28603   0.00000  Uiso   1.00
C21    C     0.62487   0.77374   0.63024   0.00000  Uiso   1.00
C22    C     0.62552   0.82301   0.63708   0.00000  Uiso   1.00
C23    C     0.64835   0.86524   0.61572   0.00000  Uiso   1.00
H24    H     0.65792   0.70429   0.57905   0.00000  Uiso   1.00
H25    H     0.73123   0.68711   0.60583   0.00000  Uiso   1.00
H26    H     0.56285   0.62009   0.56310   0.00000  Uiso   1.00
H27    H     0.68564   0.80374   0.56060   0.00000  Uiso   1.00
H28    H     0.13639   0.33773   0.31419   0.00000  Uiso   1.00
H29    H     0.78135   0.19642   0.22408   0.00000  Uiso   1.00
H30    H     0.70693   0.91701   0.55215   0.00000  Uiso   1.00
H31    H     0.58524   0.72758   0.67151   0.00000  Uiso   1.00
H32    H     0.98789   0.37834   0.37004   0.00000  Uiso   1.00
H33    H     0.81951   0.31132   0.32730   0.00000  Uiso   1.00
H34    H     0.60897   0.82830   0.65814   0.00000  Uiso   1.00
H35    H     0.07416   0.35767   0.39336   0.00000  Uiso   1.00
H36    H     0.71912   0.21636   0.30324   0.00000  Uiso   1.00
H37    H     0.64471   0.93695   0.63131   0.00000  Uiso   1.00
O38    O     0.15217   0.33680   0.37306   0.00000  Uiso   1.00
O39    O     0.68638   0.15142   0.25484   0.00000  Uiso   1.00
O40    O     0.69274   0.99282   0.58126   0.00000  Uiso   1.00
N41    N     0.11224   0.34462   0.32845   0.00000  Uiso   1.00
N42    N     0.78030   0.21250   0.24421   0.00000  Uiso   1.00
N43    N     0.68902   0.90788   0.57261   0.00000  Uiso   1.00
N44    N     0.07875   0.35534   0.37105   0.00000  Uiso   1.00
N45    N     0.74681   0.22322   0.28680   0.00000  Uiso   1.00
N46    N     0.65553   0.91860   0.61521   0.00000  Uiso   1.00
C47    C     0.74169   0.12411   0.49580   0.00000  Uiso   1.00
C48    C     0.69322   0.11316   0.51645   0.00000  Uiso   1.00
C49    C     0.63811   0.09177   0.50763   0.00000  Uiso   1.00
C50    C     0.93334   0.75149   0.19659   0.00000  Uiso   1.00
C51    C     0.85558   0.73234   0.22409   0.00000  Uiso   1.00
C52    C     0.76741   0.09122   0.50899   0.00000  Uiso   1.00
C53    C     0.77467   0.05139   0.49390   0.00000  Uiso   1.00
C54    C     0.79902   0.02598   0.50992   0.00000  Uiso   1.00
C55    C     0.83647   0.97279   0.52583   0.00000  Uiso   1.00
C56    C     0.78521   0.18557   0.49983   0.00000  Uiso   1.00
C57    C     0.80745   0.22506   0.47705   0.00000  Uiso   1.00
C58    C     0.84680   0.27909   0.48535   0.00000  Uiso   1.00
C59    C     0.91188   0.37239   0.48705   0.00000  Uiso   1.00
C60    C     0.77201   0.14983   0.55106   0.00000  Uiso   1.00
C61    C     0.70969   0.12713   0.54646   0.00000  Uiso   1.00
C62    C     0.00499   0.78688   0.23544   0.00000  Uiso   1.00
C63    C     0.94984   0.76548   0.22666   0.00000  Uiso   1.00
C64    C     0.78388   0.10519   0.53901   0.00000  Uiso   1.00
C65    C     0.80822   0.07984   0.55505   0.00000  Uiso   1.00
C66    C     0.81552   0.03997   0.53999   0.00000  Uiso   1.00
C67    C     0.80168   0.19954   0.52985   0.00000  Uiso   1.00
C68    C     0.84100   0.25351   0.53819   0.00000  Uiso   1.00
C69    C     0.86330   0.29308   0.51542   0.00000  Uiso   1.00
H70    H     0.72887   0.11324   0.47243   0.00000  Uiso   1.00
H71    H     0.62538   0.08096   0.48440   0.00000  Uiso   1.00
H72    H     0.76193   0.04059   0.47068   0.00000  Uiso   1.00
H73    H     0.79470   0.21424   0.45382   0.00000  Uiso   1.00
H74    H     0.85125   0.71798   0.17758   0.00000  Uiso   1.00
H75    H     0.80584   0.96621   0.48197   0.00000  Uiso   1.00
H76    H     0.87495   0.33238   0.44643   0.00000  Uiso   1.00
H77    H     0.78483   0.16070   0.57443   0.00000  Uiso   1.00
H78    H     0.01775   0.79770   0.25867   0.00000  Uiso   1.00
H79    H     0.82096   0.09066   0.57827   0.00000  Uiso   1.00
H80    H     0.85373   0.26430   0.56142   0.00000  Uiso   1.00
H81    H     0.89916   0.75862   0.26491   0.00000  Uiso   1.00
H82    H     0.85376   0.00684   0.56930   0.00000  Uiso   1.00
H83    H     0.92286   0.37301   0.53376   0.00000  Uiso   1.00
O84    O     0.80813   0.71791   0.23096   0.00000  Uiso   1.00
O85    O     0.85257   0.93959   0.52632   0.00000  Uiso   1.00
O86    O     0.94323   0.41999   0.47969   0.00000  Uiso   1.00
N87    N     0.87630   0.73163   0.19572   0.00000  Uiso   1.00
N88    N     0.81216   0.98539   0.50199   0.00000  Uiso   1.00
N89    N     0.87678   0.32772   0.46876   0.00000  Uiso   1.00
N90    N     0.90209   0.75349   0.24271   0.00000  Uiso   1.00
N91    N     0.83794   0.00725   0.54898   0.00000  Uiso   1.00
N92    N     0.90256   0.34958   0.51576   0.00000  Uiso   1.00
C93    C     0.30794   0.04296   0.93357   0.00000  Uiso   1.00
C94    C     0.33769   0.03686   0.96094   0.00000  Uiso   1.00
C95    C     0.38136   0.02575   0.96023   0.00000  Uiso   1.00
C96    C     0.40290   0.02172   0.98772   0.00000  Uiso   1.00
C97    C     0.78567   0.67785   0.69275   0.00000  Uiso   1.00
C98    C     0.24621   0.00044   0.93772   0.00000  Uiso   1.00
C99    C     0.21295   0.95871   0.91749   0.00000  Uiso   1.00
C100   C     0.49082   0.59070   0.59210   0.00000  Uiso   1.00
C101   C     0.39821   0.52364   0.59441   0.00000  Uiso   1.00
C102   C     0.31293   0.10022   0.93637   0.00000  Uiso   1.00
C103   C     0.33576   0.14239   0.91499   0.00000  Uiso   1.00
C104   C     0.33645   0.19171   0.92179   0.00000  Uiso   1.00
C105   C     0.34743   0.27958   0.92200   0.00000  Uiso   1.00
C106   C     0.26856   0.05558   0.98366   0.00000  Uiso   1.00
C107   C     0.31630   0.04371   0.98815   0.00000  Uiso   1.00
C108   C     0.67112   0.70637   0.68232   0.00000  Uiso   1.00
C109   C     0.71481   0.69526   0.68165   0.00000  Uiso   1.00
C110   C     0.22482   0.00729   0.96493   0.00000  Uiso   1.00
C111   C     0.50272   0.63933   0.63958   0.00000  Uiso   1.00
C112   C     0.46939   0.59756   0.61936   0.00000  Uiso   1.00
C113   C     0.29154   0.10707   0.96358   0.00000  Uiso   1.00
C114   C     0.29219   0.15634   0.97041   0.00000  Uiso   1.00
C115   C     0.31502   0.19858   0.94905   0.00000  Uiso   1.00
H116   H     0.32459   0.03762   0.91238   0.00000  Uiso   1.00
H117   H     0.39789   0.02044   0.93917   0.00000  Uiso   1.00
H118   H     0.22952   0.95342   0.89643   0.00000  Uiso   1.00
H119   H     0.35230   0.13707   0.89394   0.00000  Uiso   1.00
H120   H     0.80305   0.67106   0.64752   0.00000  Uiso   1.00
H121   H     0.44802   0.52976   0.55741   0.00000  Uiso   1.00
H122   H     0.37360   0.25035   0.88548   0.00000  Uiso   1.00
H123   H     0.25190   0.06091   0.00485   0.00000  Uiso   1.00
H124   H     0.65456   0.71168   0.70337   0.00000  Uiso   1.00
H125   H     0.48618   0.64465   0.66064   0.00000  Uiso   1.00
H126   H     0.27563   0.16163   0.99147   0.00000  Uiso   1.00
H127   H     0.74082   0.69100   0.72669   0.00000  Uiso   1.00
H128   H     0.38578   0.54969   0.63658   0.00000  Uiso   1.00
H129   H     0.31137   0.27028   0.96465   0.00000  Uiso   1.00
O130   O     0.81884   0.67013   0.70640   0.00000  Uiso   1.00
O131   O     0.35304   0.48475   0.58817   0.00000  Uiso   1.00
O132   O     0.35941   0.32615   0.91459   0.00000  Uiso   1.00
N133   N     0.77890   0.67795   0.66178   0.00000  Uiso   1.00
N134   N     0.44697   0.54583   0.57754   0.00000  Uiso   1.00
N135   N     0.35569   0.24121   0.90594   0.00000  Uiso   1.00
N136   N     0.74542   0.68868   0.70438   0.00000  Uiso   1.00
N137   N     0.41348   0.55656   0.62014   0.00000  Uiso   1.00
N138   N     0.32220   0.25194   0.94854   0.00000  Uiso   1.00
C139   C     0.40835   0.45745   0.82913   0.00000  Uiso   1.00
C140   C     0.35989   0.44650   0.84978   0.00000  Uiso   1.00
C141   C     0.30478   0.42510   0.84097   0.00000  Uiso   1.00
C142   C     0.60000   0.08482   0.52992   0.00000  Uiso   1.00
C143   C     0.52224   0.06567   0.55742   0.00000  Uiso   1.00
C144   C     0.43407   0.42456   0.84233   0.00000  Uiso   1.00
C145   C     0.44134   0.38472   0.82724   0.00000  Uiso   1.00
C146   C     0.46569   0.35931   0.84325   0.00000  Uiso   1.00
C147   C     0.50313   0.30613   0.85916   0.00000  Uiso   1.00
C148   C     0.45187   0.51890   0.83317   0.00000  Uiso   1.00
C149   C     0.47412   0.55840   0.81038   0.00000  Uiso   1.00
C150   C     0.51346   0.61242   0.81868   0.00000  Uiso   1.00
C151   C     0.57855   0.70572   0.82038   0.00000  Uiso   1.00
C152   C     0.43867   0.48316   0.88440   0.00000  Uiso   1.00
C153   C     0.37636   0.46046   0.87980   0.00000  Uiso   1.00
C154   C     0.67166   0.12022   0.56877   0.00000  Uiso   1.00
C155   C     0.61650   0.09882   0.55999   0.00000  Uiso   1.00
C156   C     0.45054   0.43852   0.87234   0.00000  Uiso   1.00
C157   C     0.47489   0.41317   0.88838   0.00000  Uiso   1.00
C158   C     0.48219   0.37331   0.87332   0.00000  Uiso   1.00
C159   C     0.46834   0.53287   0.86318   0.00000  Uiso   1.00
C160   C     0.50766   0.58684   0.87152   0.00000  Uiso   1.00
C161   C     0.52996   0.62641   0.84875   0.00000  Uiso   1.00
H162   H     0.39553   0.44657   0.80577   0.00000  Uiso   1.00
H163   H     0.29205   0.41429   0.81773   0.00000  Uiso   1.00
H164   H     0.42860   0.37393   0.80401   0.00000  Uiso   1.00
H165   H     0.46137   0.54757   0.78716   0.00000  Uiso   1.00
H166   H     0.51791   0.05132   0.51091   0.00000  Uiso   1.00
H167   H     0.47251   0.29954   0.81530   0.00000  Uiso   1.00
H168   H     0.54162   0.66571   0.77976   0.00000  Uiso   1.00
H169   H     0.45150   0.49403   0.90777   0.00000  Uiso   1.00
H170   H     0.68442   0.13103   0.59200   0.00000  Uiso   1.00
H171   H     0.48763   0.42399   0.91161   0.00000  Uiso   1.00
H172   H     0.52040   0.59764   0.89475   0.00000  Uiso   1.00
H173   H     0.56583   0.09195   0.59824   0.00000  Uiso   1.00
H174   H     0.52043   0.34018   0.90263   0.00000  Uiso   1.00
H175   H     0.58953   0.70634   0.86709   0.00000  Uiso   1.00
O176   O     0.47480   0.05124   0.56429   0.00000  Uiso   1.00
O177   O     0.51923   0.27293   0.85965   0.00000  Uiso   1.00
O178   O     0.60989   0.75333   0.81302   0.00000  Uiso   1.00
N179   N     0.54297   0.06496   0.52905   0.00000  Uiso   1.00
N180   N     0.47883   0.31872   0.83532   0.00000  Uiso   1.00
N181   N     0.54345   0.66105   0.80210   0.00000  Uiso   1.00
N182   N     0.56875   0.08683   0.57604   0.00000  Uiso   1.00
N183   N     0.50461   0.34059   0.88232   0.00000  Uiso   1.00
N184   N     0.56923   0.68292   0.84909   0.00000  Uiso   1.00
C185   C     0.97461   0.37629   0.26690   0.00000  Uiso   1.00
C186   C     0.00436   0.37019   0.29427   0.00000  Uiso   1.00
C187   C     0.04802   0.35908   0.29356   0.00000  Uiso   1.00
C188   C     0.06957   0.35506   0.32105   0.00000  Uiso   1.00
C189   C     0.45233   0.01118   0.02608   0.00000  Uiso   1.00
C190   C     0.91287   0.33377   0.27106   0.00000  Uiso   1.00
C191   C     0.87962   0.29204   0.25082   0.00000  Uiso   1.00
C192   C     0.15748   0.92403   0.92544   0.00000  Uiso   1.00
C193   C     0.06488   0.85697   0.92775   0.00000  Uiso   1.00
C194   C     0.97959   0.43355   0.26970   0.00000  Uiso   1.00
C195   C     0.00242   0.47572   0.24832   0.00000  Uiso   1.00
C196   C     0.00311   0.52505   0.25513   0.00000  Uiso   1.00
C197   C     0.01410   0.61291   0.25533   0.00000  Uiso   1.00
C198   C     0.93523   0.38891   0.31700   0.00000  Uiso   1.00
C199   C     0.98297   0.37704   0.32148   0.00000  Uiso   1.00
C200   C     0.33779   0.03971   0.01565   0.00000  Uiso   1.00
C201   C     0.38148   0.02859   0.01498   0.00000  Uiso   1.00
C202   C     0.89148   0.34062   0.29827   0.00000  Uiso   1.00
C203   C     0.16938   0.97267   0.97291   0.00000  Uiso   1.00
C204   C     0.13605   0.93090   0.95269   0.00000  Uiso   1.00
C205   C     0.95820   0.44041   0.29691   0.00000  Uiso   1.00
C206   C     0.95886   0.48968   0.30375   0.00000  Uiso   1.00
C207   C     0.98168   0.53191   0.28238   0.00000  Uiso   1.00
H208   H     0.99126   0.37096   0.24572   0.00000  Uiso   1.00
H209   H     0.06456   0.35378   0.27250   0.00000  Uiso   1.00
H210   H     0.89618   0.28675   0.22977   0.00000  Uiso   1.00
H211   H     0.01897   0.47040   0.22727   0.00000  Uiso   1.00
H212   H     0.46972   0.00440   0.98086   0.00000  Uiso   1.00
H213   H     0.11468   0.86309   0.89075   0.00000  Uiso   1.00
H214   H     0.04027   0.58368   0.21881   0.00000  Uiso   1.00
H215   H     0.91857   0.39424   0.33818   0.00000  Uiso   1.00
H216   H     0.32122   0.04501   0.03670   0.00000  Uiso   1.00
H217   H     0.15285   0.97798   0.99397   0.00000  Uiso   1.00
H218   H     0.94230   0.49497   0.32481   0.00000  Uiso   1.00
H219   H     0.40749   0.02433   0.06002   0.00000  Uiso   1.00
H220   H     0.05245   0.88303   0.96991   0.00000  Uiso   1.00
H221   H     0.97804   0.60362   0.29798   0.00000  Uiso   1.00
O222   O     0.48550   0.00347   0.03973   0.00000  Uiso   1.00
O223   O     0.01971   0.81808   0.92150   0.00000  Uiso   1.00
O224   O     0.02607   0.65949   0.24793   0.00000  Uiso   1.00
N225   N     0.44557   0.01128   0.99512   0.00000  Uiso   1.00
N226   N     0.11363   0.87916   0.91087   0.00000  Uiso   1.00
N227   N     0.02235   0.57454   0.23928   0.00000  Uiso   1.00
N228   N     0.41208   0.02201   0.03772   0.00000  Uiso   1.00
N229   N     0.08015   0.88989   0.95347   0.00000  Uiso   1.00
N230   N     0.98887   0.58527   0.28187   0.00000  Uiso   1.00
C231   C     0.07502   0.79078   0.16247   0.00000  Uiso   1.00
C232   C     0.02656   0.77983   0.18311   0.00000  Uiso   1.00
C233   C     0.97145   0.75844   0.17430   0.00000  Uiso   1.00
C234   C     0.26667   0.41816   0.86326   0.00000  Uiso   1.00
C235   C     0.18891   0.39900   0.89075   0.00000  Uiso   1.00
C236   C     0.10074   0.75789   0.17566   0.00000  Uiso   1.00
C237   C     0.10801   0.71806   0.16057   0.00000  Uiso   1.00
C238   C     0.13235   0.69265   0.17659   0.00000  Uiso   1.00
C239   C     0.16980   0.63946   0.19250   0.00000  Uiso   1.00
C240   C     0.11854   0.85224   0.16650   0.00000  Uiso   1.00
C241   C     0.14079   0.89173   0.14371   0.00000  Uiso   1.00
C242   C     0.18013   0.94575   0.15202   0.00000  Uiso   1.00
C243   C     0.24522   0.03905   0.15371   0.00000  Uiso   1.00
C244   C     0.10534   0.81649   0.21773   0.00000  Uiso   1.00
C245   C     0.04303   0.79379   0.21313   0.00000  Uiso   1.00
C246   C     0.33833   0.45355   0.90211   0.00000  Uiso   1.00
C247   C     0.28317   0.43215   0.89333   0.00000  Uiso   1.00
C248   C     0.11721   0.77185   0.20567   0.00000  Uiso   1.00
C249   C     0.14155   0.74650   0.22171   0.00000  Uiso   1.00
C250   C     0.14885   0.70664   0.20666   0.00000  Uiso   1.00
C251   C     0.13501   0.86620   0.19652   0.00000  Uiso   1.00
C252   C     0.17433   0.92018   0.20486   0.00000  Uiso   1.00
C253   C     0.19663   0.95974   0.18209   0.00000  Uiso   1.00
H254   H     0.06220   0.77990   0.13910   0.00000  Uiso   1.00
H255   H     0.95872   0.74763   0.15107   0.00000  Uiso   1.00
H256   H     0.09526   0.70726   0.13734   0.00000  Uiso   1.00
H257   H     0.12803   0.88091   0.12049   0.00000  Uiso   1.00
H258   H     0.18458   0.38465   0.84424   0.00000  Uiso   1.00
H259   H     0.13918   0.63288   0.14863   0.00000  Uiso   1.00
H260   H     0.20828   0.99904   0.11309   0.00000  Uiso   1.00
H261   H     0.11816   0.82737   0.24110   0.00000  Uiso   1.00
H262   H     0.35108   0.46436   0.92533   0.00000  Uiso   1.00
H263   H     0.15430   0.75732   0.24494   0.00000  Uiso   1.00
H264   H     0.18707   0.93097   0.22809   0.00000  Uiso   1.00
H265   H     0.23249   0.42528   0.93158   0.00000  Uiso   1.00
H266   H     0.18709   0.67351   0.23596   0.00000  Uiso   1.00
H267   H     0.25620   0.03968   0.20042   0.00000  Uiso   1.00
O268   O     0.14147   0.38457   0.89763   0.00000  Uiso   1.00
O269   O     0.18590   0.60626   0.19298   0.00000  Uiso   1.00
O270   O     0.27656   0.08666   0.14636   0.00000  Uiso   1.00
N271   N     0.20964   0.39829   0.86239   0.00000  Uiso   1.00
N272   N     0.14550   0.65205   0.16866   0.00000  Uiso   1.00
N273   N     0.21011   0.99438   0.13543   0.00000  Uiso   1.00
N274   N     0.23542   0.42016   0.90938   0.00000  Uiso   1.00
N275   N     0.17128   0.67392   0.21565   0.00000  Uiso   1.00
N276   N     0.23590   0.01625   0.18242   0.00000  Uiso   1.00
C277   C     0.29037   0.93165   0.60023   0.00000  Uiso   1.00
C278   C     0.29647   0.96750   0.62761   0.00000  Uiso   1.00
C279   C     0.30759   0.02227   0.62689   0.00000  Uiso   1.00
C280   C     0.31161   0.04784   0.65439   0.00000  Uiso   1.00
C281   C     0.65549   0.77449   0.35942   0.00000  Uiso   1.00
C282   C     0.33289   0.91244   0.60439   0.00000  Uiso   1.00
C283   C     0.37462   0.92091   0.58415   0.00000  Uiso   1.00
C284   C     0.74263   0.56679   0.25877   0.00000  Uiso   1.00
C285   C     0.80970   0.54124   0.26108   0.00000  Uiso   1.00
C286   C     0.23311   0.87937   0.60303   0.00000  Uiso   1.00
C287   C     0.19095   0.86004   0.58165   0.00000  Uiso   1.00
C288   C     0.14162   0.81140   0.58846   0.00000  Uiso   1.00
C289   C     0.05375   0.73452   0.58866   0.00000  Uiso   1.00
C290   C     0.27776   0.87965   0.65033   0.00000  Uiso   1.00
C291   C     0.28962   0.93926   0.65482   0.00000  Uiso   1.00
C292   C     0.62696   0.63141   0.34898   0.00000  Uiso   1.00
C293   C     0.63808   0.68622   0.34831   0.00000  Uiso   1.00
C294   C     0.32604   0.88419   0.63160   0.00000  Uiso   1.00
C295   C     0.69400   0.53005   0.30625   0.00000  Uiso   1.00
C296   C     0.73577   0.53849   0.28603   0.00000  Uiso   1.00
C297   C     0.22626   0.85113   0.63024   0.00000  Uiso   1.00
C298   C     0.17699   0.80251   0.63708   0.00000  Uiso   1.00
C299   C     0.13476   0.78311   0.61572   0.00000  Uiso   1.00
H300   H     0.29571   0.95363   0.57905   0.00000  Uiso   1.00
H301   H     0.31289   0.04412   0.60583   0.00000  Uiso   1.00
H302   H     0.37991   0.94276   0.56310   0.00000  Uiso   1.00
H303   H     0.19626   0.88190   0.56060   0.00000  Uiso   1.00
H304   H     0.66227   0.79866   0.31419   0.00000  Uiso   1.00
H305   H     0.80358   0.58493   0.22408   0.00000  Uiso   1.00
H306   H     0.08299   0.78992   0.55215   0.00000  Uiso   1.00
H307   H     0.27242   0.85766   0.67151   0.00000  Uiso   1.00
H308   H     0.62166   0.60955   0.37004   0.00000  Uiso   1.00
H309   H     0.68868   0.50819   0.32730   0.00000  Uiso   1.00
H310   H     0.17170   0.78067   0.65814   0.00000  Uiso   1.00
H311   H     0.64233   0.71649   0.39336   0.00000  Uiso   1.00
H312   H     0.78364   0.50276   0.30324   0.00000  Uiso   1.00
H313   H     0.06305   0.70776   0.63131   0.00000  Uiso   1.00
O314   O     0.66320   0.81537   0.37306   0.00000  Uiso   1.00
O315   O     0.84858   0.53496   0.25484   0.00000  Uiso   1.00
O316   O     0.00718   0.69992   0.58126   0.00000  Uiso   1.00
N317   N     0.65538   0.76762   0.32845   0.00000  Uiso   1.00
N318   N     0.78750   0.56780   0.24421   0.00000  Uiso   1.00
N319   N     0.09212   0.78114   0.57261   0.00000  Uiso   1.00
N320   N     0.64466   0.72341   0.37105   0.00000  Uiso   1.00
N321   N     0.77678   0.52359   0.28680   0.00000  Uiso   1.00
N322   N     0.08140   0.73693   0.61521   0.00000  Uiso   1.00
C323   C     0.87589   0.61757   0.49580   0.00000  Uiso   1.00
C324   C     0.88684   0.58006   0.51645   0.00000  Uiso   1.00
C325   C     0.90823   0.54634   0.50763   0.00000  Uiso   1.00
C326   C     0.24851   0.18185   0.19659   0.00000  Uiso   1.00
C327   C     0.26766   0.12324   0.22409   0.00000  Uiso   1.00
C328   C     0.90878   0.67618   0.50899   0.00000  Uiso   1.00
C329   C     0.94861   0.72329   0.49390   0.00000  Uiso   1.00
C330   C     0.97402   0.77304   0.50992   0.00000  Uiso   1.00
C331   C     0.02721   0.86367   0.52583   0.00000  Uiso   1.00
C332   C     0.81443   0.59964   0.49983   0.00000  Uiso   1.00
C333   C     0.77494   0.58239   0.47705   0.00000  Uiso   1.00
C334   C     0.72091   0.56771   0.48535   0.00000  Uiso   1.00
C335   C     0.62761   0.53950   0.48705   0.00000  Uiso   1.00
C336   C     0.85017   0.62218   0.55106   0.00000  Uiso   1.00
C337   C     0.87287   0.58257   0.54646   0.00000  Uiso   1.00
C338   C     0.21312   0.21811   0.23544   0.00000  Uiso   1.00
C339   C     0.23452   0.18435   0.22666   0.00000  Uiso   1.00
C340   C     0.89481   0.67869   0.53901   0.00000  Uiso   1.00
C341   C     0.92016   0.72838   0.55505   0.00000  Uiso   1.00
C342   C     0.96003   0.77555   0.53999   0.00000  Uiso   1.00
C343   C     0.80046   0.60214   0.52985   0.00000  Uiso   1.00
C344   C     0.74649   0.58749   0.53819   0.00000  Uiso   1.00
C345   C     0.70692   0.57022   0.51542   0.00000  Uiso   1.00
H346   H     0.88676   0.61563   0.47243   0.00000  Uiso   1.00
H347   H     0.91904   0.54442   0.48440   0.00000  Uiso   1.00
H348   H     0.95941   0.72134   0.47068   0.00000  Uiso   1.00
H349   H     0.78576   0.58046   0.45382   0.00000  Uiso   1.00
H350   H     0.28202   0.13326   0.17758   0.00000  Uiso   1.00
H351   H     0.03379   0.83963   0.48197   0.00000  Uiso   1.00
H352   H     0.66762   0.54257   0.44643   0.00000  Uiso   1.00
H353   H     0.83930   0.62413   0.57443   0.00000  Uiso   1.00
H354   H     0.20230   0.22006   0.25867   0.00000  Uiso   1.00
H355   H     0.90934   0.73031   0.57827   0.00000  Uiso   1.00
H356   H     0.73570   0.58943   0.56142   0.00000  Uiso   1.00
H357   H     0.24138   0.14054   0.26491   0.00000  Uiso   1.00
H358   H     0.99316   0.84692   0.56930   0.00000  Uiso   1.00
H359   H     0.62699   0.54985   0.53376   0.00000  Uiso   1.00
O360   O     0.28209   0.09023   0.23096   0.00000  Uiso   1.00
O361   O     0.06041   0.91297   0.52632   0.00000  Uiso   1.00
O362   O     0.58001   0.52323   0.47969   0.00000  Uiso   1.00
N363   N     0.26837   0.14468   0.19572   0.00000  Uiso   1.00
N364   N     0.01461   0.82678   0.50199   0.00000  Uiso   1.00
N365   N     0.67228   0.54906   0.46876   0.00000  Uiso   1.00
N366   N     0.24651   0.14859   0.24271   0.00000  Uiso   1.00
N367   N     0.99275   0.83069   0.54898   0.00000  Uiso   1.00
N368   N     0.65042   0.55298   0.51576   0.00000  Uiso   1.00
C369   C     0.95704   0.26498   0.93357   0.00000  Uiso   1.00
C370   C     0.96314   0.30083   0.96094   0.00000  Uiso   1.00
C371   C     0.97425   0.35561   0.96023   0.00000  Uiso   1.00
C372   C     0.97828   0.38118   0.98772   0.00000  Uiso   1.00
C373   C     0.32215   0.10782   0.69275   0.00000  Uiso   1.00
C374   C     0.99956   0.24577   0.93772   0.00000  Uiso   1.00
C375   C     0.04129   0.25424   0.91749   0.00000  Uiso   1.00
C376   C     0.40930   0.90012   0.59210   0.00000  Uiso   1.00
C377   C     0.47636   0.87457   0.59441   0.00000  Uiso   1.00
C378   C     0.89978   0.21271   0.93637   0.00000  Uiso   1.00
C379   C     0.85761   0.19337   0.91499   0.00000  Uiso   1.00
C380   C     0.80829   0.14473   0.92179   0.00000  Uiso   1.00
C381   C     0.72042   0.06785   0.92200   0.00000  Uiso   1.00
C382   C     0.94442   0.21298   0.98366   0.00000  Uiso   1.00
C383   C     0.95629   0.27259   0.98815   0.00000  Uiso   1.00
C384   C     0.29363   0.96475   0.68232   0.00000  Uiso   1.00
C385   C     0.30474   0.01955   0.68165   0.00000  Uiso   1.00
C386   C     0.99271   0.21753   0.96493   0.00000  Uiso   1.00
C387   C     0.36067   0.86338   0.63958   0.00000  Uiso   1.00
C388   C     0.40244   0.87183   0.61936   0.00000  Uiso   1.00
C389   C     0.89293   0.18446   0.96358   0.00000  Uiso   1.00
C390   C     0.84366   0.13585   0.97041   0.00000  Uiso   1.00
C391   C     0.80142   0.11644   0.94905   0.00000  Uiso   1.00
H392   H     0.96238   0.28697   0.91238   0.00000  Uiso   1.00
H393   H     0.97956   0.37745   0.93917   0.00000  Uiso   1.00
H394   H     0.04658   0.27610   0.89643   0.00000  Uiso   1.00
H395   H     0.86293   0.21524   0.89394   0.00000  Uiso   1.00
H396   H     0.32894   0.13199   0.64752   0.00000  Uiso   1.00
H397   H     0.47024   0.91826   0.55741   0.00000  Uiso   1.00
H398   H     0.74965   0.12326   0.88548   0.00000  Uiso   1.00
H399   H     0.93909   0.19099   0.00485   0.00000  Uiso   1.00
H400   H     0.28832   0.94288   0.70337   0.00000  Uiso   1.00
H401   H     0.35535   0.84153   0.66064   0.00000  Uiso   1.00
H402   H     0.83837   0.11400   0.99147   0.00000  Uiso   1.00
H403   H     0.30900   0.04982   0.72669   0.00000  Uiso   1.00
H404   H     0.45031   0.83609   0.63658   0.00000  Uiso   1.00
H405   H     0.72972   0.04109   0.96465   0.00000  Uiso   1.00
O406   O     0.32987   0.14871   0.70640   0.00000  Uiso   1.00
O407   O     0.51525   0.86829   0.58817   0.00000  Uiso   1.00
O408   O     0.67385   0.03325   0.91459   0.00000  Uiso   1.00
N409   N     0.32205   0.10095   0.66178   0.00000  Uiso   1.00
N410   N     0.45417   0.90114   0.57754   0.00000  Uiso   1.00
N411   N     0.75879   0.11448   0.90594   0.00000  Uiso   1.00
N412   N     0.31132   0.05674   0.70438   0.00000  Uiso   1.00
N413   N     0.44344   0.85692   0.62014   0.00000  Uiso   1.00
N414   N     0.74806   0.07026   0.94854   0.00000  Uiso   1.00
C415   C     0.54255   0.95091   0.82913   0.00000  Uiso   1.00
C416   C     0.55350   0.91339   0.84978   0.00000  Uiso   1.00
C417   C     0.57490   0.87968   0.84097   0.00000  Uiso   1.00
C418   C     0.91518   0.51518   0.52992   0.00000  Uiso   1.00
C419   C     0.93433   0.45657   0.55742   0.00000  Uiso   1.00
C420   C     0.57544   0.00952   0.84233   0.00000  Uiso   1.00
C421   C     0.61528   0.05662   0.82724   0.00000  Uiso   1.00
C422   C     0.64069   0.10637   0.84325   0.00000  Uiso   1.00
C423   C     0.69387   0.19701   0.85916   0.00000  Uiso   1.00
C424   C     0.48110   0.93297   0.83317   0.00000  Uiso   1.00
C425   C     0.44160   0.91573   0.81038   0.00000  Uiso   1.00
C426   C     0.38758   0.90105   0.81868   0.00000  Uiso   1.00
C427   C     0.29428   0.87283   0.82038   0.00000  Uiso   1.00
C428   C     0.51684   0.95551   0.88440   0.00000  Uiso   1.00
C429   C     0.53954   0.91590   0.87980   0.00000  Uiso   1.00
C430   C     0.87978   0.55144   0.56877   0.00000  Uiso   1.00
C431   C     0.90118   0.51768   0.55999   0.00000  Uiso   1.00
C432   C     0.56148   0.01202   0.87234   0.00000  Uiso   1.00
C433   C     0.58683   0.06172   0.88838   0.00000  Uiso   1.00
C434   C     0.62669   0.10888   0.87332   0.00000  Uiso   1.00
C435   C     0.46713   0.93547   0.86318   0.00000  Uiso   1.00
C436   C     0.41316   0.92082   0.87152   0.00000  Uiso   1.00
C437   C     0.37359   0.90355   0.84875   0.00000  Uiso   1.00
H438   H     0.55343   0.94896   0.80577   0.00000  Uiso   1.00
H439   H     0.58571   0.87776   0.81773   0.00000  Uiso   1.00
H440   H     0.62607   0.05467   0.80401   0.00000  Uiso   1.00
H441   H     0.45243   0.91379   0.78716   0.00000  Uiso   1.00
H442   H     0.94868   0.46660   0.51091   0.00000  Uiso   1.00
H443   H     0.70046   0.17297   0.81530   0.00000  Uiso   1.00
H444   H     0.33429   0.87591   0.77976   0.00000  Uiso   1.00
H445   H     0.50597   0.95747   0.90777   0.00000  Uiso   1.00
H446   H     0.86897   0.55339   0.59200   0.00000  Uiso   1.00
H447   H     0.57601   0.06364   0.91161   0.00000  Uiso   1.00
H448   H     0.40236   0.92276   0.89475   0.00000  Uiso   1.00
H449   H     0.90805   0.47388   0.59824   0.00000  Uiso   1.00
H450   H     0.65982   0.18025   0.90263   0.00000  Uiso   1.00
H451   H     0.29366   0.88319   0.86709   0.00000  Uiso   1.00
O452   O     0.94876   0.42356   0.56429   0.00000  Uiso   1.00
O453   O     0.72707   0.24631   0.85965   0.00000  Uiso   1.00
O454   O     0.24667   0.85657   0.81302   0.00000  Uiso   1.00
N455   N     0.93504   0.47801   0.52905   0.00000  Uiso   1.00
N456   N     0.68128   0.16011   0.83532   0.00000  Uiso   1.00
N457   N     0.33895   0.88240   0.80210   0.00000  Uiso   1.00
N458   N     0.91317   0.48193   0.57604   0.00000  Uiso   1.00
N459   N     0.65941   0.16403   0.88232   0.00000  Uiso   1.00
N460   N     0.31708   0.88631   0.84909   0.00000  Uiso   1.00
C461   C     0.62371   0.59831   0.26690   0.00000  Uiso   1.00
C462   C     0.62981   0.63417   0.29427   0.00000  Uiso   1.00
C463   C     0.64092   0.68894   0.29356   0.00000  Uiso   1.00
C464   C     0.64494   0.71451   0.32105   0.00000  Uiso   1.00
C465   C     0.98882   0.44115   0.02608   0.00000  Uiso   1.00
C466   C     0.66623   0.57910   0.27106   0.00000  Uiso   1.00
C467   C     0.70796   0.58758   0.25082   0.00000  Uiso   1.00
C468   C     0.07597   0.23345   0.92544   0.00000  Uiso   1.00
C469   C     0.14303   0.20791   0.92775   0.00000  Uiso   1.00
C470   C     0.56645   0.54604   0.26970   0.00000  Uiso   1.00
C471   C     0.52428   0.52670   0.24832   0.00000  Uiso   1.00
C472   C     0.47495   0.47807   0.25513   0.00000  Uiso   1.00
C473   C     0.38709   0.40119   0.25533   0.00000  Uiso   1.00
C474   C     0.61109   0.54632   0.31700   0.00000  Uiso   1.00
C475   C     0.62296   0.60592   0.32148   0.00000  Uiso   1.00
C476   C     0.96029   0.29808   0.01565   0.00000  Uiso   1.00
C477   C     0.97141   0.35289   0.01498   0.00000  Uiso   1.00
C478   C     0.65938   0.55086   0.29827   0.00000  Uiso   1.00
C479   C     0.02733   0.19672   0.97291   0.00000  Uiso   1.00
C480   C     0.06910   0.20516   0.95269   0.00000  Uiso   1.00
C481   C     0.55959   0.51780   0.29691   0.00000  Uiso   1.00
C482   C     0.51032   0.46918   0.30375   0.00000  Uiso   1.00
C483   C     0.46809   0.44977   0.28238   0.00000  Uiso   1.00
H484   H     0.62904   0.62030   0.24572   0.00000  Uiso   1.00
H485   H     0.64622   0.71079   0.27250   0.00000  Uiso   1.00
H486   H     0.71325   0.60943   0.22977   0.00000  Uiso   1.00
H487   H     0.52960   0.54857   0.22727   0.00000  Uiso   1.00
H488   H     0.99560   0.46532   0.98086   0.00000  Uiso   1.00
H489   H     0.13691   0.25159   0.89075   0.00000  Uiso   1.00
H490   H     0.41632   0.45659   0.21881   0.00000  Uiso   1.00
H491   H     0.60576   0.52433   0.33818   0.00000  Uiso   1.00
H492   H     0.95499   0.27622   0.03670   0.00000  Uiso   1.00
H493   H     0.02202   0.17486   0.99397   0.00000  Uiso   1.00
H494   H     0.50503   0.44733   0.32481   0.00000  Uiso   1.00
H495   H     0.97567   0.38316   0.06002   0.00000  Uiso   1.00
H496   H     0.11697   0.16943   0.96991   0.00000  Uiso   1.00
H497   H     0.39638   0.37442   0.29798   0.00000  Uiso   1.00
O498   O     0.99653   0.48204   0.03973   0.00000  Uiso   1.00
O499   O     0.18192   0.20162   0.92150   0.00000  Uiso   1.00
O500   O     0.34051   0.36659   0.24793   0.00000  Uiso   1.00
N501   N     0.98872   0.43429   0.99512   0.00000  Uiso   1.00
N502   N     0.12084   0.23447   0.91087   0.00000  Uiso   1.00
N503   N     0.42546   0.44781   0.23928   0.00000  Uiso   1.00
N504   N     0.97799   0.39007   0.03772   0.00000  Uiso   1.00
N505   N     0.11011   0.19026   0.95347   0.00000  Uiso   1.00
N506   N     0.41473   0.40360   0.28187   0.00000  Uiso   1.00
C507   C     0.20922   0.28424   0.16247   0.00000  Uiso   1.00
C508   C     0.22017   0.24673   0.18311   0.00000  Uiso   1.00
C509   C     0.24156   0.21301   0.17430   0.00000  Uiso   1.00
C510   C     0.58184   0.84851   0.86326   0.00000  Uiso   1.00
C511   C     0.60100   0.78991   0.89075   0.00000  Uiso   1.00
C512   C     0.24211   0.34285   0.17566   0.00000  Uiso   1.00
C513   C     0.28194   0.38995   0.16057   0.00000  Uiso   1.00
C514   C     0.30735   0.43971   0.17659   0.00000  Uiso   1.00
C515   C     0.36054   0.53034   0.19250   0.00000  Uiso   1.00
C516   C     0.14776   0.26630   0.16650   0.00000  Uiso   1.00
C517   C     0.10827   0.24906   0.14371   0.00000  Uiso   1.00
C518   C     0.05425   0.23438   0.15202   0.00000  Uiso   1.00
C519   C     0.96095   0.20616   0.15371   0.00000  Uiso   1.00
C520   C     0.18351   0.28885   0.21773   0.00000  Uiso   1.00
C521   C     0.20621   0.24923   0.21313   0.00000  Uiso   1.00
C522   C     0.54645   0.88478   0.90211   0.00000  Uiso   1.00
C523   C     0.56785   0.85102   0.89333   0.00000  Uiso   1.00
C524   C     0.22815   0.34535   0.20567   0.00000  Uiso   1.00
C525   C     0.25350   0.39505   0.22171   0.00000  Uiso   1.00
C526   C     0.29336   0.44221   0.20666   0.00000  Uiso   1.00
C527   C     0.13380   0.26881   0.19652   0.00000  Uiso   1.00
C528   C     0.07982   0.25415   0.20486   0.00000  Uiso   1.00
C529   C     0.04026   0.23689   0.18209   0.00000  Uiso   1.00
H530   H     0.22010   0.28229   0.13910   0.00000  Uiso   1.00
H531   H     0.25237   0.21109   0.15107   0.00000  Uiso   1.00
H532   H     0.29274   0.38800   0.13734   0.00000  Uiso   1.00
H533   H     0.11909   0.24713   0.12049   0.00000  Uiso   1.00
H534   H     0.61535   0.79993   0.84424   0.00000  Uiso   1.00
H535   H     0.36712   0.50630   0.14863   0.00000  Uiso   1.00
H536   H     0.00096   0.20924   0.11309   0.00000  Uiso   1.00
H537   H     0.17263   0.29080   0.24110   0.00000  Uiso   1.00
H538   H     0.53564   0.88672   0.92533   0.00000  Uiso   1.00
H539   H     0.24268   0.39697   0.24494   0.00000  Uiso   1.00
H540   H     0.06903   0.25610   0.22809   0.00000  Uiso   1.00
H541   H     0.57472   0.80721   0.93158   0.00000  Uiso   1.00
H542   H     0.32649   0.51358   0.23596   0.00000  Uiso   1.00
H543   H     0.96032   0.21652   0.20042   0.00000  Uiso   1.00
O544   O     0.61543   0.75689   0.89763   0.00000  Uiso   1.00
O545   O     0.39374   0.57964   0.19298   0.00000  Uiso   1.00
O546   O     0.91334   0.18990   0.14636   0.00000  Uiso   1.00
N547   N     0.60171   0.81134   0.86239   0.00000  Uiso   1.00
N548   N     0.34795   0.49344   0.16866   0.00000  Uiso   1.00
N549   N     0.00562   0.21573   0.13543   0.00000  Uiso   1.00
N550   N     0.57984   0.81526   0.90938   0.00000  Uiso   1.00
N551   N     0.32608   0.49736   0.21565   0.00000  Uiso   1.00
N552   N     0.98375   0.21965   0.18242   0.00000  Uiso   1.00
C553   C     0.06835   0.35873   0.60023   0.00000  Uiso   1.00
C554   C     0.03250   0.32897   0.62761   0.00000  Uiso   1.00
C555   C     0.97773   0.28531   0.62689   0.00000  Uiso   1.00
C556   C     0.95216   0.26377   0.65439   0.00000  Uiso   1.00
C557   C     0.22551   0.88100   0.35942   0.00000  Uiso   1.00
C558   C     0.08756   0.42046   0.60439   0.00000  Uiso   1.00
C559   C     0.07909   0.45371   0.58415   0.00000  Uiso   1.00
C560   C     0.43321   0.17585   0.25877   0.00000  Uiso   1.00
C561   C     0.45876   0.26846   0.26108   0.00000  Uiso   1.00
C562   C     0.12063   0.35374   0.60303   0.00000  Uiso   1.00
C563   C     0.13996   0.33091   0.58165   0.00000  Uiso   1.00
C564   C     0.18860   0.33022   0.58846   0.00000  Uiso   1.00
C565   C     0.26548   0.31923   0.58866   0.00000  Uiso   1.00
C566   C     0.12035   0.39811   0.65033   0.00000  Uiso   1.00
C567   C     0.06074   0.35037   0.65482   0.00000  Uiso   1.00
C568   C     0.36859   0.99555   0.34898   0.00000  Uiso   1.00
C569   C     0.31378   0.95186   0.34831   0.00000  Uiso   1.00
C570   C     0.11581   0.44185   0.63160   0.00000  Uiso   1.00
C571   C     0.46995   0.16395   0.30625   0.00000  Uiso   1.00
C572   C     0.46151   0.19728   0.28603   0.00000  Uiso   1.00
C573   C     0.14887   0.37513   0.63024   0.00000  Uiso   1.00
C574   C     0.19749   0.37448   0.63708   0.00000  Uiso   1.00
C575   C     0.21689   0.35165   0.61572   0.00000  Uiso   1.00
H576   H     0.04637   0.34208   0.57905   0.00000  Uiso   1.00
H577   H     0.95588   0.26877   0.60583   0.00000  Uiso   1.00
H578   H     0.05724   0.43715   0.56310   0.00000  Uiso   1.00
H579   H     0.11810   0.31436   0.56060   0.00000  Uiso   1.00
H580   H     0.20134   0.86361   0.31419   0.00000  Uiso   1.00
H581   H     0.41507   0.21865   0.22408   0.00000  Uiso   1.00
H582   H     0.21008   0.29307   0.55215   0.00000  Uiso   1.00
H583   H     0.14234   0.41476   0.67151   0.00000  Uiso   1.00
H584   H     0.39045   0.01211   0.37004   0.00000  Uiso   1.00
H585   H     0.49181   0.18049   0.32730   0.00000  Uiso   1.00
H586   H     0.21933   0.39103   0.65814   0.00000  Uiso   1.00
H587   H     0.28351   0.92584   0.39336   0.00000  Uiso   1.00
H588   H     0.49724   0.28088   0.30324   0.00000  Uiso   1.00
H589   H     0.29224   0.35529   0.63131   0.00000  Uiso   1.00
O590   O     0.18463   0.84783   0.37306   0.00000  Uiso   1.00
O591   O     0.46504   0.31362   0.25484   0.00000  Uiso   1.00
O592   O     0.30008   0.30726   0.58126   0.00000  Uiso   1.00
N593   N     0.23238   0.88776   0.32845   0.00000  Uiso   1.00
N594   N     0.43220   0.21970   0.24421   0.00000  Uiso   1.00
N595   N     0.21886   0.31098   0.57261   0.00000  Uiso   1.00
N596   N     0.27659   0.92125   0.37105   0.00000  Uiso   1.00
N597   N     0.47641   0.25319   0.28680   0.00000  Uiso   1.00
N598   N     0.26307   0.34447   0.61521   0.00000  Uiso   1.00
C599   C     0.38243   0.25831   0.49580   0.00000  Uiso   1.00
C600   C     0.41994   0.30678   0.51645   0.00000  Uiso   1.00
C601   C     0.45366   0.36189   0.50763   0.00000  Uiso   1.00
C602   C     0.81815   0.06666   0.19659   0.00000  Uiso   1.00
C603   C     0.87676   0.14442   0.22409   0.00000  Uiso   1.00
C604   C     0.32382   0.23259   0.50899   0.00000  Uiso   1.00
C605   C     0.27671   0.22533   0.49390   0.00000  Uiso   1.00
C606   C     0.22696   0.20098   0.50992   0.00000  Uiso   1.00
C607   C     0.13633   0.16353   0.52583   0.00000  Uiso   1.00
C608   C     0.40036   0.21479   0.49983   0.00000  Uiso   1.00
C609   C     0.41761   0.19255   0.47705   0.00000  Uiso   1.00
C610   C     0.43229   0.15320   0.48535   0.00000  Uiso   1.00
C611   C     0.46050   0.08812   0.48705   0.00000  Uiso   1.00
C612   C     0.37782   0.22799   0.55106   0.00000  Uiso   1.00
C613   C     0.41743   0.29031   0.54646   0.00000  Uiso   1.00
C614   C     0.78189   0.99501   0.23544   0.00000  Uiso   1.00
C615   C     0.81565   0.05016   0.22666   0.00000  Uiso   1.00
C616   C     0.32131   0.21612   0.53901   0.00000  Uiso   1.00
C617   C     0.27162   0.19178   0.55505   0.00000  Uiso   1.00
C618   C     0.22445   0.18448   0.53999   0.00000  Uiso   1.00
C619   C     0.39786   0.19832   0.52985   0.00000  Uiso   1.00
C620   C     0.41251   0.15900   0.53819   0.00000  Uiso   1.00
C621   C     0.42978   0.13670   0.51542   0.00000  Uiso   1.00
H622   H     0.38437   0.27113   0.47243   0.00000  Uiso   1.00
H623   H     0.45558   0.37462   0.48440   0.00000  Uiso   1.00
H624   H     0.27866   0.23807   0.47068   0.00000  Uiso   1.00
H625   H     0.41954   0.20530   0.45382   0.00000  Uiso   1.00
H626   H     0.86674   0.14875   0.17758   0.00000  Uiso   1.00
H627   H     0.16037   0.19416   0.48197   0.00000  Uiso   1.00
H628   H     0.45743   0.12505   0.44643   0.00000  Uiso   1.00
H629   H     0.37587   0.21517   0.57443   0.00000  Uiso   1.00
H630   H     0.77994   0.98225   0.25867   0.00000  Uiso   1.00
H631   H     0.26969   0.17904   0.57827   0.00000  Uiso   1.00
H632   H     0.41057   0.14627   0.56142   0.00000  Uiso   1.00
H633   H     0.85946   0.10084   0.26491   0.00000  Uiso   1.00
H634   H     0.15308   0.14624   0.56930   0.00000  Uiso   1.00
H635   H     0.45015   0.07714   0.53376   0.00000  Uiso   1.00
O636   O     0.90977   0.19187   0.23096   0.00000  Uiso   1.00
O637   O     0.08703   0.14743   0.52632   0.00000  Uiso   1.00
O638   O     0.47677   0.05677   0.47969   0.00000  Uiso   1.00
N639   N     0.85532   0.12370   0.19572   0.00000  Uiso   1.00
N640   N     0.17322   0.18784   0.50199   0.00000  Uiso   1.00
N641   N     0.45094   0.12322   0.46876   0.00000  Uiso   1.00
N642   N     0.85141   0.09791   0.24271   0.00000  Uiso   1.00
N643   N     0.16931   0.16206   0.54898   0.00000  Uiso   1.00
N644   N     0.44702   0.09744   0.51576   0.00000  Uiso   1.00
C645   C     0.73502   0.69206   0.93357   0.00000  Uiso   1.00
C646   C     0.69917   0.66231   0.96094   0.00000  Uiso   1.00
C647   C     0.64439   0.61864   0.96023   0.00000  Uiso   1.00
C648   C     0.61882   0.59710   0.98772   0.00000  Uiso   1.00
C649   C     0.89218   0.21433   0.69275   0.00000  Uiso   1.00
C650   C     0.75423   0.75379   0.93772   0.00000  Uiso   1.00
C651   C     0.74576   0.78705   0.91749   0.00000  Uiso   1.00
C652   C     0.09988   0.50918   0.59210   0.00000  Uiso   1.00
C653   C     0.12543   0.60179   0.59441   0.00000  Uiso   1.00
C654   C     0.78729   0.68707   0.93637   0.00000  Uiso   1.00
C655   C     0.80663   0.66424   0.91499   0.00000  Uiso   1.00
C656   C     0.85527   0.66355   0.92179   0.00000  Uiso   1.00
C657   C     0.93215   0.65257   0.92200   0.00000  Uiso   1.00
C658   C     0.78702   0.73144   0.98366   0.00000  Uiso   1.00
C659   C     0.72741   0.68370   0.98815   0.00000  Uiso   1.00
C660   C     0.03525   0.32888   0.68232   0.00000  Uiso   1.00
C661   C     0.98045   0.28519   0.68165   0.00000  Uiso   1.00
C662   C     0.78247   0.77518   0.96493   0.00000  Uiso   1.00
C663   C     0.13662   0.49728   0.63958   0.00000  Uiso   1.00
C664   C     0.12817   0.53061   0.61936   0.00000  Uiso   1.00
C665   C     0.81554   0.70846   0.96358   0.00000  Uiso   1.00
C666   C     0.86415   0.70781   0.97041   0.00000  Uiso   1.00
C667   C     0.88356   0.68498   0.94905   0.00000  Uiso   1.00
H668   H     0.71303   0.67541   0.91238   0.00000  Uiso   1.00
H669   H     0.62255   0.60211   0.93917   0.00000  Uiso   1.00
H670   H     0.72390   0.77048   0.89643   0.00000  Uiso   1.00
H671   H     0.78476   0.64770   0.89394   0.00000  Uiso   1.00
H672   H     0.86801   0.19695   0.64752   0.00000  Uiso   1.00
H673   H     0.08174   0.55198   0.55741   0.00000  Uiso   1.00
H674   H     0.87674   0.62640   0.88548   0.00000  Uiso   1.00
H675   H     0.80901   0.74810   0.00485   0.00000  Uiso   1.00
H676   H     0.05712   0.34544   0.70337   0.00000  Uiso   1.00
H677   H     0.15847   0.51382   0.66064   0.00000  Uiso   1.00
H678   H     0.88600   0.72437   0.99147   0.00000  Uiso   1.00
H679   H     0.95018   0.25918   0.72669   0.00000  Uiso   1.00
H680   H     0.16391   0.61422   0.63658   0.00000  Uiso   1.00
H681   H     0.95891   0.68863   0.96465   0.00000  Uiso   1.00
O682   O     0.85129   0.18116   0.70640   0.00000  Uiso   1.00
O683   O     0.13171   0.64696   0.58817   0.00000  Uiso   1.00
O684   O     0.96675   0.64059   0.91459   0.00000  Uiso   1.00
N685   N     0.89905   0.22110   0.66178   0.00000  Uiso   1.00
N686   N     0.09886   0.55303   0.57754   0.00000  Uiso   1.00
N687   N     0.88552   0.64431   0.90594   0.00000  Uiso   1.00
N688   N     0.94326   0.25458   0.70438   0.00000  Uiso   1.00
N689   N     0.14308   0.58652   0.62014   0.00000  Uiso   1.00
N690   N     0.92974   0.67780   0.94854   0.00000  Uiso   1.00
C691   C     0.04909   0.59165   0.82913   0.00000  Uiso   1.00
C692   C     0.08661   0.64011   0.84978   0.00000  Uiso   1.00
C693   C     0.12032   0.69522   0.84097   0.00000  Uiso   1.00
C694   C     0.48482   0.40000   0.52992   0.00000  Uiso   1.00
C695   C     0.54343   0.47776   0.55742   0.00000  Uiso   1.00
C696   C     0.99048   0.56593   0.84233   0.00000  Uiso   1.00
C697   C     0.94338   0.55866   0.82724   0.00000  Uiso   1.00
C698   C     0.89363   0.53431   0.84325   0.00000  Uiso   1.00
C699   C     0.80299   0.49687   0.85916   0.00000  Uiso   1.00
C700   C     0.06703   0.54813   0.83317   0.00000  Uiso   1.00
C701   C     0.08427   0.52588   0.81038   0.00000  Uiso   1.00
C702   C     0.09895   0.48654   0.81868   0.00000  Uiso   1.00
C703   C     0.12717   0.42145   0.82038   0.00000  Uiso   1.00
C704   C     0.04449   0.56133   0.88440   0.00000  Uiso   1.00
C705   C     0.08410   0.62364   0.87980   0.00000  Uiso   1.00
C706   C     0.44856   0.32834   0.56877   0.00000  Uiso   1.00
C707   C     0.48232   0.38350   0.55999   0.00000  Uiso   1.00
C708   C     0.98798   0.54946   0.87234   0.00000  Uiso   1.00
C709   C     0.93828   0.52511   0.88838   0.00000  Uiso   1.00
C710   C     0.89112   0.51781   0.87332   0.00000  Uiso   1.00
C711   C     0.06453   0.53166   0.86318   0.00000  Uiso   1.00
C712   C     0.07918   0.49234   0.87152   0.00000  Uiso   1.00
C713   C     0.09645   0.47004   0.84875   0.00000  Uiso   1.00
H714   H     0.05104   0.60447   0.80577   0.00000  Uiso   1.00
H715   H     0.12224   0.70795   0.81773   0.00000  Uiso   1.00
H716   H     0.94533   0.57140   0.80401   0.00000  Uiso   1.00
H717   H     0.08621   0.53863   0.78716   0.00000  Uiso   1.00
H718   H     0.53340   0.48209   0.51091   0.00000  Uiso   1.00
H719   H     0.82703   0.52749   0.81530   0.00000  Uiso   1.00
H720   H     0.12409   0.45838   0.77976   0.00000  Uiso   1.00
H721   H     0.04253   0.54850   0.90777   0.00000  Uiso   1.00
H722   H     0.44661   0.31558   0.59200   0.00000  Uiso   1.00
H723   H     0.93636   0.51237   0.91161   0.00000  Uiso   1.00
H724   H     0.07724   0.47960   0.89475   0.00000  Uiso   1.00
H725   H     0.52612   0.43417   0.59824   0.00000  Uiso   1.00
H726   H     0.81975   0.47957   0.90263   0.00000  Uiso   1.00
H727   H     0.11681   0.41047   0.86709   0.00000  Uiso   1.00
O728   O     0.57644   0.52520   0.56429   0.00000  Uiso   1.00
O729   O     0.75369   0.48077   0.85965   0.00000  Uiso   1.00
O730   O     0.14343   0.39011   0.81302   0.00000  Uiso   1.00
N731   N     0.52199   0.45703   0.52905   0.00000  Uiso   1.00
N732   N     0.83989   0.52117   0.83532   0.00000  Uiso   1.00
N733   N     0.11760   0.45655   0.80210   0.00000  Uiso   1.00
N734   N     0.51807   0.43125   0.57604   0.00000  Uiso   1.00
N735   N     0.83597   0.49539   0.88232   0.00000  Uiso   1.00
N736   N     0.11369   0.43077   0.84909   0.00000  Uiso   1.00
C737   C     0.40169   0.02539   0.26690   0.00000  Uiso   1.00
C738   C     0.36583   0.99564   0.29427   0.00000  Uiso   1.00
C739   C     0.31106   0.95198   0.29356   0.00000  Uiso   1.00
C740   C     0.28549   0.93043   0.32105   0.00000  Uiso   1.00
C741   C     0.55885   0.54767   0.02608   0.00000  Uiso   1.00
C742   C     0.42090   0.08713   0.27106   0.00000  Uiso   1.00
C743   C     0.41242   0.12038   0.25082   0.00000  Uiso   1.00
C744   C     0.76655   0.84252   0.92544   0.00000  Uiso   1.00
C745   C     0.79209   0.93512   0.92775   0.00000  Uiso   1.00
C746   C     0.45396   0.02041   0.26970   0.00000  Uiso   1.00
C747   C     0.47330   0.99758   0.24832   0.00000  Uiso   1.00
C748   C     0.52193   0.99689   0.25513   0.00000  Uiso   1.00
C749   C     0.59881   0.98590   0.25533   0.00000  Uiso   1.00
C750   C     0.45368   0.06477   0.31700   0.00000  Uiso   1.00
C751   C     0.39408   0.01703   0.32148   0.00000  Uiso   1.00
C752   C     0.70192   0.66221   0.01565   0.00000  Uiso   1.00
C753   C     0.64711   0.61852   0.01498   0.00000  Uiso   1.00
C754   C     0.44914   0.10852   0.29827   0.00000  Uiso   1.00
C755   C     0.80328   0.83062   0.97291   0.00000  Uiso   1.00
C756   C     0.79484   0.86395   0.95269   0.00000  Uiso   1.00
C757   C     0.48220   0.04180   0.29691   0.00000  Uiso   1.00
C758   C     0.53082   0.04114   0.30375   0.00000  Uiso   1.00
C759   C     0.55023   0.01832   0.28238   0.00000  Uiso   1.00
H760   H     0.37970   0.00874   0.24572   0.00000  Uiso   1.00
H761   H     0.28921   0.93544   0.27250   0.00000  Uiso   1.00
H762   H     0.39057   0.10382   0.22977   0.00000  Uiso   1.00
H763   H     0.45143   0.98103   0.22727   0.00000  Uiso   1.00
H764   H     0.53468   0.53028   0.98086   0.00000  Uiso   1.00
H765   H     0.74841   0.88532   0.89075   0.00000  Uiso   1.00
H766   H     0.54341   0.95973   0.21881   0.00000  Uiso   1.00
H767   H     0.47567   0.08143   0.33818   0.00000  Uiso   1.00
H768   H     0.72378   0.67878   0.03670   0.00000  Uiso   1.00
H769   H     0.82514   0.84715   0.99397   0.00000  Uiso   1.00
H770   H     0.55267   0.05770   0.32481   0.00000  Uiso   1.00
H771   H     0.61684   0.59251   0.06002   0.00000  Uiso   1.00
H772   H     0.83057   0.94755   0.96991   0.00000  Uiso   1.00
H773   H     0.62558   0.02196   0.29798   0.00000  Uiso   1.00
O774   O     0.51796   0.51450   0.03973   0.00000  Uiso   1.00
O775   O     0.79838   0.98029   0.92150   0.00000  Uiso   1.00
O776   O     0.63341   0.97393   0.24793   0.00000  Uiso   1.00
N777   N     0.56571   0.55443   0.99512   0.00000  Uiso   1.00
N778   N     0.76553   0.88637   0.91087   0.00000  Uiso   1.00
N779   N     0.55219   0.97765   0.23928   0.00000  Uiso   1.00
N780   N     0.60993   0.58792   0.03772   0.00000  Uiso   1.00
N781   N     0.80974   0.91985   0.95347   0.00000  Uiso   1.00
N782   N     0.59640   0.01113   0.28187   0.00000  Uiso   1.00
C783   C     0.71576   0.92498   0.16247   0.00000  Uiso   1.00
C784   C     0.75327   0.97344   0.18311   0.00000  Uiso   1.00
C785   C     0.78699   0.02855   0.17430   0.00000  Uiso   1.00
C786   C     0.15149   0.73333   0.86326   0.00000  Uiso   1.00
C787   C     0.21009   0.81109   0.89075   0.00000  Uiso   1.00
C788   C     0.65715   0.89926   0.17566   0.00000  Uiso   1.00
C789   C     0.61005   0.89199   0.16057   0.00000  Uiso   1.00
C790   C     0.56029   0.86765   0.17659   0.00000  Uiso   1.00
C791   C     0.46966   0.83020   0.19250   0.00000  Uiso   1.00
C792   C     0.73370   0.88146   0.16650   0.00000  Uiso   1.00
C793   C     0.75094   0.85921   0.14371   0.00000  Uiso   1.00
C794   C     0.76562   0.81987   0.15202   0.00000  Uiso   1.00
C795   C     0.79384   0.75478   0.15371   0.00000  Uiso   1.00
C796   C     0.71115   0.89466   0.21773   0.00000  Uiso   1.00
C797   C     0.75077   0.95697   0.21313   0.00000  Uiso   1.00
C798   C     0.11522   0.66167   0.90211   0.00000  Uiso   1.00
C799   C     0.14898   0.71683   0.89333   0.00000  Uiso   1.00
C800   C     0.65465   0.88279   0.20567   0.00000  Uiso   1.00
C801   C     0.60495   0.85845   0.22171   0.00000  Uiso   1.00
C802   C     0.55779   0.85115   0.20666   0.00000  Uiso   1.00
C803   C     0.73119   0.86499   0.19652   0.00000  Uiso   1.00
C804   C     0.74585   0.82567   0.20486   0.00000  Uiso   1.00
C805   C     0.76311   0.80337   0.18209   0.00000  Uiso   1.00
H806   H     0.71771   0.93780   0.13910   0.00000  Uiso   1.00
H807   H     0.78891   0.04128   0.15107   0.00000  Uiso   1.00
H808   H     0.61200   0.90474   0.13734   0.00000  Uiso   1.00
H809   H     0.75287   0.87197   0.12049   0.00000  Uiso   1.00
H810   H     0.20007   0.81542   0.84424   0.00000  Uiso   1.00
H811   H     0.49370   0.86082   0.14863   0.00000  Uiso   1.00
H812   H     0.79076   0.79172   0.11309   0.00000  Uiso   1.00
H813   H     0.70920   0.88184   0.24110   0.00000  Uiso   1.00
H814   H     0.11328   0.64892   0.92533   0.00000  Uiso   1.00
H815   H     0.60303   0.84570   0.24494   0.00000  Uiso   1.00
H816   H     0.74390   0.81293   0.22809   0.00000  Uiso   1.00
H817   H     0.19279   0.76751   0.93158   0.00000  Uiso   1.00
H818   H     0.48642   0.81291   0.23596   0.00000  Uiso   1.00
H819   H     0.78348   0.74380   0.20042   0.00000  Uiso   1.00
O820   O     0.24311   0.85853   0.89763   0.00000  Uiso   1.00
O821   O     0.42036   0.81410   0.19298   0.00000  Uiso   1.00
O822   O     0.81010   0.72344   0.14636   0.00000  Uiso   1.00
N823   N     0.18866   0.79036   0.86239   0.00000  Uiso   1.00
N824   N     0.50656   0.85450   0.16866   0.00000  Uiso   1.00
N825   N     0.78427   0.78989   0.13543   0.00000  Uiso   1.00
N826   N     0.18474   0.76458   0.90938   0.00000  Uiso   1.00
N827   N     0.50264   0.82872   0.21565   0.00000  Uiso   1.00
N828   N     0.78035   0.76410   0.18242   0.00000  Uiso   1.00
C829   C     0.35873   0.29037   0.39977   0.00000  Uiso   1.00
C830   C     0.32897   0.29647   0.37239   0.00000  Uiso   1.00
C831   C     0.28531   0.30759   0.37311   0.00000  Uiso   1.00
C832   C     0.26377   0.31161   0.34561   0.00000  Uiso   1.00
C833   C     0.88100   0.65549   0.64058   0.00000  Uiso   1.00
C834   C     0.42046   0.33289   0.39561   0.00000  Uiso   1.00
C835   C     0.45371   0.37462   0.41585   0.00000  Uiso   1.00
C836   C     0.17585   0.74263   0.74123   0.00000  Uiso   1.00
C837   C     0.26846   0.80970   0.73892   0.00000  Uiso   1.00
C838   C     0.35374   0.23311   0.39697   0.00000  Uiso   1.00
C839   C     0.33091   0.19095   0.41835   0.00000  Uiso   1.00
C840   C     0.33022   0.14162   0.41154   0.00000  Uiso   1.00
C841   C     0.31923   0.05375   0.41134   0.00000  Uiso   1.00
C842   C     0.39811   0.27776   0.34967   0.00000  Uiso   1.00
C843   C     0.35037   0.28962   0.34518   0.00000  Uiso   1.00
C844   C     0.99555   0.62696   0.65102   0.00000  Uiso   1.00
C845   C     0.95186   0.63808   0.65169   0.00000  Uiso   1.00
C846   C     0.44185   0.32604   0.36840   0.00000  Uiso   1.00
C847   C     0.16395   0.69400   0.69375   0.00000  Uiso   1.00
C848   C     0.19728   0.73577   0.71397   0.00000  Uiso   1.00
C849   C     0.37513   0.22626   0.36976   0.00000  Uiso   1.00
C850   C     0.37448   0.17699   0.36292   0.00000  Uiso   1.00
C851   C     0.35165   0.13476   0.38428   0.00000  Uiso   1.00
H852   H     0.34208   0.29571   0.42095   0.00000  Uiso   1.00
H853   H     0.26877   0.31289   0.39417   0.00000  Uiso   1.00
H854   H     0.43715   0.37991   0.43690   0.00000  Uiso   1.00
H855   H     0.31436   0.19626   0.43940   0.00000  Uiso   1.00
H856   H     0.86361   0.66227   0.68581   0.00000  Uiso   1.00
H857   H     0.21865   0.80358   0.77592   0.00000  Uiso   1.00
H858   H     0.29307   0.08299   0.44785   0.00000  Uiso   1.00
H859   H     0.41476   0.27242   0.32849   0.00000  Uiso   1.00
H860   H     0.01211   0.62166   0.62996   0.00000  Uiso   1.00
H861   H     0.18049   0.68868   0.67270   0.00000  Uiso   1.00
H862   H     0.39103   0.17170   0.34186   0.00000  Uiso   1.00
H863   H     0.92584   0.64233   0.60664   0.00000  Uiso   1.00
H864   H     0.28088   0.78364   0.69676   0.00000  Uiso   1.00
H865   H     0.35529   0.06305   0.36869   0.00000  Uiso   1.00
O866   O     0.84783   0.66320   0.62694   0.00000  Uiso   1.00
O867   O     0.31362   0.84858   0.74516   0.00000  Uiso   1.00
O868   O     0.30726   0.00718   0.41874   0.00000  Uiso   1.00
N869   N     0.88776   0.65538   0.67155   0.00000  Uiso   1.00
N870   N     0.21970   0.78750   0.75579   0.00000  Uiso   1.00
N871   N     0.31098   0.09212   0.42739   0.00000  Uiso   1.00
N872   N     0.92125   0.64466   0.62895   0.00000  Uiso   1.00
N873   N     0.25319   0.77678   0.71320   0.00000  Uiso   1.00
N874   N     0.34447   0.08140   0.38479   0.00000  Uiso   1.00
C875   C     0.25831   0.87589   0.50420   0.00000  Uiso   1.00
C876   C     0.30678   0.88684   0.48355   0.00000  Uiso   1.00
C877   C     0.36189   0.90823   0.49237   0.00000  Uiso   1.00
C878   C     0.06666   0.24851   0.80341   0.00000  Uiso   1.00
C879   C     0.14442   0.26766   0.77591   0.00000  Uiso   1.00
C880   C     0.23259   0.90878   0.49101   0.00000  Uiso   1.00
C881   C     0.22533   0.94861   0.50610   0.00000  Uiso   1.00
C882   C     0.20098   0.97402   0.49008   0.00000  Uiso   1.00
C883   C     0.16353   0.02721   0.47417   0.00000  Uiso   1.00
C884   C     0.21479   0.81443   0.50017   0.00000  Uiso   1.00
C885   C     0.19255   0.77494   0.52295   0.00000  Uiso   1.00
C886   C     0.15320   0.72091   0.51465   0.00000  Uiso   1.00
C887   C     0.08812   0.62761   0.51295   0.00000  Uiso   1.00
C888   C     0.22799   0.85017   0.44894   0.00000  Uiso   1.00
C889   C     0.29031   0.87287   0.45354   0.00000  Uiso   1.00
C890   C     0.99501   0.21312   0.76456   0.00000  Uiso   1.00
C891   C     0.05016   0.23452   0.77334   0.00000  Uiso   1.00
C892   C     0.21612   0.89481   0.46099   0.00000  Uiso   1.00
C893   C     0.19178   0.92016   0.44495   0.00000  Uiso   1.00
C894   C     0.18448   0.96003   0.46001   0.00000  Uiso   1.00
C895   C     0.19832   0.80046   0.47015   0.00000  Uiso   1.00
C896   C     0.15900   0.74649   0.46181   0.00000  Uiso   1.00
C897   C     0.13670   0.70692   0.48458   0.00000  Uiso   1.00
H898   H     0.27113   0.88676   0.52757   0.00000  Uiso   1.00
H899   H     0.37462   0.91904   0.51560   0.00000  Uiso   1.00
H900   H     0.23807   0.95941   0.52932   0.00000  Uiso   1.00
H901   H     0.20530   0.78576   0.54618   0.00000  Uiso   1.00
H902   H     0.14875   0.28202   0.82242   0.00000  Uiso   1.00
H903   H     0.19416   0.03379   0.51803   0.00000  Uiso   1.00
H904   H     0.12505   0.66762   0.55357   0.00000  Uiso   1.00
H905   H     0.21517   0.83930   0.42557   0.00000  Uiso   1.00
H906   H     0.98225   0.20230   0.74133   0.00000  Uiso   1.00
H907   H     0.17904   0.90934   0.42173   0.00000  Uiso   1.00
H908   H     0.14627   0.73570   0.43858   0.00000  Uiso   1.00
H909   H     0.10084   0.24138   0.73509   0.00000  Uiso   1.00
H910   H     0.14624   0.99316   0.43070   0.00000  Uiso   1.00
H911   H     0.07714   0.62699   0.46624   0.00000  Uiso   1.00
O912   O     0.19187   0.28209   0.76904   0.00000  Uiso   1.00
O913   O     0.14743   0.06041   0.47368   0.00000  Uiso   1.00
O914   O     0.05677   0.58001   0.52031   0.00000  Uiso   1.00
N915   N     0.12370   0.26837   0.80428   0.00000  Uiso   1.00
N916   N     0.18784   0.01461   0.49801   0.00000  Uiso   1.00
N917   N     0.12322   0.67228   0.53124   0.00000  Uiso   1.00
N918   N     0.09791   0.24651   0.75729   0.00000  Uiso   1.00
N919   N     0.16206   0.99275   0.45102   0.00000  Uiso   1.00
N920   N     0.09744   0.65042   0.48424   0.00000  Uiso   1.00
C921   C     0.02539   0.62371   0.73310   0.00000  Uiso   1.00
C922   C     0.99564   0.62981   0.70573   0.00000  Uiso   1.00
C923   C     0.95198   0.64092   0.70644   0.00000  Uiso   1.00
C924   C     0.93043   0.64494   0.67895   0.00000  Uiso   1.00
C925   C     0.54767   0.98882   0.97392   0.00000  Uiso   1.00
C926   C     0.08713   0.66623   0.72894   0.00000  Uiso   1.00
C927   C     0.12038   0.70796   0.74918   0.00000  Uiso   1.00
C928   C     0.84252   0.07597   0.07456   0.00000  Uiso   1.00
C929   C     0.93512   0.14303   0.07225   0.00000  Uiso   1.00
C930   C     0.02041   0.56645   0.73030   0.00000  Uiso   1.00
C931   C     0.99758   0.52428   0.75168   0.00000  Uiso   1.00
C932   C     0.99689   0.47495   0.74487   0.00000  Uiso   1.00
C933   C     0.98590   0.38709   0.74467   0.00000  Uiso   1.00
C934   C     0.06477   0.61109   0.68300   0.00000  Uiso   1.00
C935   C     0.01703   0.62296   0.67852   0.00000  Uiso   1.00
C936   C     0.66221   0.96029   0.98435   0.00000  Uiso   1.00
C937   C     0.61852   0.97141   0.98502   0.00000  Uiso   1.00
C938   C     0.10852   0.65938   0.70173   0.00000  Uiso   1.00
C939   C     0.83062   0.02733   0.02709   0.00000  Uiso   1.00
C940   C     0.86395   0.06910   0.04731   0.00000  Uiso   1.00
C941   C     0.04180   0.55959   0.70309   0.00000  Uiso   1.00
C942   C     0.04114   0.51032   0.69625   0.00000  Uiso   1.00
C943   C     0.01832   0.46809   0.71762   0.00000  Uiso   1.00
H944   H     0.00874   0.62904   0.75428   0.00000  Uiso   1.00
H945   H     0.93544   0.64622   0.72750   0.00000  Uiso   1.00
H946   H     0.10382   0.71325   0.77023   0.00000  Uiso   1.00
H947   H     0.98103   0.52960   0.77273   0.00000  Uiso   1.00
H948   H     0.53028   0.99560   0.01914   0.00000  Uiso   1.00
H949   H     0.88532   0.13691   0.10925   0.00000  Uiso   1.00
H950   H     0.95973   0.41632   0.78119   0.00000  Uiso   1.00
H951   H     0.08143   0.60576   0.66182   0.00000  Uiso   1.00
H952   H     0.67878   0.95499   0.96330   0.00000  Uiso   1.00
H953   H     0.84715   0.02202   0.00603   0.00000  Uiso   1.00
H954   H     0.05770   0.50503   0.67519   0.00000  Uiso   1.00
H955   H     0.59251   0.97567   0.93998   0.00000  Uiso   1.00
H956   H     0.94755   0.11697   0.03009   0.00000  Uiso   1.00
H957   H     0.02196   0.39638   0.70202   0.00000  Uiso   1.00
O958   O     0.51450   0.99653   0.96027   0.00000  Uiso   1.00
O959   O     0.98029   0.18192   0.07850   0.00000  Uiso   1.00
O960   O     0.97393   0.34051   0.75207   0.00000  Uiso   1.00
N961   N     0.55443   0.98872   0.00488   0.00000  Uiso   1.00
N962   N     0.88637   0.12084   0.08913   0.00000  Uiso   1.00
N963   N     0.97765   0.42546   0.76072   0.00000  Uiso   1.00
N964   N     0.58792   0.97799   0.96228   0.00000  Uiso   1.00
N965   N     0.91985   0.11011   0.04653   0.00000  Uiso   1.00
N966   N     0.01113   0.41473   0.71813   0.00000  Uiso   1.00
C967   C     0.92498   0.20922   0.83753   0.00000  Uiso   1.00
C968   C     0.97344   0.22017   0.81689   0.00000  Uiso   1.00
C969   C     0.02855   0.24156   0.82570   0.00000  Uiso   1.00
C970   C     0.73333   0.58184   0.13674   0.00000  Uiso   1.00
C971   C     0.81109   0.60100   0.10925   0.00000  Uiso   1.00
C972   C     0.89926   0.24211   0.82434   0.00000  Uiso   1.00
C973   C     0.89199   0.28194   0.83943   0.00000  Uiso   1.00
C974   C     0.86765   0.30735   0.82341   0.00000  Uiso   1.00
C975   C     0.83020   0.36054   0.80750   0.00000  Uiso   1.00
C976   C     0.88146   0.14776   0.83350   0.00000  Uiso   1.00
C977   C     0.85921   0.10827   0.85629   0.00000  Uiso   1.00
C978   C     0.81987   0.05425   0.84798   0.00000  Uiso   1.00
C979   C     0.75478   0.96095   0.84629   0.00000  Uiso   1.00
C980   C     0.89466   0.18351   0.78227   0.00000  Uiso   1.00
C981   C     0.95697   0.20621   0.78687   0.00000  Uiso   1.00
C982   C     0.66167   0.54645   0.09789   0.00000  Uiso   1.00
C983   C     0.71683   0.56785   0.10667   0.00000  Uiso   1.00
C984   C     0.88279   0.22815   0.79433   0.00000  Uiso   1.00
C985   C     0.85845   0.25350   0.77829   0.00000  Uiso   1.00
C986   C     0.85115   0.29336   0.79334   0.00000  Uiso   1.00
C987   C     0.86499   0.13380   0.80348   0.00000  Uiso   1.00
C988   C     0.82567   0.07982   0.79514   0.00000  Uiso   1.00
C989   C     0.80337   0.04026   0.81791   0.00000  Uiso   1.00
H990   H     0.93780   0.22010   0.86090   0.00000  Uiso   1.00
H991   H     0.04128   0.25237   0.84893   0.00000  Uiso   1.00
H992   H     0.90474   0.29274   0.86266   0.00000  Uiso   1.00
H993   H     0.87197   0.11909   0.87951   0.00000  Uiso   1.00
H994   H     0.81542   0.61535   0.15576   0.00000  Uiso   1.00
H995   H     0.86082   0.36712   0.85137   0.00000  Uiso   1.00
H996   H     0.79172   0.00096   0.88691   0.00000  Uiso   1.00
H997   H     0.88184   0.17263   0.75890   0.00000  Uiso   1.00
H998   H     0.64892   0.53564   0.07467   0.00000  Uiso   1.00
H999   H     0.84570   0.24268   0.75506   0.00000  Uiso   1.00
H1000  H     0.81293   0.06903   0.77191   0.00000  Uiso   1.00
H1001  H     0.76751   0.57472   0.06842   0.00000  Uiso   1.00
H1002  H     0.81291   0.32649   0.76404   0.00000  Uiso   1.00
H1003  H     0.74380   0.96032   0.79958   0.00000  Uiso   1.00
O1004  O     0.85853   0.61543   0.10237   0.00000  Uiso   1.00
O1005  O     0.81410   0.39374   0.80702   0.00000  Uiso   1.00
O1006  O     0.72344   0.91334   0.85364   0.00000  Uiso   1.00
N1007  N     0.79036   0.60171   0.13761   0.00000  Uiso   1.00
N1008  N     0.85450   0.34795   0.83134   0.00000  Uiso   1.00
N1009  N     0.78989   0.00562   0.86457   0.00000  Uiso   1.00
N1010  N     0.76458   0.57984   0.09062   0.00000  Uiso   1.00
N1011  N     0.82872   0.32608   0.78435   0.00000  Uiso   1.00
N1012  N     0.76410   0.98375   0.81758   0.00000  Uiso   1.00
C1013  C     0.69206   0.95704   0.06643   0.00000  Uiso   1.00
C1014  C     0.66231   0.96314   0.03906   0.00000  Uiso   1.00
C1015  C     0.61864   0.97425   0.03977   0.00000  Uiso   1.00
C1016  C     0.59710   0.97828   0.01228   0.00000  Uiso   1.00
C1017  C     0.21433   0.32215   0.30725   0.00000  Uiso   1.00
C1018  C     0.75379   0.99956   0.06228   0.00000  Uiso   1.00
C1019  C     0.78705   0.04129   0.08251   0.00000  Uiso   1.00
C1020  C     0.50918   0.40930   0.40790   0.00000  Uiso   1.00
C1021  C     0.60179   0.47636   0.40559   0.00000  Uiso   1.00
C1022  C     0.68707   0.89978   0.06363   0.00000  Uiso   1.00
C1023  C     0.66424   0.85761   0.08501   0.00000  Uiso   1.00
C1024  C     0.66355   0.80829   0.07821   0.00000  Uiso   1.00
C1025  C     0.65257   0.72042   0.07800   0.00000  Uiso   1.00
C1026  C     0.73144   0.94442   0.01634   0.00000  Uiso   1.00
C1027  C     0.68370   0.95629   0.01185   0.00000  Uiso   1.00
C1028  C     0.32888   0.29363   0.31768   0.00000  Uiso   1.00
C1029  C     0.28519   0.30474   0.31835   0.00000  Uiso   1.00
C1030  C     0.77518   0.99271   0.03507   0.00000  Uiso   1.00
C1031  C     0.49728   0.36067   0.36042   0.00000  Uiso   1.00
C1032  C     0.53061   0.40244   0.38064   0.00000  Uiso   1.00
C1033  C     0.70846   0.89293   0.03642   0.00000  Uiso   1.00
C1034  C     0.70781   0.84366   0.02959   0.00000  Uiso   1.00
C1035  C     0.68498   0.80142   0.05095   0.00000  Uiso   1.00
H1036  H     0.67541   0.96238   0.08762   0.00000  Uiso   1.00
H1037  H     0.60211   0.97956   0.06083   0.00000  Uiso   1.00
H1038  H     0.77048   0.04658   0.10357   0.00000  Uiso   1.00
H1039  H     0.64770   0.86293   0.10606   0.00000  Uiso   1.00
H1040  H     0.19695   0.32894   0.35248   0.00000  Uiso   1.00
H1041  H     0.55198   0.47024   0.44259   0.00000  Uiso   1.00
H1042  H     0.62640   0.74965   0.11452   0.00000  Uiso   1.00
H1043  H     0.74810   0.93909   0.99515   0.00000  Uiso   1.00
H1044  H     0.34544   0.28832   0.29663   0.00000  Uiso   1.00
H1045  H     0.51382   0.35535   0.33936   0.00000  Uiso   1.00
H1046  H     0.72437   0.83837   0.00853   0.00000  Uiso   1.00
H1047  H     0.25918   0.30900   0.27331   0.00000  Uiso   1.00
H1048  H     0.61422   0.45031   0.36342   0.00000  Uiso   1.00
H1049  H     0.68863   0.72972   0.03535   0.00000  Uiso   1.00
O1050  O     0.18116   0.32987   0.29360   0.00000  Uiso   1.00
O1051  O     0.64696   0.51525   0.41183   0.00000  Uiso   1.00
O1052  O     0.64059   0.67385   0.08541   0.00000  Uiso   1.00
N1053  N     0.22110   0.32205   0.33822   0.00000  Uiso   1.00
N1054  N     0.55303   0.45417   0.42246   0.00000  Uiso   1.00
N1055  N     0.64431   0.75879   0.09406   0.00000  Uiso   1.00
N1056  N     0.25458   0.31132   0.29562   0.00000  Uiso   1.00
N1057  N     0.58652   0.44344   0.37986   0.00000  Uiso   1.00
N1058  N     0.67780   0.74806   0.05146   0.00000  Uiso   1.00
C1059  C     0.59165   0.54255   0.17087   0.00000  Uiso   1.00
C1060  C     0.64011   0.55350   0.15022   0.00000  Uiso   1.00
C1061  C     0.69522   0.57490   0.15903   0.00000  Uiso   1.00
C1062  C     0.40000   0.91518   0.47008   0.00000  Uiso   1.00
C1063  C     0.47776   0.93433   0.44258   0.00000  Uiso   1.00
C1064  C     0.56593   0.57544   0.15767   0.00000  Uiso   1.00
C1065  C     0.55866   0.61528   0.17276   0.00000  Uiso   1.00
C1066  C     0.53431   0.64069   0.15675   0.00000  Uiso   1.00
C1067  C     0.49687   0.69387   0.14084   0.00000  Uiso   1.00
C1068  C     0.54813   0.48110   0.16683   0.00000  Uiso   1.00
C1069  C     0.52588   0.44160   0.18962   0.00000  Uiso   1.00
C1070  C     0.48654   0.38758   0.18132   0.00000  Uiso   1.00
C1071  C     0.42145   0.29428   0.17962   0.00000  Uiso   1.00
C1072  C     0.56133   0.51684   0.11560   0.00000  Uiso   1.00
C1073  C     0.62364   0.53954   0.12020   0.00000  Uiso   1.00
C1074  C     0.32834   0.87978   0.43123   0.00000  Uiso   1.00
C1075  C     0.38350   0.90118   0.44001   0.00000  Uiso   1.00
C1076  C     0.54946   0.56148   0.12766   0.00000  Uiso   1.00
C1077  C     0.52511   0.58683   0.11162   0.00000  Uiso   1.00
C1078  C     0.51781   0.62669   0.12668   0.00000  Uiso   1.00
C1079  C     0.53166   0.46713   0.13682   0.00000  Uiso   1.00
C1080  C     0.49234   0.41316   0.12848   0.00000  Uiso   1.00
C1081  C     0.47004   0.37359   0.15125   0.00000  Uiso   1.00
H1082  H     0.60447   0.55343   0.19423   0.00000  Uiso   1.00
H1083  H     0.70795   0.58571   0.18227   0.00000  Uiso   1.00
H1084  H     0.57140   0.62607   0.19599   0.00000  Uiso   1.00
H1085  H     0.53863   0.45243   0.21284   0.00000  Uiso   1.00
H1086  H     0.48209   0.94868   0.48909   0.00000  Uiso   1.00
H1087  H     0.52749   0.70046   0.18470   0.00000  Uiso   1.00
H1088  H     0.45838   0.33429   0.22024   0.00000  Uiso   1.00
H1089  H     0.54850   0.50597   0.09223   0.00000  Uiso   1.00
H1090  H     0.31558   0.86897   0.40800   0.00000  Uiso   1.00
H1091  H     0.51237   0.57601   0.08839   0.00000  Uiso   1.00
H1092  H     0.47960   0.40236   0.10525   0.00000  Uiso   1.00
H1093  H     0.43417   0.90805   0.40176   0.00000  Uiso   1.00
H1094  H     0.47957   0.65982   0.09737   0.00000  Uiso   1.00
H1095  H     0.41047   0.29366   0.13291   0.00000  Uiso   1.00
O1096  O     0.52520   0.94876   0.43571   0.00000  Uiso   1.00
O1097  O     0.48077   0.72707   0.14035   0.00000  Uiso   1.00
O1098  O     0.39011   0.24667   0.18698   0.00000  Uiso   1.00
N1099  N     0.45703   0.93504   0.47095   0.00000  Uiso   1.00
N1100  N     0.52117   0.68128   0.16468   0.00000  Uiso   1.00
N1101  N     0.45655   0.33895   0.19790   0.00000  Uiso   1.00
N1102  N     0.43125   0.91317   0.42396   0.00000  Uiso   1.00
N1103  N     0.49539   0.65941   0.11768   0.00000  Uiso   1.00
N1104  N     0.43077   0.31708   0.15091   0.00000  Uiso   1.00
C1105  C     0.70963   0.06835   0.39977   0.00000  Uiso   1.00
C1106  C     0.70353   0.03250   0.37239   0.00000  Uiso   1.00
C1107  C     0.69241   0.97773   0.37311   0.00000  Uiso   1.00
C1108  C     0.68839   0.95216   0.34561   0.00000  Uiso   1.00
C1109  C     0.34451   0.22551   0.64058   0.00000  Uiso   1.00
C1110  C     0.66711   0.08756   0.39561   0.00000  Uiso   1.00
C1111  C     0.62538   0.07909   0.41585   0.00000  Uiso   1.00
C1112  C     0.25737   0.43321   0.74123   0.00000  Uiso   1.00
C1113  C     0.19030   0.45876   0.73892   0.00000  Uiso   1.00
C1114  C     0.76689   0.12063   0.39697   0.00000  Uiso   1.00
C1115  C     0.80905   0.13996   0.41835   0.00000  Uiso   1.00
C1116  C     0.85838   0.18860   0.41154   0.00000  Uiso   1.00
C1117  C     0.94625   0.26548   0.41134   0.00000  Uiso   1.00
C1118  C     0.72224   0.12035   0.34967   0.00000  Uiso   1.00
C1119  C     0.71038   0.06074   0.34518   0.00000  Uiso   1.00
C1120  C     0.37304   0.36859   0.65102   0.00000  Uiso   1.00
C1121  C     0.36192   0.31378   0.65169   0.00000  Uiso   1.00
C1122  C     0.67396   0.11581   0.36840   0.00000  Uiso   1.00
C1123  C     0.30600   0.46995   0.69375   0.00000  Uiso   1.00
C1124  C     0.26423   0.46151   0.71397   0.00000  Uiso   1.00
C1125  C     0.77374   0.14887   0.36976   0.00000  Uiso   1.00
C1126  C     0.82301   0.19749   0.36292   0.00000  Uiso   1.00
C1127  C     0.86524   0.21689   0.38428   0.00000  Uiso   1.00
H1128  H     0.70429   0.04637   0.42095   0.00000  Uiso   1.00
H1129  H     0.68711   0.95588   0.39417   0.00000  Uiso   1.00
H1130  H     0.62009   0.05724   0.43690   0.00000  Uiso   1.00
H1131  H     0.80374   0.11810   0.43940   0.00000  Uiso   1.00
H1132  H     0.33773   0.20134   0.68581   0.00000  Uiso   1.00
H1133  H     0.19642   0.41507   0.77592   0.00000  Uiso   1.00
H1134  H     0.91701   0.21008   0.44785   0.00000  Uiso   1.00
H1135  H     0.72758   0.14234   0.32849   0.00000  Uiso   1.00
H1136  H     0.37834   0.39045   0.62996   0.00000  Uiso   1.00
H1137  H     0.31132   0.49181   0.67270   0.00000  Uiso   1.00
H1138  H     0.82830   0.21933   0.34186   0.00000  Uiso   1.00
H1139  H     0.35767   0.28351   0.60664   0.00000  Uiso   1.00
H1140  H     0.21636   0.49724   0.69676   0.00000  Uiso   1.00
H1141  H     0.93695   0.29224   0.36869   0.00000  Uiso   1.00
O1142  O     0.33680   0.18463   0.62694   0.00000  Uiso   1.00
O1143  O     0.15142   0.46504   0.74516   0.00000  Uiso   1.00
O1144  O     0.99282   0.30008   0.41874   0.00000  Uiso   1.00
N1145  N     0.34462   0.23238   0.67155   0.00000  Uiso   1.00
N1146  N     0.21250   0.43220   0.75579   0.00000  Uiso   1.00
N1147  N     0.90788   0.21886   0.42739   0.00000  Uiso   1.00
N1148  N     0.35534   0.27659   0.62895   0.00000  Uiso   1.00
N1149  N     0.22322   0.47641   0.71320   0.00000  Uiso   1.00
N1150  N     0.91860   0.26307   0.38479   0.00000  Uiso   1.00
C1151  C     0.12411   0.38243   0.50420   0.00000  Uiso   1.00
C1152  C     0.11316   0.41994   0.48355   0.00000  Uiso   1.00
C1153  C     0.09177   0.45366   0.49237   0.00000  Uiso   1.00
C1154  C     0.75149   0.81815   0.80341   0.00000  Uiso   1.00
C1155  C     0.73234   0.87676   0.77591   0.00000  Uiso   1.00
C1156  C     0.09122   0.32382   0.49101   0.00000  Uiso   1.00
C1157  C     0.05139   0.27671   0.50610   0.00000  Uiso   1.00
C1158  C     0.02598   0.22696   0.49008   0.00000  Uiso   1.00
C1159  C     0.97279   0.13633   0.47417   0.00000  Uiso   1.00
C1160  C     0.18557   0.40036   0.50017   0.00000  Uiso   1.00
C1161  C     0.22506   0.41761   0.52295   0.00000  Uiso   1.00
C1162  C     0.27909   0.43229   0.51465   0.00000  Uiso   1.00
C1163  C     0.37239   0.46050   0.51295   0.00000  Uiso   1.00
C1164  C     0.14983   0.37782   0.44894   0.00000  Uiso   1.00
C1165  C     0.12713   0.41743   0.45354   0.00000  Uiso   1.00
C1166  C     0.78688   0.78189   0.76456   0.00000  Uiso   1.00
C1167  C     0.76548   0.81565   0.77334   0.00000  Uiso   1.00
C1168  C     0.10519   0.32131   0.46099   0.00000  Uiso   1.00
C1169  C     0.07984   0.27162   0.44495   0.00000  Uiso   1.00
C1170  C     0.03997   0.22445   0.46001   0.00000  Uiso   1.00
C1171  C     0.19954   0.39786   0.47015   0.00000  Uiso   1.00
C1172  C     0.25351   0.41251   0.46181   0.00000  Uiso   1.00
C1173  C     0.29308   0.42978   0.48458   0.00000  Uiso   1.00
H1174  H     0.11324   0.38437   0.52757   0.00000  Uiso   1.00
H1175  H     0.08096   0.45558   0.51560   0.00000  Uiso   1.00
H1176  H     0.04059   0.27866   0.52932   0.00000  Uiso   1.00
H1177  H     0.21424   0.41954   0.54618   0.00000  Uiso   1.00
H1178  H     0.71798   0.86674   0.82242   0.00000  Uiso   1.00
H1179  H     0.96621   0.16037   0.51803   0.00000  Uiso   1.00
H1180  H     0.33238   0.45743   0.55357   0.00000  Uiso   1.00
H1181  H     0.16070   0.37587   0.42557   0.00000  Uiso   1.00
H1182  H     0.79770   0.77994   0.74133   0.00000  Uiso   1.00
H1183  H     0.09066   0.26969   0.42173   0.00000  Uiso   1.00
H1184  H     0.26430   0.41057   0.43858   0.00000  Uiso   1.00
H1185  H     0.75862   0.85946   0.73509   0.00000  Uiso   1.00
H1186  H     0.00684   0.15308   0.43070   0.00000  Uiso   1.00
H1187  H     0.37301   0.45015   0.46624   0.00000  Uiso   1.00
O1188  O     0.71791   0.90977   0.76904   0.00000  Uiso   1.00
O1189  O     0.93959   0.08703   0.47368   0.00000  Uiso   1.00
O1190  O     0.41999   0.47677   0.52031   0.00000  Uiso   1.00
N1191  N     0.73163   0.85532   0.80428   0.00000  Uiso   1.00
N1192  N     0.98539   0.17322   0.49801   0.00000  Uiso   1.00
N1193  N     0.32772   0.45094   0.53124   0.00000  Uiso   1.00
N1194  N     0.75349   0.85141   0.75729   0.00000  Uiso   1.00
N1195  N     0.00725   0.16931   0.45102   0.00000  Uiso   1.00
N1196  N     0.34958   0.44702   0.48424   0.00000  Uiso   1.00
C1197  C     0.37629   0.40169   0.73310   0.00000  Uiso   1.00
C1198  C     0.37019   0.36583   0.70573   0.00000  Uiso   1.00
C1199  C     0.35908   0.31106   0.70644   0.00000  Uiso   1.00
C1200  C     0.35506   0.28549   0.67895   0.00000  Uiso   1.00
C1201  C     0.01118   0.55885   0.97392   0.00000  Uiso   1.00
C1202  C     0.33377   0.42090   0.72894   0.00000  Uiso   1.00
C1203  C     0.29204   0.41242   0.74918   0.00000  Uiso   1.00
C1204  C     0.92403   0.76655   0.07456   0.00000  Uiso   1.00
C1205  C     0.85697   0.79209   0.07225   0.00000  Uiso   1.00
C1206  C     0.43355   0.45396   0.73030   0.00000  Uiso   1.00
C1207  C     0.47572   0.47330   0.75168   0.00000  Uiso   1.00
C1208  C     0.52505   0.52193   0.74487   0.00000  Uiso   1.00
C1209  C     0.61291   0.59881   0.74467   0.00000  Uiso   1.00
C1210  C     0.38891   0.45368   0.68300   0.00000  Uiso   1.00
C1211  C     0.37704   0.39408   0.67852   0.00000  Uiso   1.00
C1212  C     0.03971   0.70192   0.98435   0.00000  Uiso   1.00
C1213  C     0.02859   0.64711   0.98502   0.00000  Uiso   1.00
C1214  C     0.34062   0.44914   0.70173   0.00000  Uiso   1.00
C1215  C     0.97267   0.80328   0.02709   0.00000  Uiso   1.00
C1216  C     0.93090   0.79484   0.04731   0.00000  Uiso   1.00
C1217  C     0.44041   0.48220   0.70309   0.00000  Uiso   1.00
C1218  C     0.48968   0.53082   0.69625   0.00000  Uiso   1.00
C1219  C     0.53191   0.55023   0.71762   0.00000  Uiso   1.00
H1220  H     0.37096   0.37970   0.75428   0.00000  Uiso   1.00
H1221  H     0.35378   0.28921   0.72750   0.00000  Uiso   1.00
H1222  H     0.28675   0.39057   0.77023   0.00000  Uiso   1.00
H1223  H     0.47040   0.45143   0.77273   0.00000  Uiso   1.00
H1224  H     0.00440   0.53468   0.01914   0.00000  Uiso   1.00
H1225  H     0.86309   0.74841   0.10925   0.00000  Uiso   1.00
H1226  H     0.58368   0.54341   0.78119   0.00000  Uiso   1.00
H1227  H     0.39424   0.47567   0.66182   0.00000  Uiso   1.00
H1228  H     0.04501   0.72378   0.96330   0.00000  Uiso   1.00
H1229  H     0.97798   0.82514   0.00603   0.00000  Uiso   1.00
H1230  H     0.49497   0.55267   0.67519   0.00000  Uiso   1.00
H1231  H     0.02433   0.61684   0.93998   0.00000  Uiso   1.00
H1232  H     0.88303   0.83057   0.03009   0.00000  Uiso   1.00
H1233  H     0.60362   0.62558   0.70202   0.00000  Uiso   1.00
O1234  O     0.00347   0.51796   0.96027   0.00000  Uiso   1.00
O1235  O     0.81808   0.79838   0.07850   0.00000  Uiso   1.00
O1236  O     0.65949   0.63341   0.75207   0.00000  Uiso   1.00
N1237  N     0.01128   0.56571   0.00488   0.00000  Uiso   1.00
N1238  N     0.87916   0.76553   0.08913   0.00000  Uiso   1.00
N1239  N     0.57454   0.55219   0.76072   0.00000  Uiso   1.00
N1240  N     0.02201   0.60993   0.96228   0.00000  Uiso   1.00
N1241  N     0.88989   0.80974   0.04653   0.00000  Uiso   1.00
N1242  N     0.58527   0.59640   0.71813   0.00000  Uiso   1.00
C1243  C     0.79078   0.71576   0.83753   0.00000  Uiso   1.00
C1244  C     0.77983   0.75327   0.81689   0.00000  Uiso   1.00
C1245  C     0.75844   0.78699   0.82570   0.00000  Uiso   1.00
C1246  C     0.41816   0.15149   0.13674   0.00000  Uiso   1.00
C1247  C     0.39900   0.21009   0.10925   0.00000  Uiso   1.00
C1248  C     0.75789   0.65715   0.82434   0.00000  Uiso   1.00
C1249  C     0.71806   0.61005   0.83943   0.00000  Uiso   1.00
C1250  C     0.69265   0.56029   0.82341   0.00000  Uiso   1.00
C1251  C     0.63946   0.46966   0.80750   0.00000  Uiso   1.00
C1252  C     0.85224   0.73370   0.83350   0.00000  Uiso   1.00
C1253  C     0.89173   0.75094   0.85629   0.00000  Uiso   1.00
C1254  C     0.94575   0.76562   0.84798   0.00000  Uiso   1.00
C1255  C     0.03905   0.79384   0.84629   0.00000  Uiso   1.00
C1256  C     0.81649   0.71115   0.78227   0.00000  Uiso   1.00
C1257  C     0.79379   0.75077   0.78687   0.00000  Uiso   1.00
C1258  C     0.45355   0.11522   0.09789   0.00000  Uiso   1.00
C1259  C     0.43215   0.14898   0.10667   0.00000  Uiso   1.00
C1260  C     0.77185   0.65465   0.79433   0.00000  Uiso   1.00
C1261  C     0.74650   0.60495   0.77829   0.00000  Uiso   1.00
C1262  C     0.70664   0.55779   0.79334   0.00000  Uiso   1.00
C1263  C     0.86620   0.73119   0.80348   0.00000  Uiso   1.00
C1264  C     0.92018   0.74585   0.79514   0.00000  Uiso   1.00
C1265  C     0.95974   0.76311   0.81791   0.00000  Uiso   1.00
H1266  H     0.77990   0.71771   0.86090   0.00000  Uiso   1.00
H1267  H     0.74763   0.78891   0.84893   0.00000  Uiso   1.00
H1268  H     0.70726   0.61200   0.86266   0.00000  Uiso   1.00
H1269  H     0.88091   0.75287   0.87951   0.00000  Uiso   1.00
H1270  H     0.38465   0.20007   0.15576   0.00000  Uiso   1.00
H1271  H     0.63288   0.49370   0.85137   0.00000  Uiso   1.00
H1272  H     0.99904   0.79076   0.88691   0.00000  Uiso   1.00
H1273  H     0.82737   0.70920   0.75890   0.00000  Uiso   1.00
H1274  H     0.46436   0.11328   0.07467   0.00000  Uiso   1.00
H1275  H     0.75732   0.60303   0.75506   0.00000  Uiso   1.00
H1276  H     0.93097   0.74390   0.77191   0.00000  Uiso   1.00
H1277  H     0.42528   0.19279   0.06842   0.00000  Uiso   1.00
H1278  H     0.67351   0.48642   0.76404   0.00000  Uiso   1.00
H1279  H     0.03968   0.78348   0.79958   0.00000  Uiso   1.00
O1280  O     0.38457   0.24311   0.10237   0.00000  Uiso   1.00
O1281  O     0.60626   0.42036   0.80702   0.00000  Uiso   1.00
O1282  O     0.08666   0.81010   0.85364   0.00000  Uiso   1.00
N1283  N     0.39829   0.18866   0.13761   0.00000  Uiso   1.00
N1284  N     0.65205   0.50656   0.83134   0.00000  Uiso   1.00
N1285  N     0.99438   0.78427   0.86457   0.00000  Uiso   1.00
N1286  N     0.42016   0.18474   0.09062   0.00000  Uiso   1.00
N1287  N     0.67392   0.50264   0.78435   0.00000  Uiso   1.00
N1288  N     0.01625   0.78035   0.81758   0.00000  Uiso   1.00
C1289  C     0.04296   0.73502   0.06643   0.00000  Uiso   1.00
C1290  C     0.03686   0.69917   0.03906   0.00000  Uiso   1.00
C1291  C     0.02575   0.64439   0.03977   0.00000  Uiso   1.00
C1292  C     0.02172   0.61882   0.01228   0.00000  Uiso   1.00
C1293  C     0.67785   0.89218   0.30725   0.00000  Uiso   1.00
C1294  C     0.00044   0.75423   0.06228   0.00000  Uiso   1.00
C1295  C     0.95871   0.74576   0.08251   0.00000  Uiso   1.00
C1296  C     0.59070   0.09988   0.40790   0.00000  Uiso   1.00
C1297  C     0.52364   0.12543   0.40559   0.00000  Uiso   1.00
C1298  C     0.10022   0.78729   0.06363   0.00000  Uiso   1.00
C1299  C     0.14239   0.80663   0.08501   0.00000  Uiso   1.00
C1300  C     0.19171   0.85527   0.07821   0.00000  Uiso   1.00
C1301  C     0.27958   0.93215   0.07800   0.00000  Uiso   1.00
C1302  C     0.05558   0.78702   0.01634   0.00000  Uiso   1.00
C1303  C     0.04371   0.72741   0.01185   0.00000  Uiso   1.00
C1304  C     0.70637   0.03525   0.31768   0.00000  Uiso   1.00
C1305  C     0.69526   0.98045   0.31835   0.00000  Uiso   1.00
C1306  C     0.00729   0.78247   0.03507   0.00000  Uiso   1.00
C1307  C     0.63933   0.13662   0.36042   0.00000  Uiso   1.00
C1308  C     0.59756   0.12817   0.38064   0.00000  Uiso   1.00
C1309  C     0.10707   0.81554   0.03642   0.00000  Uiso   1.00
C1310  C     0.15634   0.86415   0.02959   0.00000  Uiso   1.00
C1311  C     0.19858   0.88356   0.05095   0.00000  Uiso   1.00
H1312  H     0.03762   0.71303   0.08762   0.00000  Uiso   1.00
H1313  H     0.02044   0.62255   0.06083   0.00000  Uiso   1.00
H1314  H     0.95342   0.72390   0.10357   0.00000  Uiso   1.00
H1315  H     0.13707   0.78476   0.10606   0.00000  Uiso   1.00
H1316  H     0.67106   0.86801   0.35248   0.00000  Uiso   1.00
H1317  H     0.52976   0.08174   0.44259   0.00000  Uiso   1.00
H1318  H     0.25035   0.87674   0.11452   0.00000  Uiso   1.00
H1319  H     0.06091   0.80901   0.99515   0.00000  Uiso   1.00
H1320  H     0.71168   0.05712   0.29663   0.00000  Uiso   1.00
H1321  H     0.64465   0.15847   0.33936   0.00000  Uiso   1.00
H1322  H     0.16163   0.88600   0.00853   0.00000  Uiso   1.00
H1323  H     0.69100   0.95018   0.27331   0.00000  Uiso   1.00
H1324  H     0.54969   0.16391   0.36342   0.00000  Uiso   1.00
H1325  H     0.27028   0.95891   0.03535   0.00000  Uiso   1.00
O1326  O     0.67013   0.85129   0.29360   0.00000  Uiso   1.00
O1327  O     0.48475   0.13171   0.41183   0.00000  Uiso   1.00
O1328  O     0.32615   0.96675   0.08541   0.00000  Uiso   1.00
N1329  N     0.67795   0.89905   0.33822   0.00000  Uiso   1.00
N1330  N     0.54583   0.09886   0.42246   0.00000  Uiso   1.00
N1331  N     0.24121   0.88552   0.09406   0.00000  Uiso   1.00
N1332  N     0.68868   0.94326   0.29562   0.00000  Uiso   1.00
N1333  N     0.55656   0.14308   0.37986   0.00000  Uiso   1.00
N1334  N     0.25194   0.92974   0.05146   0.00000  Uiso   1.00
C1335  C     0.45745   0.04909   0.17087   0.00000  Uiso   1.00
C1336  C     0.44650   0.08661   0.15022   0.00000  Uiso   1.00
C1337  C     0.42510   0.12032   0.15903   0.00000  Uiso   1.00
C1338  C     0.08482   0.48482   0.47008   0.00000  Uiso   1.00
C1339  C     0.06567   0.54343   0.44258   0.00000  Uiso   1.00
C1340  C     0.42456   0.99048   0.15767   0.00000  Uiso   1.00
C1341  C     0.38472   0.94338   0.17276   0.00000  Uiso   1.00
C1342  C     0.35931   0.89363   0.15675   0.00000  Uiso   1.00
C1343  C     0.30613   0.80299   0.14084   0.00000  Uiso   1.00
C1344  C     0.51890   0.06703   0.16683   0.00000  Uiso   1.00
C1345  C     0.55840   0.08427   0.18962   0.00000  Uiso   1.00
C1346  C     0.61242   0.09895   0.18132   0.00000  Uiso   1.00
C1347  C     0.70572   0.12717   0.17962   0.00000  Uiso   1.00
C1348  C     0.48316   0.04449   0.11560   0.00000  Uiso   1.00
C1349  C     0.46046   0.08410   0.12020   0.00000  Uiso   1.00
C1350  C     0.12022   0.44856   0.43123   0.00000  Uiso   1.00
C1351  C     0.09882   0.48232   0.44001   0.00000  Uiso   1.00
C1352  C     0.43852   0.98798   0.12766   0.00000  Uiso   1.00
C1353  C     0.41317   0.93828   0.11162   0.00000  Uiso   1.00
C1354  C     0.37331   0.89112   0.12668   0.00000  Uiso   1.00
C1355  C     0.53287   0.06453   0.13682   0.00000  Uiso   1.00
C1356  C     0.58684   0.07918   0.12848   0.00000  Uiso   1.00
C1357  C     0.62641   0.09645   0.15125   0.00000  Uiso   1.00
H1358  H     0.44657   0.05104   0.19423   0.00000  Uiso   1.00
H1359  H     0.41429   0.12224   0.18227   0.00000  Uiso   1.00
H1360  H     0.37393   0.94533   0.19599   0.00000  Uiso   1.00
H1361  H     0.54757   0.08621   0.21284   0.00000  Uiso   1.00
H1362  H     0.05132   0.53340   0.48909   0.00000  Uiso   1.00
H1363  H     0.29954   0.82703   0.18470   0.00000  Uiso   1.00
H1364  H     0.66571   0.12409   0.22024   0.00000  Uiso   1.00
H1365  H     0.49403   0.04253   0.09223   0.00000  Uiso   1.00
H1366  H     0.13103   0.44661   0.40800   0.00000  Uiso   1.00
H1367  H     0.42399   0.93636   0.08839   0.00000  Uiso   1.00
H1368  H     0.59764   0.07724   0.10525   0.00000  Uiso   1.00
H1369  H     0.09195   0.52612   0.40176   0.00000  Uiso   1.00
H1370  H     0.34018   0.81975   0.09737   0.00000  Uiso   1.00
H1371  H     0.70634   0.11681   0.13291   0.00000  Uiso   1.00
O1372  O     0.05124   0.57644   0.43571   0.00000  Uiso   1.00
O1373  O     0.27293   0.75369   0.14035   0.00000  Uiso   1.00
O1374  O     0.75333   0.14343   0.18698   0.00000  Uiso   1.00
N1375  N     0.06496   0.52199   0.47095   0.00000  Uiso   1.00
N1376  N     0.31872   0.83989   0.16468   0.00000  Uiso   1.00
N1377  N     0.66105   0.11760   0.19790   0.00000  Uiso   1.00
N1378  N     0.08683   0.51807   0.42396   0.00000  Uiso   1.00
N1379  N     0.34059   0.83597   0.11768   0.00000  Uiso   1.00
N1380  N     0.68292   0.11369   0.15091   0.00000  Uiso   1.00
C1381  C     0.93165   0.64127   0.39977   0.00000  Uiso   1.00
C1382  C     0.96750   0.67103   0.37239   0.00000  Uiso   1.00
C1383  C     0.02227   0.71469   0.37311   0.00000  Uiso   1.00
C1384  C     0.04784   0.73623   0.34561   0.00000  Uiso   1.00
C1385  C     0.77449   0.11900   0.64058   0.00000  Uiso   1.00
C1386  C     0.91244   0.57954   0.39561   0.00000  Uiso   1.00
C1387  C     0.92091   0.54629   0.41585   0.00000  Uiso   1.00
C1388  C     0.56679   0.82415   0.74123   0.00000  Uiso   1.00
C1389  C     0.54124   0.73154   0.73892   0.00000  Uiso   1.00
C1390  C     0.87937   0.64626   0.39697   0.00000  Uiso   1.00
C1391  C     0.86004   0.66909   0.41835   0.00000  Uiso   1.00
C1392  C     0.81140   0.66978   0.41154   0.00000  Uiso   1.00
C1393  C     0.73452   0.68077   0.41134   0.00000  Uiso   1.00
C1394  C     0.87965   0.60189   0.34967   0.00000  Uiso   1.00
C1395  C     0.93926   0.64963   0.34518   0.00000  Uiso   1.00
C1396  C     0.63141   0.00445   0.65102   0.00000  Uiso   1.00
C1397  C     0.68622   0.04814   0.65169   0.00000  Uiso   1.00
C1398  C     0.88419   0.55815   0.36840   0.00000  Uiso   1.00
C1399  C     0.53005   0.83605   0.69375   0.00000  Uiso   1.00
C1400  C     0.53849   0.80272   0.71397   0.00000  Uiso   1.00
C1401  C     0.85113   0.62487   0.36976   0.00000  Uiso   1.00
C1402  C     0.80251   0.62552   0.36292   0.00000  Uiso   1.00
C1403  C     0.78311   0.64835   0.38428   0.00000  Uiso   1.00
H1404  H     0.95363   0.65792   0.42095   0.00000  Uiso   1.00
H1405  H     0.04412   0.73123   0.39417   0.00000  Uiso   1.00
H1406  H     0.94276   0.56285   0.43690   0.00000  Uiso   1.00
H1407  H     0.88190   0.68564   0.43940   0.00000  Uiso   1.00
H1408  H     0.79866   0.13639   0.68581   0.00000  Uiso   1.00
H1409  H     0.58493   0.78135   0.77592   0.00000  Uiso   1.00
H1410  H     0.78992   0.70693   0.44785   0.00000  Uiso   1.00
H1411  H     0.85766   0.58524   0.32849   0.00000  Uiso   1.00
H1412  H     0.60955   0.98789   0.62996   0.00000  Uiso   1.00
H1413  H     0.50819   0.81951   0.67270   0.00000  Uiso   1.00
H1414  H     0.78067   0.60897   0.34186   0.00000  Uiso   1.00
H1415  H     0.71649   0.07416   0.60664   0.00000  Uiso   1.00
H1416  H     0.50276   0.71912   0.69676   0.00000  Uiso   1.00
H1417  H     0.70776   0.64471   0.36869   0.00000  Uiso   1.00
O1418  O     0.81537   0.15217   0.62694   0.00000  Uiso   1.00
O1419  O     0.53496   0.68638   0.74516   0.00000  Uiso   1.00
O1420  O     0.69992   0.69274   0.41874   0.00000  Uiso   1.00
N1421  N     0.76762   0.11224   0.67155   0.00000  Uiso   1.00
N1422  N     0.56780   0.78030   0.75579   0.00000  Uiso   1.00
N1423  N     0.78114   0.68902   0.42739   0.00000  Uiso   1.00
N1424  N     0.72341   0.07875   0.62895   0.00000  Uiso   1.00
N1425  N     0.52359   0.74681   0.71320   0.00000  Uiso   1.00
N1426  N     0.73693   0.65553   0.38479   0.00000  Uiso   1.00
C1427  C     0.61757   0.74169   0.50420   0.00000  Uiso   1.00
C1428  C     0.58006   0.69322   0.48355   0.00000  Uiso   1.00
C1429  C     0.54634   0.63811   0.49237   0.00000  Uiso   1.00
C1430  C     0.18185   0.93334   0.80341   0.00000  Uiso   1.00
C1431  C     0.12324   0.85558   0.77591   0.00000  Uiso   1.00
C1432  C     0.67618   0.76741   0.49101   0.00000  Uiso   1.00
C1433  C     0.72329   0.77467   0.50610   0.00000  Uiso   1.00
C1434  C     0.77304   0.79902   0.49008   0.00000  Uiso   1.00
C1435  C     0.86367   0.83647   0.47417   0.00000  Uiso   1.00
C1436  C     0.59964   0.78521   0.50017   0.00000  Uiso   1.00
C1437  C     0.58239   0.80745   0.52295   0.00000  Uiso   1.00
C1438  C     0.56771   0.84680   0.51465   0.00000  Uiso   1.00
C1439  C     0.53950   0.91188   0.51295   0.00000  Uiso   1.00
C1440  C     0.62218   0.77201   0.44894   0.00000  Uiso   1.00
C1441  C     0.58257   0.70969   0.45354   0.00000  Uiso   1.00
C1442  C     0.21811   0.00499   0.76456   0.00000  Uiso   1.00
C1443  C     0.18435   0.94984   0.77334   0.00000  Uiso   1.00
C1444  C     0.67869   0.78388   0.46099   0.00000  Uiso   1.00
C1445  C     0.72838   0.80822   0.44495   0.00000  Uiso   1.00
C1446  C     0.77555   0.81552   0.46001   0.00000  Uiso   1.00
C1447  C     0.60214   0.80168   0.47015   0.00000  Uiso   1.00
C1448  C     0.58749   0.84100   0.46181   0.00000  Uiso   1.00
C1449  C     0.57022   0.86330   0.48458   0.00000  Uiso   1.00
H1450  H     0.61563   0.72887   0.52757   0.00000  Uiso   1.00
H1451  H     0.54442   0.62538   0.51560   0.00000  Uiso   1.00
H1452  H     0.72134   0.76193   0.52932   0.00000  Uiso   1.00
H1453  H     0.58046   0.79470   0.54618   0.00000  Uiso   1.00
H1454  H     0.13326   0.85125   0.82242   0.00000  Uiso   1.00
H1455  H     0.83963   0.80584   0.51803   0.00000  Uiso   1.00
H1456  H     0.54257   0.87495   0.55357   0.00000  Uiso   1.00
H1457  H     0.62413   0.78483   0.42557   0.00000  Uiso   1.00
H1458  H     0.22006   0.01775   0.74133   0.00000  Uiso   1.00
H1459  H     0.73031   0.82096   0.42173   0.00000  Uiso   1.00
H1460  H     0.58943   0.85373   0.43858   0.00000  Uiso   1.00
H1461  H     0.14054   0.89916   0.73509   0.00000  Uiso   1.00
H1462  H     0.84692   0.85376   0.43070   0.00000  Uiso   1.00
H1463  H     0.54985   0.92286   0.46624   0.00000  Uiso   1.00
O1464  O     0.09023   0.80813   0.76904   0.00000  Uiso   1.00
O1465  O     0.91297   0.85257   0.47368   0.00000  Uiso   1.00
O1466  O     0.52323   0.94323   0.52031   0.00000  Uiso   1.00
N1467  N     0.14468   0.87630   0.80428   0.00000  Uiso   1.00
N1468  N     0.82678   0.81216   0.49801   0.00000  Uiso   1.00
N1469  N     0.54906   0.87678   0.53124   0.00000  Uiso   1.00
N1470  N     0.14859   0.90209   0.75729   0.00000  Uiso   1.00
N1471  N     0.83069   0.83794   0.45102   0.00000  Uiso   1.00
N1472  N     0.55298   0.90256   0.48424   0.00000  Uiso   1.00
C1473  C     0.59831   0.97461   0.73310   0.00000  Uiso   1.00
C1474  C     0.63417   0.00436   0.70573   0.00000  Uiso   1.00
C1475  C     0.68894   0.04802   0.70644   0.00000  Uiso   1.00
C1476  C     0.71451   0.06957   0.67895   0.00000  Uiso   1.00
C1477  C     0.44115   0.45233   0.97392   0.00000  Uiso   1.00
C1478  C     0.57910   0.91287   0.72894   0.00000  Uiso   1.00
C1479  C     0.58758   0.87962   0.74918   0.00000  Uiso   1.00
C1480  C     0.23345   0.15748   0.07456   0.00000  Uiso   1.00
C1481  C     0.20791   0.06488   0.07225   0.00000  Uiso   1.00
C1482  C     0.54604   0.97959   0.73030   0.00000  Uiso   1.00
C1483  C     0.52670   0.00242   0.75168   0.00000  Uiso   1.00
C1484  C     0.47807   0.00311   0.74487   0.00000  Uiso   1.00
C1485  C     0.40119   0.01410   0.74467   0.00000  Uiso   1.00
C1486  C     0.54632   0.93523   0.68300   0.00000  Uiso   1.00
C1487  C     0.60592   0.98297   0.67852   0.00000  Uiso   1.00
C1488  C     0.29808   0.33779   0.98435   0.00000  Uiso   1.00
C1489  C     0.35289   0.38148   0.98502   0.00000  Uiso   1.00
C1490  C     0.55086   0.89148   0.70173   0.00000  Uiso   1.00
C1491  C     0.19672   0.16938   0.02709   0.00000  Uiso   1.00
C1492  C     0.20516   0.13605   0.04731   0.00000  Uiso   1.00
C1493  C     0.51780   0.95820   0.70309   0.00000  Uiso   1.00
C1494  C     0.46918   0.95886   0.69625   0.00000  Uiso   1.00
C1495  C     0.44977   0.98168   0.71762   0.00000  Uiso   1.00
H1496  H     0.62030   0.99126   0.75428   0.00000  Uiso   1.00
H1497  H     0.71079   0.06456   0.72750   0.00000  Uiso   1.00
H1498  H     0.60943   0.89618   0.77023   0.00000  Uiso   1.00
H1499  H     0.54857   0.01897   0.77273   0.00000  Uiso   1.00
H1500  H     0.46532   0.46972   0.01914   0.00000  Uiso   1.00
H1501  H     0.25159   0.11468   0.10925   0.00000  Uiso   1.00
H1502  H     0.45659   0.04027   0.78119   0.00000  Uiso   1.00
H1503  H     0.52433   0.91857   0.66182   0.00000  Uiso   1.00
H1504  H     0.27622   0.32122   0.96330   0.00000  Uiso   1.00
H1505  H     0.17486   0.15285   0.00603   0.00000  Uiso   1.00
H1506  H     0.44733   0.94230   0.67519   0.00000  Uiso   1.00
H1507  H     0.38316   0.40749   0.93998   0.00000  Uiso   1.00
H1508  H     0.16943   0.05245   0.03009   0.00000  Uiso   1.00
H1509  H     0.37442   0.97804   0.70202   0.00000  Uiso   1.00
O1510  O     0.48204   0.48550   0.96027   0.00000  Uiso   1.00
O1511  O     0.20162   0.01971   0.07850   0.00000  Uiso   1.00
O1512  O     0.36659   0.02607   0.75207   0.00000  Uiso   1.00
N1513  N     0.43429   0.44557   0.00488   0.00000  Uiso   1.00
N1514  N     0.23447   0.11363   0.08913   0.00000  Uiso   1.00
N1515  N     0.44781   0.02235   0.76072   0.00000  Uiso   1.00
N1516  N     0.39007   0.41208   0.96228   0.00000  Uiso   1.00
N1517  N     0.19026   0.08015   0.04653   0.00000  Uiso   1.00
N1518  N     0.40360   0.98887   0.71813   0.00000  Uiso   1.00
C1519  C     0.28424   0.07502   0.83753   0.00000  Uiso   1.00
C1520  C     0.24673   0.02656   0.81689   0.00000  Uiso   1.00
C1521  C     0.21301   0.97145   0.82570   0.00000  Uiso   1.00
C1522  C     0.84851   0.26667   0.13674   0.00000  Uiso   1.00
C1523  C     0.78991   0.18891   0.10925   0.00000  Uiso   1.00
C1524  C     0.34285   0.10074   0.82434   0.00000  Uiso   1.00
C1525  C     0.38995   0.10801   0.83943   0.00000  Uiso   1.00
C1526  C     0.43971   0.13235   0.82341   0.00000  Uiso   1.00
C1527  C     0.53034   0.16980   0.80750   0.00000  Uiso   1.00
C1528  C     0.26630   0.11854   0.83350   0.00000  Uiso   1.00
C1529  C     0.24906   0.14079   0.85629   0.00000  Uiso   1.00
C1530  C     0.23438   0.18013   0.84798   0.00000  Uiso   1.00
C1531  C     0.20616   0.24522   0.84629   0.00000  Uiso   1.00
C1532  C     0.28885   0.10534   0.78227   0.00000  Uiso   1.00
C1533  C     0.24923   0.04303   0.78687   0.00000  Uiso   1.00
C1534  C     0.88478   0.33833   0.09789   0.00000  Uiso   1.00
C1535  C     0.85102   0.28317   0.10667   0.00000  Uiso   1.00
C1536  C     0.34535   0.11721   0.79433   0.00000  Uiso   1.00
C1537  C     0.39505   0.14155   0.77829   0.00000  Uiso   1.00
C1538  C     0.44221   0.14885   0.79334   0.00000  Uiso   1.00
C1539  C     0.26881   0.13501   0.80348   0.00000  Uiso   1.00
C1540  C     0.25415   0.17433   0.79514   0.00000  Uiso   1.00
C1541  C     0.23689   0.19663   0.81791   0.00000  Uiso   1.00
H1542  H     0.28229   0.06220   0.86090   0.00000  Uiso   1.00
H1543  H     0.21109   0.95872   0.84893   0.00000  Uiso   1.00
H1544  H     0.38800   0.09526   0.86266   0.00000  Uiso   1.00
H1545  H     0.24713   0.12803   0.87951   0.00000  Uiso   1.00
H1546  H     0.79993   0.18458   0.15576   0.00000  Uiso   1.00
H1547  H     0.50630   0.13918   0.85137   0.00000  Uiso   1.00
H1548  H     0.20924   0.20828   0.88691   0.00000  Uiso   1.00
H1549  H     0.29080   0.11816   0.75890   0.00000  Uiso   1.00
H1550  H     0.88672   0.35108   0.07467   0.00000  Uiso   1.00
H1551  H     0.39697   0.15430   0.75506   0.00000  Uiso   1.00
H1552  H     0.25610   0.18707   0.77191   0.00000  Uiso   1.00
H1553  H     0.80721   0.23249   0.06842   0.00000  Uiso   1.00
H1554  H     0.51358   0.18709   0.76404   0.00000  Uiso   1.00
H1555  H     0.21652   0.25620   0.79958   0.00000  Uiso   1.00
O1556  O     0.75689   0.14147   0.10237   0.00000  Uiso   1.00
O1557  O     0.57964   0.18590   0.80702   0.00000  Uiso   1.00
O1558  O     0.18990   0.27656   0.85364   0.00000  Uiso   1.00
N1559  N     0.81134   0.20964   0.13761   0.00000  Uiso   1.00
N1560  N     0.49344   0.14550   0.83134   0.00000  Uiso   1.00
N1561  N     0.21573   0.21011   0.86457   0.00000  Uiso   1.00
N1562  N     0.81526   0.23542   0.09062   0.00000  Uiso   1.00
N1563  N     0.49736   0.17128   0.78435   0.00000  Uiso   1.00
N1564  N     0.21965   0.23590   0.81758   0.00000  Uiso   1.00
C1565  C     0.26498   0.30794   0.06643   0.00000  Uiso   1.00
C1566  C     0.30083   0.33769   0.03906   0.00000  Uiso   1.00
C1567  C     0.35561   0.38136   0.03977   0.00000  Uiso   1.00
C1568  C     0.38118   0.40290   0.01228   0.00000  Uiso   1.00
C1569  C     0.10782   0.78567   0.30725   0.00000  Uiso   1.00
C1570  C     0.24577   0.24621   0.06228   0.00000  Uiso   1.00
C1571  C     0.25424   0.21295   0.08251   0.00000  Uiso   1.00
C1572  C     0.90012   0.49082   0.40790   0.00000  Uiso   1.00
C1573  C     0.87457   0.39821   0.40559   0.00000  Uiso   1.00
C1574  C     0.21271   0.31293   0.06363   0.00000  Uiso   1.00
C1575  C     0.19337   0.33576   0.08501   0.00000  Uiso   1.00
C1576  C     0.14473   0.33645   0.07821   0.00000  Uiso   1.00
C1577  C     0.06785   0.34743   0.07800   0.00000  Uiso   1.00
C1578  C     0.21298   0.26856   0.01634   0.00000  Uiso   1.00
C1579  C     0.27259   0.31630   0.01185   0.00000  Uiso   1.00
C1580  C     0.96475   0.67112   0.31768   0.00000  Uiso   1.00
C1581  C     0.01955   0.71481   0.31835   0.00000  Uiso   1.00
C1582  C     0.21753   0.22482   0.03507   0.00000  Uiso   1.00
C1583  C     0.86338   0.50272   0.36042   0.00000  Uiso   1.00
C1584  C     0.87183   0.46939   0.38064   0.00000  Uiso   1.00
C1585  C     0.18446   0.29154   0.03642   0.00000  Uiso   1.00
C1586  C     0.13585   0.29219   0.02959   0.00000  Uiso   1.00
C1587  C     0.11644   0.31502   0.05095   0.00000  Uiso   1.00
H1588  H     0.28697   0.32459   0.08762   0.00000  Uiso   1.00
H1589  H     0.37745   0.39789   0.06083   0.00000  Uiso   1.00
H1590  H     0.27610   0.22952   0.10357   0.00000  Uiso   1.00
H1591  H     0.21524   0.35230   0.10606   0.00000  Uiso   1.00
H1592  H     0.13199   0.80305   0.35248   0.00000  Uiso   1.00
H1593  H     0.91826   0.44802   0.44259   0.00000  Uiso   1.00
H1594  H     0.12326   0.37360   0.11452   0.00000  Uiso   1.00
H1595  H     0.19099   0.25190   0.99515   0.00000  Uiso   1.00
H1596  H     0.94288   0.65456   0.29663   0.00000  Uiso   1.00
H1597  H     0.84153   0.48618   0.33936   0.00000  Uiso   1.00
H1598  H     0.11400   0.27563   0.00853   0.00000  Uiso   1.00
H1599  H     0.04982   0.74082   0.27331   0.00000  Uiso   1.00
H1600  H     0.83609   0.38578   0.36342   0.00000  Uiso   1.00
H1601  H     0.04109   0.31137   0.03535   0.00000  Uiso   1.00
O1602  O     0.14871   0.81884   0.29360   0.00000  Uiso   1.00
O1603  O     0.86829   0.35304   0.41183   0.00000  Uiso   1.00
O1604  O     0.03325   0.35941   0.08541   0.00000  Uiso   1.00
N1605  N     0.10095   0.77890   0.33822   0.00000  Uiso   1.00
N1606  N     0.90114   0.44697   0.42246   0.00000  Uiso   1.00
N1607  N     0.11448   0.35569   0.09406   0.00000  Uiso   1.00
N1608  N     0.05674   0.74542   0.29562   0.00000  Uiso   1.00
N1609  N     0.85692   0.41348   0.37986   0.00000  Uiso   1.00
N1610  N     0.07026   0.32220   0.05146   0.00000  Uiso   1.00
C1611  C     0.95091   0.40835   0.17087   0.00000  Uiso   1.00
C1612  C     0.91339   0.35989   0.15022   0.00000  Uiso   1.00
C1613  C     0.87968   0.30478   0.15903   0.00000  Uiso   1.00
C1614  C     0.51518   0.60000   0.47008   0.00000  Uiso   1.00
C1615  C     0.45657   0.52224   0.44258   0.00000  Uiso   1.00
C1616  C     0.00952   0.43407   0.15767   0.00000  Uiso   1.00
C1617  C     0.05662   0.44134   0.17276   0.00000  Uiso   1.00
C1618  C     0.10637   0.46569   0.15675   0.00000  Uiso   1.00
C1619  C     0.19701   0.50313   0.14084   0.00000  Uiso   1.00
C1620  C     0.93297   0.45187   0.16683   0.00000  Uiso   1.00
C1621  C     0.91573   0.47412   0.18962   0.00000  Uiso   1.00
C1622  C     0.90105   0.51346   0.18132   0.00000  Uiso   1.00
C1623  C     0.87283   0.57855   0.17962   0.00000  Uiso   1.00
C1624  C     0.95551   0.43867   0.11560   0.00000  Uiso   1.00
C1625  C     0.91590   0.37636   0.12020   0.00000  Uiso   1.00
C1626  C     0.55144   0.67166   0.43123   0.00000  Uiso   1.00
C1627  C     0.51768   0.61650   0.44001   0.00000  Uiso   1.00
C1628  C     0.01202   0.45054   0.12766   0.00000  Uiso   1.00
C1629  C     0.06172   0.47489   0.11162   0.00000  Uiso   1.00
C1630  C     0.10888   0.48219   0.12668   0.00000  Uiso   1.00
C1631  C     0.93547   0.46834   0.13682   0.00000  Uiso   1.00
C1632  C     0.92082   0.50766   0.12848   0.00000  Uiso   1.00
C1633  C     0.90355   0.52996   0.15125   0.00000  Uiso   1.00
H1634  H     0.94896   0.39553   0.19423   0.00000  Uiso   1.00
H1635  H     0.87776   0.29205   0.18227   0.00000  Uiso   1.00
H1636  H     0.05467   0.42860   0.19599   0.00000  Uiso   1.00
H1637  H     0.91379   0.46137   0.21284   0.00000  Uiso   1.00
H1638  H     0.46660   0.51791   0.48909   0.00000  Uiso   1.00
H1639  H     0.17297   0.47251   0.18470   0.00000  Uiso   1.00
H1640  H     0.87591   0.54162   0.22024   0.00000  Uiso   1.00
H1641  H     0.95747   0.45150   0.09223   0.00000  Uiso   1.00
H1642  H     0.55339   0.68442   0.40800   0.00000  Uiso   1.00
H1643  H     0.06364   0.48763   0.08839   0.00000  Uiso   1.00
H1644  H     0.92276   0.52040   0.10525   0.00000  Uiso   1.00
H1645  H     0.47388   0.56583   0.40176   0.00000  Uiso   1.00
H1646  H     0.18025   0.52043   0.09737   0.00000  Uiso   1.00
H1647  H     0.88319   0.58953   0.13291   0.00000  Uiso   1.00
O1648  O     0.42356   0.47480   0.43571   0.00000  Uiso   1.00
O1649  O     0.24631   0.51923   0.14035   0.00000  Uiso   1.00
O1650  O     0.85657   0.60989   0.18698   0.00000  Uiso   1.00
N1651  N     0.47801   0.54297   0.47095   0.00000  Uiso   1.00
N1652  N     0.16011   0.47883   0.16468   0.00000  Uiso   1.00
N1653  N     0.88240   0.54345   0.19790   0.00000  Uiso   1.00
N1654  N     0.48193   0.56875   0.42396   0.00000  Uiso   1.00
N1655  N     0.16403   0.50461   0.11768   0.00000  Uiso   1.00
N1656  N     0.88631   0.56923   0.15091   0.00000  Uiso   1.00
