data_job_01479
_audit_creation_date              2018-12-19
_audit_creation_method            'Materials Studio'
_symmetry_space_group_name_H-M    'P1'
_symmetry_Int_Tables_number       1
_symmetry_cell_setting            triclinic
loop_
_symmetry_equiv_pos_as_xyz
  x,y,z
_cell_length_a                    40.6708
_cell_length_b                    10.4733
_cell_length_c                    22.4239
_cell_angle_alpha                 90.0000
_cell_angle_beta                  90.0000
_cell_angle_gamma                 90.0000
loop_
_atom_site_label
_atom_site_type_symbol
_atom_site_fract_x
_atom_site_fract_y
_atom_site_fract_z
_atom_site_U_iso_or_equiv
_atom_site_adp_type
_atom_site_occupancy
C1     C     0.18752   0.30908   0.17611   0.00000  Uiso   1.00
C2     C     0.15279   0.35982   0.16635   0.00000  Uiso   1.00
C3     C     0.14409   0.45836   0.12810   0.00000  Uiso   1.00
C4     C     0.11101   0.49061   0.12552   0.00000  Uiso   1.00
C5     C     0.06066   0.57918   0.10515   0.00000  Uiso   1.00
C6     C     0.19406   0.32010   0.24288   0.00000  Uiso   1.00
C7     C     0.22007   0.38522   0.26897   0.00000  Uiso   1.00
C8     C     0.22173   0.38402   0.33081   0.00000  Uiso   1.00
C9     C     0.23547   0.41084   0.42924   0.00000  Uiso   1.00
C10    C     0.18605   0.16651   0.16259   0.00000  Uiso   1.00
C11    C     0.20532   0.10249   0.12118   0.00000  Uiso   1.00
C12    C     0.20025   0.97197   0.11543   0.00000  Uiso   1.00
C13    C     0.20155   0.76033   0.08920   0.00000  Uiso   1.00
C14    C     0.14424   0.19113   0.23954   0.00000  Uiso   1.00
C15    C     0.12928   0.29575   0.20081   0.00000  Uiso   1.00
C16    C     0.09621   0.32786   0.19828   0.00000  Uiso   1.00
C17    C     0.08746   0.42643   0.16004   0.00000  Uiso   1.00
C18    C     0.17056   0.25603   0.27733   0.00000  Uiso   1.00
C19    C     0.17218   0.25472   0.33915   0.00000  Uiso   1.00
C20    C     0.19818   0.31984   0.36533   0.00000  Uiso   1.00
C21    C     0.16254   0.10244   0.19704   0.00000  Uiso   1.00
C22    C     0.15744   0.97199   0.19136   0.00000  Uiso   1.00
C23    C     0.17670   0.90779   0.14995   0.00000  Uiso   1.00
H24    H     0.20582   0.35896   0.14929   0.00000  Uiso   1.00
H25    H     0.16229   0.50793   0.10145   0.00000  Uiso   1.00
H26    H     0.23826   0.43478   0.24230   0.00000  Uiso   1.00
H27    H     0.22351   0.15210   0.09453   0.00000  Uiso   1.00
H28    H     0.10366   0.64485   0.06362   0.00000  Uiso   1.00
H29    H     0.26385   0.49060   0.36060   0.00000  Uiso   1.00
H30    H     0.23276   0.89450   0.04900   0.00000  Uiso   1.00
H31    H     0.12594   0.14125   0.26637   0.00000  Uiso   1.00
H32    H     0.07802   0.27826   0.22495   0.00000  Uiso   1.00
H33    H     0.15399   0.20513   0.36580   0.00000  Uiso   1.00
H34    H     0.13925   0.92244   0.21803   0.00000  Uiso   1.00
H35    H     0.03527   0.45845   0.16386   0.00000  Uiso   1.00
H36    H     0.19545   0.30420   0.46084   0.00000  Uiso   1.00
H37    H     0.16436   0.70810   0.14924   0.00000  Uiso   1.00
O38    O     0.03939   0.64574   0.08440   0.00000  Uiso   1.00
O39    O     0.24955   0.44335   0.47401   0.00000  Uiso   1.00
O40    O     0.20876   0.66129   0.06521   0.00000  Uiso   1.00
N41    N     0.09414   0.58216   0.09289   0.00000  Uiso   1.00
N42    N     0.24390   0.43796   0.37054   0.00000  Uiso   1.00
N43    N     0.21484   0.88066   0.07924   0.00000  Uiso   1.00
N44    N     0.05734   0.48186   0.14682   0.00000  Uiso   1.00
N45    N     0.20710   0.33766   0.42448   0.00000  Uiso   1.00
N46    N     0.17804   0.78036   0.13317   0.00000  Uiso   1.00
C47    C     0.18752   0.80908   0.67611   0.00000  Uiso   1.00
C48    C     0.15279   0.85982   0.66635   0.00000  Uiso   1.00
C49    C     0.14409   0.95836   0.62810   0.00000  Uiso   1.00
C50    C     0.11101   0.99061   0.62552   0.00000  Uiso   1.00
C51    C     0.06066   0.07918   0.60515   0.00000  Uiso   1.00
C52    C     0.19406   0.82010   0.74288   0.00000  Uiso   1.00
C53    C     0.22007   0.88522   0.76897   0.00000  Uiso   1.00
C54    C     0.22173   0.88402   0.83081   0.00000  Uiso   1.00
C55    C     0.23547   0.91084   0.92924   0.00000  Uiso   1.00
C56    C     0.18605   0.66651   0.66259   0.00000  Uiso   1.00
C57    C     0.20532   0.60249   0.62118   0.00000  Uiso   1.00
C58    C     0.20025   0.47197   0.61543   0.00000  Uiso   1.00
C59    C     0.20155   0.26033   0.58920   0.00000  Uiso   1.00
C60    C     0.14424   0.69113   0.73954   0.00000  Uiso   1.00
C61    C     0.12928   0.79575   0.70081   0.00000  Uiso   1.00
C62    C     0.09621   0.82786   0.69828   0.00000  Uiso   1.00
C63    C     0.08746   0.92643   0.66004   0.00000  Uiso   1.00
C64    C     0.17056   0.75603   0.77733   0.00000  Uiso   1.00
C65    C     0.17218   0.75472   0.83915   0.00000  Uiso   1.00
C66    C     0.19818   0.81984   0.86533   0.00000  Uiso   1.00
C67    C     0.16254   0.60244   0.69704   0.00000  Uiso   1.00
C68    C     0.15744   0.47199   0.69136   0.00000  Uiso   1.00
C69    C     0.17670   0.40779   0.64995   0.00000  Uiso   1.00
H70    H     0.20582   0.85896   0.64929   0.00000  Uiso   1.00
H71    H     0.16229   0.00793   0.60145   0.00000  Uiso   1.00
H72    H     0.23826   0.93478   0.74230   0.00000  Uiso   1.00
H73    H     0.22351   0.65210   0.59453   0.00000  Uiso   1.00
H74    H     0.10366   0.14485   0.56362   0.00000  Uiso   1.00
H75    H     0.26385   0.99060   0.86060   0.00000  Uiso   1.00
H76    H     0.23276   0.39450   0.54900   0.00000  Uiso   1.00
H77    H     0.12594   0.64125   0.76637   0.00000  Uiso   1.00
H78    H     0.07802   0.77826   0.72495   0.00000  Uiso   1.00
H79    H     0.15399   0.70513   0.86580   0.00000  Uiso   1.00
H80    H     0.13925   0.42244   0.71803   0.00000  Uiso   1.00
H81    H     0.03527   0.95845   0.66386   0.00000  Uiso   1.00
H82    H     0.19545   0.80420   0.96084   0.00000  Uiso   1.00
H83    H     0.16436   0.20810   0.64924   0.00000  Uiso   1.00
O84    O     0.03939   0.14574   0.58440   0.00000  Uiso   1.00
O85    O     0.24955   0.94335   0.97401   0.00000  Uiso   1.00
O86    O     0.20876   0.16129   0.56521   0.00000  Uiso   1.00
N87    N     0.09414   0.08216   0.59289   0.00000  Uiso   1.00
N88    N     0.24390   0.93796   0.87054   0.00000  Uiso   1.00
N89    N     0.21484   0.38066   0.57924   0.00000  Uiso   1.00
N90    N     0.05734   0.98186   0.64682   0.00000  Uiso   1.00
N91    N     0.20710   0.83766   0.92448   0.00000  Uiso   1.00
N92    N     0.17804   0.28036   0.63317   0.00000  Uiso   1.00
C93    C     0.68752   0.30908   0.67611   0.00000  Uiso   1.00
C94    C     0.65279   0.35982   0.66635   0.00000  Uiso   1.00
C95    C     0.64409   0.45836   0.62810   0.00000  Uiso   1.00
C96    C     0.61101   0.49061   0.62552   0.00000  Uiso   1.00
C97    C     0.56066   0.57918   0.60515   0.00000  Uiso   1.00
C98    C     0.69406   0.32010   0.74288   0.00000  Uiso   1.00
C99    C     0.72007   0.38522   0.76897   0.00000  Uiso   1.00
C100   C     0.72173   0.38402   0.83081   0.00000  Uiso   1.00
C101   C     0.73547   0.41084   0.92924   0.00000  Uiso   1.00
C102   C     0.68605   0.16651   0.66259   0.00000  Uiso   1.00
C103   C     0.70532   0.10249   0.62118   0.00000  Uiso   1.00
C104   C     0.70025   0.97197   0.61543   0.00000  Uiso   1.00
C105   C     0.70155   0.76033   0.58920   0.00000  Uiso   1.00
C106   C     0.64424   0.19113   0.73954   0.00000  Uiso   1.00
C107   C     0.62928   0.29575   0.70081   0.00000  Uiso   1.00
C108   C     0.59621   0.32786   0.69828   0.00000  Uiso   1.00
C109   C     0.58746   0.42643   0.66004   0.00000  Uiso   1.00
C110   C     0.67056   0.25603   0.77733   0.00000  Uiso   1.00
C111   C     0.67218   0.25472   0.83915   0.00000  Uiso   1.00
C112   C     0.69818   0.31984   0.86533   0.00000  Uiso   1.00
C113   C     0.66254   0.10244   0.69704   0.00000  Uiso   1.00
C114   C     0.65744   0.97199   0.69136   0.00000  Uiso   1.00
C115   C     0.67670   0.90779   0.64995   0.00000  Uiso   1.00
H116   H     0.70582   0.35896   0.64929   0.00000  Uiso   1.00
H117   H     0.66229   0.50793   0.60145   0.00000  Uiso   1.00
H118   H     0.73826   0.43478   0.74230   0.00000  Uiso   1.00
H119   H     0.72351   0.15210   0.59453   0.00000  Uiso   1.00
H120   H     0.60366   0.64485   0.56362   0.00000  Uiso   1.00
H121   H     0.76385   0.49060   0.86060   0.00000  Uiso   1.00
H122   H     0.73276   0.89450   0.54900   0.00000  Uiso   1.00
H123   H     0.62594   0.14125   0.76637   0.00000  Uiso   1.00
H124   H     0.57802   0.27826   0.72495   0.00000  Uiso   1.00
H125   H     0.65399   0.20513   0.86580   0.00000  Uiso   1.00
H126   H     0.63925   0.92244   0.71803   0.00000  Uiso   1.00
H127   H     0.53527   0.45845   0.66386   0.00000  Uiso   1.00
H128   H     0.69545   0.30420   0.96084   0.00000  Uiso   1.00
H129   H     0.66436   0.70810   0.64924   0.00000  Uiso   1.00
O130   O     0.53939   0.64574   0.58440   0.00000  Uiso   1.00
O131   O     0.74955   0.44335   0.97401   0.00000  Uiso   1.00
O132   O     0.70876   0.66129   0.56521   0.00000  Uiso   1.00
N133   N     0.59414   0.58216   0.59289   0.00000  Uiso   1.00
N134   N     0.74390   0.43796   0.87054   0.00000  Uiso   1.00
N135   N     0.71484   0.88066   0.57924   0.00000  Uiso   1.00
N136   N     0.55734   0.48186   0.64682   0.00000  Uiso   1.00
N137   N     0.70710   0.33766   0.92448   0.00000  Uiso   1.00
N138   N     0.67804   0.78036   0.63317   0.00000  Uiso   1.00
C139   C     0.68752   0.80908   0.17611   0.00000  Uiso   1.00
C140   C     0.65279   0.85982   0.16635   0.00000  Uiso   1.00
C141   C     0.64409   0.95836   0.12810   0.00000  Uiso   1.00
C142   C     0.61101   0.99061   0.12552   0.00000  Uiso   1.00
C143   C     0.56066   0.07918   0.10515   0.00000  Uiso   1.00
C144   C     0.69406   0.82010   0.24288   0.00000  Uiso   1.00
C145   C     0.72007   0.88522   0.26897   0.00000  Uiso   1.00
C146   C     0.72173   0.88402   0.33081   0.00000  Uiso   1.00
C147   C     0.73547   0.91084   0.42924   0.00000  Uiso   1.00
C148   C     0.68605   0.66651   0.16259   0.00000  Uiso   1.00
C149   C     0.70532   0.60249   0.12118   0.00000  Uiso   1.00
C150   C     0.70025   0.47197   0.11543   0.00000  Uiso   1.00
C151   C     0.70155   0.26033   0.08920   0.00000  Uiso   1.00
C152   C     0.64424   0.69113   0.23954   0.00000  Uiso   1.00
C153   C     0.62928   0.79575   0.20081   0.00000  Uiso   1.00
C154   C     0.59621   0.82786   0.19828   0.00000  Uiso   1.00
C155   C     0.58746   0.92643   0.16004   0.00000  Uiso   1.00
C156   C     0.67056   0.75603   0.27733   0.00000  Uiso   1.00
C157   C     0.67218   0.75472   0.33915   0.00000  Uiso   1.00
C158   C     0.69818   0.81984   0.36533   0.00000  Uiso   1.00
C159   C     0.66254   0.60244   0.19704   0.00000  Uiso   1.00
C160   C     0.65744   0.47199   0.19136   0.00000  Uiso   1.00
C161   C     0.67670   0.40779   0.14995   0.00000  Uiso   1.00
H162   H     0.70582   0.85896   0.14929   0.00000  Uiso   1.00
H163   H     0.66229   0.00793   0.10145   0.00000  Uiso   1.00
H164   H     0.73826   0.93478   0.24230   0.00000  Uiso   1.00
H165   H     0.72351   0.65210   0.09453   0.00000  Uiso   1.00
H166   H     0.60366   0.14485   0.06362   0.00000  Uiso   1.00
H167   H     0.76385   0.99060   0.36060   0.00000  Uiso   1.00
H168   H     0.73276   0.39450   0.04900   0.00000  Uiso   1.00
H169   H     0.62594   0.64125   0.26637   0.00000  Uiso   1.00
H170   H     0.57802   0.77826   0.22495   0.00000  Uiso   1.00
H171   H     0.65399   0.70513   0.36580   0.00000  Uiso   1.00
H172   H     0.63925   0.42244   0.21803   0.00000  Uiso   1.00
H173   H     0.53527   0.95845   0.16386   0.00000  Uiso   1.00
H174   H     0.69545   0.80420   0.46084   0.00000  Uiso   1.00
H175   H     0.66436   0.20810   0.14924   0.00000  Uiso   1.00
O176   O     0.53939   0.14574   0.08440   0.00000  Uiso   1.00
O177   O     0.74955   0.94335   0.47401   0.00000  Uiso   1.00
O178   O     0.70876   0.16129   0.06521   0.00000  Uiso   1.00
N179   N     0.59414   0.08216   0.09289   0.00000  Uiso   1.00
N180   N     0.74390   0.93796   0.37054   0.00000  Uiso   1.00
N181   N     0.71484   0.38066   0.07924   0.00000  Uiso   1.00
N182   N     0.55734   0.98186   0.14682   0.00000  Uiso   1.00
N183   N     0.70710   0.83766   0.42448   0.00000  Uiso   1.00
N184   N     0.67804   0.28036   0.13317   0.00000  Uiso   1.00
C185   C     0.81248   0.69092   0.17611   0.00000  Uiso   1.00
C186   C     0.84721   0.64018   0.16635   0.00000  Uiso   1.00
C187   C     0.85591   0.54164   0.12810   0.00000  Uiso   1.00
C188   C     0.88899   0.50939   0.12552   0.00000  Uiso   1.00
C189   C     0.93934   0.42082   0.10515   0.00000  Uiso   1.00
C190   C     0.80594   0.67990   0.24288   0.00000  Uiso   1.00
C191   C     0.77993   0.61478   0.26897   0.00000  Uiso   1.00
C192   C     0.77827   0.61598   0.33081   0.00000  Uiso   1.00
C193   C     0.76453   0.58916   0.42924   0.00000  Uiso   1.00
C194   C     0.81395   0.83349   0.16259   0.00000  Uiso   1.00
C195   C     0.79468   0.89751   0.12118   0.00000  Uiso   1.00
C196   C     0.79975   0.02803   0.11543   0.00000  Uiso   1.00
C197   C     0.79845   0.23967   0.08920   0.00000  Uiso   1.00
C198   C     0.85576   0.80887   0.23954   0.00000  Uiso   1.00
C199   C     0.87072   0.70425   0.20081   0.00000  Uiso   1.00
C200   C     0.90379   0.67214   0.19828   0.00000  Uiso   1.00
C201   C     0.91254   0.57357   0.16004   0.00000  Uiso   1.00
C202   C     0.82944   0.74397   0.27733   0.00000  Uiso   1.00
C203   C     0.82782   0.74528   0.33915   0.00000  Uiso   1.00
C204   C     0.80182   0.68016   0.36533   0.00000  Uiso   1.00
C205   C     0.83746   0.89756   0.19704   0.00000  Uiso   1.00
C206   C     0.84256   0.02801   0.19136   0.00000  Uiso   1.00
C207   C     0.82330   0.09221   0.14995   0.00000  Uiso   1.00
H208   H     0.79418   0.64104   0.14929   0.00000  Uiso   1.00
H209   H     0.83771   0.49207   0.10145   0.00000  Uiso   1.00
H210   H     0.76174   0.56522   0.24230   0.00000  Uiso   1.00
H211   H     0.77649   0.84790   0.09453   0.00000  Uiso   1.00
H212   H     0.89634   0.35515   0.06362   0.00000  Uiso   1.00
H213   H     0.73615   0.50940   0.36060   0.00000  Uiso   1.00
H214   H     0.76724   0.10550   0.04900   0.00000  Uiso   1.00
H215   H     0.87406   0.85875   0.26637   0.00000  Uiso   1.00
H216   H     0.92198   0.72174   0.22495   0.00000  Uiso   1.00
H217   H     0.84601   0.79487   0.36580   0.00000  Uiso   1.00
H218   H     0.86075   0.07756   0.21803   0.00000  Uiso   1.00
H219   H     0.96473   0.54155   0.16386   0.00000  Uiso   1.00
H220   H     0.80455   0.69580   0.46084   0.00000  Uiso   1.00
H221   H     0.83564   0.29190   0.14924   0.00000  Uiso   1.00
O222   O     0.96061   0.35426   0.08440   0.00000  Uiso   1.00
O223   O     0.75045   0.55665   0.47401   0.00000  Uiso   1.00
O224   O     0.79124   0.33871   0.06521   0.00000  Uiso   1.00
N225   N     0.90586   0.41784   0.09289   0.00000  Uiso   1.00
N226   N     0.75610   0.56204   0.37054   0.00000  Uiso   1.00
N227   N     0.78516   0.11934   0.07924   0.00000  Uiso   1.00
N228   N     0.94266   0.51814   0.14682   0.00000  Uiso   1.00
N229   N     0.79290   0.66234   0.42448   0.00000  Uiso   1.00
N230   N     0.82196   0.21964   0.13317   0.00000  Uiso   1.00
C231   C     0.81248   0.19092   0.67611   0.00000  Uiso   1.00
C232   C     0.84721   0.14018   0.66635   0.00000  Uiso   1.00
C233   C     0.85591   0.04164   0.62810   0.00000  Uiso   1.00
C234   C     0.88899   0.00939   0.62552   0.00000  Uiso   1.00
C235   C     0.93934   0.92082   0.60515   0.00000  Uiso   1.00
C236   C     0.80594   0.17990   0.74288   0.00000  Uiso   1.00
C237   C     0.77993   0.11478   0.76897   0.00000  Uiso   1.00
C238   C     0.77827   0.11598   0.83081   0.00000  Uiso   1.00
C239   C     0.76453   0.08916   0.92924   0.00000  Uiso   1.00
C240   C     0.81395   0.33349   0.66259   0.00000  Uiso   1.00
C241   C     0.79468   0.39751   0.62118   0.00000  Uiso   1.00
C242   C     0.79975   0.52803   0.61543   0.00000  Uiso   1.00
C243   C     0.79845   0.73967   0.58920   0.00000  Uiso   1.00
C244   C     0.85576   0.30887   0.73954   0.00000  Uiso   1.00
C245   C     0.87072   0.20425   0.70081   0.00000  Uiso   1.00
C246   C     0.90379   0.17214   0.69828   0.00000  Uiso   1.00
C247   C     0.91254   0.07357   0.66004   0.00000  Uiso   1.00
C248   C     0.82944   0.24397   0.77733   0.00000  Uiso   1.00
C249   C     0.82782   0.24528   0.83915   0.00000  Uiso   1.00
C250   C     0.80182   0.18016   0.86533   0.00000  Uiso   1.00
C251   C     0.83746   0.39756   0.69704   0.00000  Uiso   1.00
C252   C     0.84256   0.52801   0.69136   0.00000  Uiso   1.00
C253   C     0.82330   0.59221   0.64995   0.00000  Uiso   1.00
H254   H     0.79418   0.14104   0.64929   0.00000  Uiso   1.00
H255   H     0.83771   0.99207   0.60145   0.00000  Uiso   1.00
H256   H     0.76174   0.06522   0.74230   0.00000  Uiso   1.00
H257   H     0.77649   0.34790   0.59453   0.00000  Uiso   1.00
H258   H     0.89634   0.85515   0.56362   0.00000  Uiso   1.00
H259   H     0.73615   0.00940   0.86060   0.00000  Uiso   1.00
H260   H     0.76724   0.60550   0.54900   0.00000  Uiso   1.00
H261   H     0.87406   0.35875   0.76637   0.00000  Uiso   1.00
H262   H     0.92198   0.22174   0.72495   0.00000  Uiso   1.00
H263   H     0.84601   0.29487   0.86580   0.00000  Uiso   1.00
H264   H     0.86075   0.57756   0.71803   0.00000  Uiso   1.00
H265   H     0.96473   0.04155   0.66386   0.00000  Uiso   1.00
H266   H     0.80455   0.19580   0.96084   0.00000  Uiso   1.00
H267   H     0.83564   0.79190   0.64924   0.00000  Uiso   1.00
O268   O     0.96061   0.85426   0.58440   0.00000  Uiso   1.00
O269   O     0.75045   0.05665   0.97401   0.00000  Uiso   1.00
O270   O     0.79124   0.83871   0.56521   0.00000  Uiso   1.00
N271   N     0.90586   0.91784   0.59289   0.00000  Uiso   1.00
N272   N     0.75610   0.06204   0.87054   0.00000  Uiso   1.00
N273   N     0.78516   0.61934   0.57924   0.00000  Uiso   1.00
N274   N     0.94266   0.01814   0.64682   0.00000  Uiso   1.00
N275   N     0.79290   0.16234   0.92448   0.00000  Uiso   1.00
N276   N     0.82196   0.71964   0.63317   0.00000  Uiso   1.00
C277   C     0.31248   0.69092   0.67611   0.00000  Uiso   1.00
C278   C     0.34721   0.64018   0.66635   0.00000  Uiso   1.00
C279   C     0.35591   0.54164   0.62810   0.00000  Uiso   1.00
C280   C     0.38899   0.50939   0.62552   0.00000  Uiso   1.00
C281   C     0.43934   0.42082   0.60515   0.00000  Uiso   1.00
C282   C     0.30594   0.67990   0.74288   0.00000  Uiso   1.00
C283   C     0.27993   0.61478   0.76897   0.00000  Uiso   1.00
C284   C     0.27827   0.61598   0.83081   0.00000  Uiso   1.00
C285   C     0.26453   0.58916   0.92924   0.00000  Uiso   1.00
C286   C     0.31395   0.83349   0.66259   0.00000  Uiso   1.00
C287   C     0.29468   0.89751   0.62118   0.00000  Uiso   1.00
C288   C     0.29975   0.02803   0.61543   0.00000  Uiso   1.00
C289   C     0.29845   0.23967   0.58920   0.00000  Uiso   1.00
C290   C     0.35576   0.80887   0.73954   0.00000  Uiso   1.00
C291   C     0.37072   0.70425   0.70081   0.00000  Uiso   1.00
C292   C     0.40379   0.67214   0.69828   0.00000  Uiso   1.00
C293   C     0.41254   0.57357   0.66004   0.00000  Uiso   1.00
C294   C     0.32944   0.74397   0.77733   0.00000  Uiso   1.00
C295   C     0.32782   0.74528   0.83915   0.00000  Uiso   1.00
C296   C     0.30182   0.68016   0.86533   0.00000  Uiso   1.00
C297   C     0.33746   0.89756   0.69704   0.00000  Uiso   1.00
C298   C     0.34256   0.02801   0.69136   0.00000  Uiso   1.00
C299   C     0.32330   0.09221   0.64995   0.00000  Uiso   1.00
H300   H     0.29418   0.64104   0.64929   0.00000  Uiso   1.00
H301   H     0.33771   0.49207   0.60145   0.00000  Uiso   1.00
H302   H     0.26174   0.56522   0.74230   0.00000  Uiso   1.00
H303   H     0.27649   0.84790   0.59453   0.00000  Uiso   1.00
H304   H     0.39634   0.35515   0.56362   0.00000  Uiso   1.00
H305   H     0.23615   0.50940   0.86060   0.00000  Uiso   1.00
H306   H     0.26724   0.10550   0.54900   0.00000  Uiso   1.00
H307   H     0.37406   0.85875   0.76637   0.00000  Uiso   1.00
H308   H     0.42198   0.72174   0.72495   0.00000  Uiso   1.00
H309   H     0.34601   0.79487   0.86580   0.00000  Uiso   1.00
H310   H     0.36075   0.07756   0.71803   0.00000  Uiso   1.00
H311   H     0.46473   0.54155   0.66386   0.00000  Uiso   1.00
H312   H     0.30455   0.69580   0.96084   0.00000  Uiso   1.00
H313   H     0.33564   0.29190   0.64924   0.00000  Uiso   1.00
O314   O     0.46061   0.35426   0.58440   0.00000  Uiso   1.00
O315   O     0.25045   0.55665   0.97401   0.00000  Uiso   1.00
O316   O     0.29124   0.33871   0.56521   0.00000  Uiso   1.00
N317   N     0.40586   0.41784   0.59289   0.00000  Uiso   1.00
N318   N     0.25610   0.56204   0.87054   0.00000  Uiso   1.00
N319   N     0.28516   0.11934   0.57924   0.00000  Uiso   1.00
N320   N     0.44266   0.51814   0.64682   0.00000  Uiso   1.00
N321   N     0.29290   0.66234   0.92448   0.00000  Uiso   1.00
N322   N     0.32196   0.21964   0.63317   0.00000  Uiso   1.00
C323   C     0.31248   0.19092   0.17611   0.00000  Uiso   1.00
C324   C     0.34721   0.14018   0.16635   0.00000  Uiso   1.00
C325   C     0.35591   0.04164   0.12810   0.00000  Uiso   1.00
C326   C     0.38899   0.00939   0.12552   0.00000  Uiso   1.00
C327   C     0.43934   0.92082   0.10515   0.00000  Uiso   1.00
C328   C     0.30594   0.17990   0.24288   0.00000  Uiso   1.00
C329   C     0.27993   0.11478   0.26897   0.00000  Uiso   1.00
C330   C     0.27827   0.11598   0.33081   0.00000  Uiso   1.00
C331   C     0.26453   0.08916   0.42924   0.00000  Uiso   1.00
C332   C     0.31395   0.33349   0.16259   0.00000  Uiso   1.00
C333   C     0.29468   0.39751   0.12118   0.00000  Uiso   1.00
C334   C     0.29975   0.52803   0.11543   0.00000  Uiso   1.00
C335   C     0.29845   0.73967   0.08920   0.00000  Uiso   1.00
C336   C     0.35576   0.30887   0.23954   0.00000  Uiso   1.00
C337   C     0.37072   0.20425   0.20081   0.00000  Uiso   1.00
C338   C     0.40379   0.17214   0.19828   0.00000  Uiso   1.00
C339   C     0.41254   0.07357   0.16004   0.00000  Uiso   1.00
C340   C     0.32944   0.24397   0.27733   0.00000  Uiso   1.00
C341   C     0.32782   0.24528   0.33915   0.00000  Uiso   1.00
C342   C     0.30182   0.18016   0.36533   0.00000  Uiso   1.00
C343   C     0.33746   0.39756   0.19704   0.00000  Uiso   1.00
C344   C     0.34256   0.52801   0.19136   0.00000  Uiso   1.00
C345   C     0.32330   0.59221   0.14995   0.00000  Uiso   1.00
H346   H     0.29418   0.14104   0.14929   0.00000  Uiso   1.00
H347   H     0.33771   0.99207   0.10145   0.00000  Uiso   1.00
H348   H     0.26174   0.06522   0.24230   0.00000  Uiso   1.00
H349   H     0.27649   0.34790   0.09453   0.00000  Uiso   1.00
H350   H     0.39634   0.85515   0.06362   0.00000  Uiso   1.00
H351   H     0.23615   0.00940   0.36060   0.00000  Uiso   1.00
H352   H     0.26724   0.60550   0.04900   0.00000  Uiso   1.00
H353   H     0.37406   0.35875   0.26637   0.00000  Uiso   1.00
H354   H     0.42198   0.22174   0.22495   0.00000  Uiso   1.00
H355   H     0.34601   0.29487   0.36580   0.00000  Uiso   1.00
H356   H     0.36075   0.57756   0.21803   0.00000  Uiso   1.00
H357   H     0.46473   0.04155   0.16386   0.00000  Uiso   1.00
H358   H     0.30455   0.19580   0.46084   0.00000  Uiso   1.00
H359   H     0.33564   0.79190   0.14924   0.00000  Uiso   1.00
O360   O     0.46061   0.85426   0.08440   0.00000  Uiso   1.00
O361   O     0.25045   0.05665   0.47401   0.00000  Uiso   1.00
O362   O     0.29124   0.83871   0.06521   0.00000  Uiso   1.00
N363   N     0.40586   0.91784   0.09289   0.00000  Uiso   1.00
N364   N     0.25610   0.06204   0.37054   0.00000  Uiso   1.00
N365   N     0.28516   0.61934   0.07924   0.00000  Uiso   1.00
N366   N     0.44266   0.01814   0.14682   0.00000  Uiso   1.00
N367   N     0.29290   0.16234   0.42448   0.00000  Uiso   1.00
N368   N     0.32196   0.71964   0.13317   0.00000  Uiso   1.00
C369   C     0.43752   0.94092   0.42611   0.00000  Uiso   1.00
C370   C     0.40279   0.89018   0.41635   0.00000  Uiso   1.00
C371   C     0.39409   0.79164   0.37810   0.00000  Uiso   1.00
C372   C     0.36101   0.75939   0.37552   0.00000  Uiso   1.00
C373   C     0.31066   0.67082   0.35515   0.00000  Uiso   1.00
C374   C     0.44406   0.92990   0.49288   0.00000  Uiso   1.00
C375   C     0.47007   0.86478   0.51897   0.00000  Uiso   1.00
C376   C     0.47173   0.86598   0.58081   0.00000  Uiso   1.00
C377   C     0.48547   0.83916   0.67924   0.00000  Uiso   1.00
C378   C     0.43605   0.08349   0.41259   0.00000  Uiso   1.00
C379   C     0.45532   0.14751   0.37118   0.00000  Uiso   1.00
C380   C     0.45025   0.27803   0.36543   0.00000  Uiso   1.00
C381   C     0.45155   0.48967   0.33920   0.00000  Uiso   1.00
C382   C     0.39424   0.05887   0.48954   0.00000  Uiso   1.00
C383   C     0.37928   0.95425   0.45081   0.00000  Uiso   1.00
C384   C     0.34621   0.92214   0.44828   0.00000  Uiso   1.00
C385   C     0.33746   0.82357   0.41004   0.00000  Uiso   1.00
C386   C     0.42056   0.99397   0.52733   0.00000  Uiso   1.00
C387   C     0.42218   0.99528   0.58915   0.00000  Uiso   1.00
C388   C     0.44818   0.93016   0.61533   0.00000  Uiso   1.00
C389   C     0.41254   0.14756   0.44704   0.00000  Uiso   1.00
C390   C     0.40744   0.27801   0.44136   0.00000  Uiso   1.00
C391   C     0.42670   0.34221   0.39995   0.00000  Uiso   1.00
H392   H     0.45582   0.89104   0.39929   0.00000  Uiso   1.00
H393   H     0.41229   0.74207   0.35145   0.00000  Uiso   1.00
H394   H     0.48826   0.81522   0.49230   0.00000  Uiso   1.00
H395   H     0.47351   0.09790   0.34453   0.00000  Uiso   1.00
H396   H     0.35366   0.60515   0.31362   0.00000  Uiso   1.00
H397   H     0.51385   0.75940   0.61060   0.00000  Uiso   1.00
H398   H     0.48276   0.35550   0.29900   0.00000  Uiso   1.00
H399   H     0.37594   0.10875   0.51637   0.00000  Uiso   1.00
H400   H     0.32802   0.97174   0.47495   0.00000  Uiso   1.00
H401   H     0.40399   0.04487   0.61580   0.00000  Uiso   1.00
H402   H     0.38925   0.32756   0.46803   0.00000  Uiso   1.00
H403   H     0.28527   0.79155   0.41386   0.00000  Uiso   1.00
H404   H     0.44545   0.94580   0.71084   0.00000  Uiso   1.00
H405   H     0.41436   0.54190   0.39924   0.00000  Uiso   1.00
O406   O     0.28939   0.60426   0.33440   0.00000  Uiso   1.00
O407   O     0.49955   0.80665   0.72401   0.00000  Uiso   1.00
O408   O     0.45876   0.58871   0.31521   0.00000  Uiso   1.00
N409   N     0.34414   0.66784   0.34289   0.00000  Uiso   1.00
N410   N     0.49390   0.81204   0.62054   0.00000  Uiso   1.00
N411   N     0.46484   0.36934   0.32924   0.00000  Uiso   1.00
N412   N     0.30734   0.76814   0.39682   0.00000  Uiso   1.00
N413   N     0.45710   0.91234   0.67448   0.00000  Uiso   1.00
N414   N     0.42804   0.46964   0.38317   0.00000  Uiso   1.00
C415   C     0.43752   0.44092   0.92611   0.00000  Uiso   1.00
C416   C     0.40279   0.39018   0.91635   0.00000  Uiso   1.00
C417   C     0.39409   0.29164   0.87810   0.00000  Uiso   1.00
C418   C     0.36101   0.25939   0.87552   0.00000  Uiso   1.00
C419   C     0.31066   0.17082   0.85515   0.00000  Uiso   1.00
C420   C     0.44406   0.42990   0.99288   0.00000  Uiso   1.00
C421   C     0.47007   0.36478   0.01897   0.00000  Uiso   1.00
C422   C     0.47173   0.36598   0.08081   0.00000  Uiso   1.00
C423   C     0.48547   0.33916   0.17924   0.00000  Uiso   1.00
C424   C     0.43605   0.58349   0.91259   0.00000  Uiso   1.00
C425   C     0.45532   0.64751   0.87118   0.00000  Uiso   1.00
C426   C     0.45025   0.77803   0.86543   0.00000  Uiso   1.00
C427   C     0.45155   0.98967   0.83920   0.00000  Uiso   1.00
C428   C     0.39424   0.55887   0.98954   0.00000  Uiso   1.00
C429   C     0.37928   0.45425   0.95081   0.00000  Uiso   1.00
C430   C     0.34621   0.42214   0.94828   0.00000  Uiso   1.00
C431   C     0.33746   0.32357   0.91004   0.00000  Uiso   1.00
C432   C     0.42056   0.49397   0.02733   0.00000  Uiso   1.00
C433   C     0.42218   0.49528   0.08915   0.00000  Uiso   1.00
C434   C     0.44818   0.43016   0.11533   0.00000  Uiso   1.00
C435   C     0.41254   0.64756   0.94704   0.00000  Uiso   1.00
C436   C     0.40744   0.77801   0.94136   0.00000  Uiso   1.00
C437   C     0.42670   0.84221   0.89995   0.00000  Uiso   1.00
H438   H     0.45582   0.39104   0.89929   0.00000  Uiso   1.00
H439   H     0.41229   0.24207   0.85145   0.00000  Uiso   1.00
H440   H     0.48826   0.31522   0.99230   0.00000  Uiso   1.00
H441   H     0.47351   0.59790   0.84453   0.00000  Uiso   1.00
H442   H     0.35366   0.10515   0.81362   0.00000  Uiso   1.00
H443   H     0.51385   0.25940   0.11060   0.00000  Uiso   1.00
H444   H     0.48276   0.85550   0.79900   0.00000  Uiso   1.00
H445   H     0.37594   0.60875   0.01637   0.00000  Uiso   1.00
H446   H     0.32802   0.47174   0.97495   0.00000  Uiso   1.00
H447   H     0.40399   0.54487   0.11580   0.00000  Uiso   1.00
H448   H     0.38925   0.82756   0.96803   0.00000  Uiso   1.00
H449   H     0.28527   0.29155   0.91386   0.00000  Uiso   1.00
H450   H     0.44545   0.44580   0.21084   0.00000  Uiso   1.00
H451   H     0.41436   0.04190   0.89924   0.00000  Uiso   1.00
O452   O     0.28939   0.10426   0.83440   0.00000  Uiso   1.00
O453   O     0.49955   0.30665   0.22401   0.00000  Uiso   1.00
O454   O     0.45876   0.08871   0.81521   0.00000  Uiso   1.00
N455   N     0.34414   0.16784   0.84289   0.00000  Uiso   1.00
N456   N     0.49390   0.31204   0.12054   0.00000  Uiso   1.00
N457   N     0.46484   0.86934   0.82924   0.00000  Uiso   1.00
N458   N     0.30734   0.26814   0.89682   0.00000  Uiso   1.00
N459   N     0.45710   0.41234   0.17448   0.00000  Uiso   1.00
N460   N     0.42804   0.96964   0.88317   0.00000  Uiso   1.00
C461   C     0.93752   0.94092   0.92611   0.00000  Uiso   1.00
C462   C     0.90279   0.89018   0.91635   0.00000  Uiso   1.00
C463   C     0.89409   0.79164   0.87810   0.00000  Uiso   1.00
C464   C     0.86101   0.75939   0.87552   0.00000  Uiso   1.00
C465   C     0.81066   0.67082   0.85515   0.00000  Uiso   1.00
C466   C     0.94406   0.92990   0.99288   0.00000  Uiso   1.00
C467   C     0.97007   0.86478   0.01897   0.00000  Uiso   1.00
C468   C     0.97173   0.86598   0.08081   0.00000  Uiso   1.00
C469   C     0.98547   0.83916   0.17924   0.00000  Uiso   1.00
C470   C     0.93605   0.08349   0.91259   0.00000  Uiso   1.00
C471   C     0.95532   0.14751   0.87118   0.00000  Uiso   1.00
C472   C     0.95025   0.27803   0.86543   0.00000  Uiso   1.00
C473   C     0.95155   0.48967   0.83920   0.00000  Uiso   1.00
C474   C     0.89424   0.05887   0.98954   0.00000  Uiso   1.00
C475   C     0.87928   0.95425   0.95081   0.00000  Uiso   1.00
C476   C     0.84621   0.92214   0.94828   0.00000  Uiso   1.00
C477   C     0.83746   0.82357   0.91004   0.00000  Uiso   1.00
C478   C     0.92056   0.99397   0.02733   0.00000  Uiso   1.00
C479   C     0.92218   0.99528   0.08915   0.00000  Uiso   1.00
C480   C     0.94818   0.93016   0.11533   0.00000  Uiso   1.00
C481   C     0.91254   0.14756   0.94704   0.00000  Uiso   1.00
C482   C     0.90744   0.27801   0.94136   0.00000  Uiso   1.00
C483   C     0.92670   0.34221   0.89995   0.00000  Uiso   1.00
H484   H     0.95582   0.89104   0.89929   0.00000  Uiso   1.00
H485   H     0.91229   0.74207   0.85145   0.00000  Uiso   1.00
H486   H     0.98826   0.81522   0.99230   0.00000  Uiso   1.00
H487   H     0.97351   0.09790   0.84453   0.00000  Uiso   1.00
H488   H     0.85366   0.60515   0.81362   0.00000  Uiso   1.00
H489   H     0.01385   0.75940   0.11060   0.00000  Uiso   1.00
H490   H     0.98276   0.35550   0.79900   0.00000  Uiso   1.00
H491   H     0.87594   0.10875   0.01637   0.00000  Uiso   1.00
H492   H     0.82802   0.97174   0.97495   0.00000  Uiso   1.00
H493   H     0.90399   0.04487   0.11580   0.00000  Uiso   1.00
H494   H     0.88925   0.32756   0.96803   0.00000  Uiso   1.00
H495   H     0.78527   0.79155   0.91386   0.00000  Uiso   1.00
H496   H     0.94545   0.94580   0.21084   0.00000  Uiso   1.00
H497   H     0.91436   0.54190   0.89924   0.00000  Uiso   1.00
O498   O     0.78939   0.60426   0.83440   0.00000  Uiso   1.00
O499   O     0.99955   0.80665   0.22401   0.00000  Uiso   1.00
O500   O     0.95876   0.58871   0.81521   0.00000  Uiso   1.00
N501   N     0.84414   0.66784   0.84289   0.00000  Uiso   1.00
N502   N     0.99390   0.81204   0.12054   0.00000  Uiso   1.00
N503   N     0.96484   0.36934   0.82924   0.00000  Uiso   1.00
N504   N     0.80734   0.76814   0.89682   0.00000  Uiso   1.00
N505   N     0.95710   0.91234   0.17448   0.00000  Uiso   1.00
N506   N     0.92804   0.46964   0.88317   0.00000  Uiso   1.00
C507   C     0.93752   0.44092   0.42611   0.00000  Uiso   1.00
C508   C     0.90279   0.39018   0.41635   0.00000  Uiso   1.00
C509   C     0.89409   0.29164   0.37810   0.00000  Uiso   1.00
C510   C     0.86101   0.25939   0.37552   0.00000  Uiso   1.00
C511   C     0.81066   0.17082   0.35515   0.00000  Uiso   1.00
C512   C     0.94406   0.42990   0.49288   0.00000  Uiso   1.00
C513   C     0.97007   0.36478   0.51897   0.00000  Uiso   1.00
C514   C     0.97173   0.36598   0.58081   0.00000  Uiso   1.00
C515   C     0.98547   0.33916   0.67924   0.00000  Uiso   1.00
C516   C     0.93605   0.58349   0.41259   0.00000  Uiso   1.00
C517   C     0.95532   0.64751   0.37118   0.00000  Uiso   1.00
C518   C     0.95025   0.77803   0.36543   0.00000  Uiso   1.00
C519   C     0.95155   0.98967   0.33920   0.00000  Uiso   1.00
C520   C     0.89424   0.55887   0.48954   0.00000  Uiso   1.00
C521   C     0.87928   0.45425   0.45081   0.00000  Uiso   1.00
C522   C     0.84621   0.42214   0.44828   0.00000  Uiso   1.00
C523   C     0.83746   0.32357   0.41004   0.00000  Uiso   1.00
C524   C     0.92056   0.49397   0.52733   0.00000  Uiso   1.00
C525   C     0.92218   0.49528   0.58915   0.00000  Uiso   1.00
C526   C     0.94818   0.43016   0.61533   0.00000  Uiso   1.00
C527   C     0.91254   0.64756   0.44704   0.00000  Uiso   1.00
C528   C     0.90744   0.77801   0.44136   0.00000  Uiso   1.00
C529   C     0.92670   0.84221   0.39995   0.00000  Uiso   1.00
H530   H     0.95582   0.39104   0.39929   0.00000  Uiso   1.00
H531   H     0.91229   0.24207   0.35145   0.00000  Uiso   1.00
H532   H     0.98826   0.31522   0.49230   0.00000  Uiso   1.00
H533   H     0.97351   0.59790   0.34453   0.00000  Uiso   1.00
H534   H     0.85366   0.10515   0.31362   0.00000  Uiso   1.00
H535   H     0.01385   0.25940   0.61060   0.00000  Uiso   1.00
H536   H     0.98276   0.85550   0.29900   0.00000  Uiso   1.00
H537   H     0.87594   0.60875   0.51637   0.00000  Uiso   1.00
H538   H     0.82802   0.47174   0.47495   0.00000  Uiso   1.00
H539   H     0.90399   0.54487   0.61580   0.00000  Uiso   1.00
H540   H     0.88925   0.82756   0.46803   0.00000  Uiso   1.00
H541   H     0.78527   0.29155   0.41386   0.00000  Uiso   1.00
H542   H     0.94545   0.44580   0.71084   0.00000  Uiso   1.00
H543   H     0.91436   0.04190   0.39924   0.00000  Uiso   1.00
O544   O     0.78939   0.10426   0.33440   0.00000  Uiso   1.00
O545   O     0.99955   0.30665   0.72401   0.00000  Uiso   1.00
O546   O     0.95876   0.08871   0.31521   0.00000  Uiso   1.00
N547   N     0.84414   0.16784   0.34289   0.00000  Uiso   1.00
N548   N     0.99390   0.31204   0.62054   0.00000  Uiso   1.00
N549   N     0.96484   0.86934   0.32924   0.00000  Uiso   1.00
N550   N     0.80734   0.26814   0.39682   0.00000  Uiso   1.00
N551   N     0.95710   0.41234   0.67448   0.00000  Uiso   1.00
N552   N     0.92804   0.96964   0.38317   0.00000  Uiso   1.00
C553   C     0.06248   0.55908   0.42611   0.00000  Uiso   1.00
C554   C     0.09721   0.60982   0.41635   0.00000  Uiso   1.00
C555   C     0.10591   0.70836   0.37810   0.00000  Uiso   1.00
C556   C     0.13899   0.74061   0.37552   0.00000  Uiso   1.00
C557   C     0.18934   0.82918   0.35515   0.00000  Uiso   1.00
C558   C     0.05594   0.57010   0.49288   0.00000  Uiso   1.00
C559   C     0.02993   0.63522   0.51897   0.00000  Uiso   1.00
C560   C     0.02827   0.63402   0.58081   0.00000  Uiso   1.00
C561   C     0.01453   0.66084   0.67924   0.00000  Uiso   1.00
C562   C     0.06395   0.41651   0.41259   0.00000  Uiso   1.00
C563   C     0.04468   0.35249   0.37118   0.00000  Uiso   1.00
C564   C     0.04975   0.22197   0.36543   0.00000  Uiso   1.00
C565   C     0.04845   0.01033   0.33920   0.00000  Uiso   1.00
C566   C     0.10576   0.44113   0.48954   0.00000  Uiso   1.00
C567   C     0.12072   0.54575   0.45081   0.00000  Uiso   1.00
C568   C     0.15379   0.57786   0.44828   0.00000  Uiso   1.00
C569   C     0.16254   0.67643   0.41004   0.00000  Uiso   1.00
C570   C     0.07944   0.50603   0.52733   0.00000  Uiso   1.00
C571   C     0.07782   0.50472   0.58915   0.00000  Uiso   1.00
C572   C     0.05182   0.56984   0.61533   0.00000  Uiso   1.00
C573   C     0.08746   0.35244   0.44704   0.00000  Uiso   1.00
C574   C     0.09256   0.22199   0.44136   0.00000  Uiso   1.00
C575   C     0.07330   0.15779   0.39995   0.00000  Uiso   1.00
H576   H     0.04418   0.60896   0.39929   0.00000  Uiso   1.00
H577   H     0.08771   0.75793   0.35145   0.00000  Uiso   1.00
H578   H     0.01174   0.68478   0.49230   0.00000  Uiso   1.00
H579   H     0.02649   0.40210   0.34453   0.00000  Uiso   1.00
H580   H     0.14634   0.89485   0.31362   0.00000  Uiso   1.00
H581   H     0.98615   0.74060   0.61060   0.00000  Uiso   1.00
H582   H     0.01724   0.14450   0.29900   0.00000  Uiso   1.00
H583   H     0.12406   0.39125   0.51637   0.00000  Uiso   1.00
H584   H     0.17198   0.52826   0.47495   0.00000  Uiso   1.00
H585   H     0.09601   0.45513   0.61580   0.00000  Uiso   1.00
H586   H     0.11075   0.17244   0.46803   0.00000  Uiso   1.00
H587   H     0.21473   0.70845   0.41386   0.00000  Uiso   1.00
H588   H     0.05455   0.55420   0.71084   0.00000  Uiso   1.00
H589   H     0.08564   0.95810   0.39924   0.00000  Uiso   1.00
O590   O     0.21061   0.89574   0.33440   0.00000  Uiso   1.00
O591   O     0.00045   0.69335   0.72401   0.00000  Uiso   1.00
O592   O     0.04124   0.91129   0.31521   0.00000  Uiso   1.00
N593   N     0.15586   0.83216   0.34289   0.00000  Uiso   1.00
N594   N     0.00610   0.68796   0.62054   0.00000  Uiso   1.00
N595   N     0.03516   0.13066   0.32924   0.00000  Uiso   1.00
N596   N     0.19266   0.73186   0.39682   0.00000  Uiso   1.00
N597   N     0.04290   0.58766   0.67448   0.00000  Uiso   1.00
N598   N     0.07196   0.03036   0.38317   0.00000  Uiso   1.00
C599   C     0.06248   0.05908   0.92611   0.00000  Uiso   1.00
C600   C     0.09721   0.10982   0.91635   0.00000  Uiso   1.00
C601   C     0.10591   0.20836   0.87810   0.00000  Uiso   1.00
C602   C     0.13899   0.24061   0.87552   0.00000  Uiso   1.00
C603   C     0.18934   0.32918   0.85515   0.00000  Uiso   1.00
C604   C     0.05594   0.07010   0.99288   0.00000  Uiso   1.00
C605   C     0.02993   0.13522   0.01897   0.00000  Uiso   1.00
C606   C     0.02827   0.13402   0.08081   0.00000  Uiso   1.00
C607   C     0.01453   0.16084   0.17924   0.00000  Uiso   1.00
C608   C     0.06395   0.91651   0.91259   0.00000  Uiso   1.00
C609   C     0.04468   0.85249   0.87118   0.00000  Uiso   1.00
C610   C     0.04975   0.72197   0.86543   0.00000  Uiso   1.00
C611   C     0.04845   0.51033   0.83920   0.00000  Uiso   1.00
C612   C     0.10576   0.94113   0.98954   0.00000  Uiso   1.00
C613   C     0.12072   0.04575   0.95081   0.00000  Uiso   1.00
C614   C     0.15379   0.07786   0.94828   0.00000  Uiso   1.00
C615   C     0.16254   0.17643   0.91004   0.00000  Uiso   1.00
C616   C     0.07944   0.00603   0.02733   0.00000  Uiso   1.00
C617   C     0.07782   0.00472   0.08915   0.00000  Uiso   1.00
C618   C     0.05182   0.06984   0.11533   0.00000  Uiso   1.00
C619   C     0.08746   0.85244   0.94704   0.00000  Uiso   1.00
C620   C     0.09256   0.72199   0.94136   0.00000  Uiso   1.00
C621   C     0.07330   0.65779   0.89995   0.00000  Uiso   1.00
H622   H     0.04418   0.10896   0.89929   0.00000  Uiso   1.00
H623   H     0.08771   0.25793   0.85145   0.00000  Uiso   1.00
H624   H     0.01174   0.18478   0.99230   0.00000  Uiso   1.00
H625   H     0.02649   0.90210   0.84453   0.00000  Uiso   1.00
H626   H     0.14634   0.39485   0.81362   0.00000  Uiso   1.00
H627   H     0.98615   0.24060   0.11060   0.00000  Uiso   1.00
H628   H     0.01724   0.64450   0.79900   0.00000  Uiso   1.00
H629   H     0.12406   0.89125   0.01637   0.00000  Uiso   1.00
H630   H     0.17198   0.02826   0.97495   0.00000  Uiso   1.00
H631   H     0.09601   0.95513   0.11580   0.00000  Uiso   1.00
H632   H     0.11075   0.67244   0.96803   0.00000  Uiso   1.00
H633   H     0.21473   0.20845   0.91386   0.00000  Uiso   1.00
H634   H     0.05455   0.05420   0.21084   0.00000  Uiso   1.00
H635   H     0.08564   0.45810   0.89924   0.00000  Uiso   1.00
O636   O     0.21061   0.39574   0.83440   0.00000  Uiso   1.00
O637   O     0.00045   0.19335   0.22401   0.00000  Uiso   1.00
O638   O     0.04124   0.41129   0.81521   0.00000  Uiso   1.00
N639   N     0.15586   0.33216   0.84289   0.00000  Uiso   1.00
N640   N     0.00610   0.18796   0.12054   0.00000  Uiso   1.00
N641   N     0.03516   0.63066   0.82924   0.00000  Uiso   1.00
N642   N     0.19266   0.23186   0.89682   0.00000  Uiso   1.00
N643   N     0.04290   0.08766   0.17448   0.00000  Uiso   1.00
N644   N     0.07196   0.53036   0.88317   0.00000  Uiso   1.00
C645   C     0.56248   0.55908   0.92611   0.00000  Uiso   1.00
C646   C     0.59721   0.60982   0.91635   0.00000  Uiso   1.00
C647   C     0.60591   0.70836   0.87810   0.00000  Uiso   1.00
C648   C     0.63899   0.74061   0.87552   0.00000  Uiso   1.00
C649   C     0.68934   0.82918   0.85515   0.00000  Uiso   1.00
C650   C     0.55594   0.57010   0.99288   0.00000  Uiso   1.00
C651   C     0.52993   0.63522   0.01897   0.00000  Uiso   1.00
C652   C     0.52827   0.63402   0.08081   0.00000  Uiso   1.00
C653   C     0.51453   0.66084   0.17924   0.00000  Uiso   1.00
C654   C     0.56395   0.41651   0.91259   0.00000  Uiso   1.00
C655   C     0.54468   0.35249   0.87118   0.00000  Uiso   1.00
C656   C     0.54975   0.22197   0.86543   0.00000  Uiso   1.00
C657   C     0.54845   0.01033   0.83920   0.00000  Uiso   1.00
C658   C     0.60576   0.44113   0.98954   0.00000  Uiso   1.00
C659   C     0.62072   0.54575   0.95081   0.00000  Uiso   1.00
C660   C     0.65379   0.57786   0.94828   0.00000  Uiso   1.00
C661   C     0.66254   0.67643   0.91004   0.00000  Uiso   1.00
C662   C     0.57944   0.50603   0.02733   0.00000  Uiso   1.00
C663   C     0.57782   0.50472   0.08915   0.00000  Uiso   1.00
C664   C     0.55182   0.56984   0.11533   0.00000  Uiso   1.00
C665   C     0.58746   0.35244   0.94704   0.00000  Uiso   1.00
C666   C     0.59256   0.22199   0.94136   0.00000  Uiso   1.00
C667   C     0.57330   0.15779   0.89995   0.00000  Uiso   1.00
H668   H     0.54418   0.60896   0.89929   0.00000  Uiso   1.00
H669   H     0.58771   0.75793   0.85145   0.00000  Uiso   1.00
H670   H     0.51174   0.68478   0.99230   0.00000  Uiso   1.00
H671   H     0.52649   0.40210   0.84453   0.00000  Uiso   1.00
H672   H     0.64634   0.89485   0.81362   0.00000  Uiso   1.00
H673   H     0.48615   0.74060   0.11060   0.00000  Uiso   1.00
H674   H     0.51724   0.14450   0.79900   0.00000  Uiso   1.00
H675   H     0.62406   0.39125   0.01637   0.00000  Uiso   1.00
H676   H     0.67198   0.52826   0.97495   0.00000  Uiso   1.00
H677   H     0.59601   0.45513   0.11580   0.00000  Uiso   1.00
H678   H     0.61075   0.17244   0.96803   0.00000  Uiso   1.00
H679   H     0.71473   0.70845   0.91386   0.00000  Uiso   1.00
H680   H     0.55455   0.55420   0.21084   0.00000  Uiso   1.00
H681   H     0.58564   0.95810   0.89924   0.00000  Uiso   1.00
O682   O     0.71061   0.89574   0.83440   0.00000  Uiso   1.00
O683   O     0.50045   0.69335   0.22401   0.00000  Uiso   1.00
O684   O     0.54124   0.91129   0.81521   0.00000  Uiso   1.00
N685   N     0.65586   0.83216   0.84289   0.00000  Uiso   1.00
N686   N     0.50610   0.68796   0.12054   0.00000  Uiso   1.00
N687   N     0.53516   0.13066   0.82924   0.00000  Uiso   1.00
N688   N     0.69266   0.73186   0.89682   0.00000  Uiso   1.00
N689   N     0.54290   0.58766   0.17448   0.00000  Uiso   1.00
N690   N     0.57196   0.03036   0.88317   0.00000  Uiso   1.00
C691   C     0.56248   0.05908   0.42611   0.00000  Uiso   1.00
C692   C     0.59721   0.10982   0.41635   0.00000  Uiso   1.00
C693   C     0.60591   0.20836   0.37810   0.00000  Uiso   1.00
C694   C     0.63899   0.24061   0.37552   0.00000  Uiso   1.00
C695   C     0.68934   0.32918   0.35515   0.00000  Uiso   1.00
C696   C     0.55594   0.07010   0.49288   0.00000  Uiso   1.00
C697   C     0.52993   0.13522   0.51897   0.00000  Uiso   1.00
C698   C     0.52827   0.13402   0.58081   0.00000  Uiso   1.00
C699   C     0.51453   0.16084   0.67924   0.00000  Uiso   1.00
C700   C     0.56395   0.91651   0.41259   0.00000  Uiso   1.00
C701   C     0.54468   0.85249   0.37118   0.00000  Uiso   1.00
C702   C     0.54975   0.72197   0.36543   0.00000  Uiso   1.00
C703   C     0.54845   0.51033   0.33920   0.00000  Uiso   1.00
C704   C     0.60576   0.94113   0.48954   0.00000  Uiso   1.00
C705   C     0.62072   0.04575   0.45081   0.00000  Uiso   1.00
C706   C     0.65379   0.07786   0.44828   0.00000  Uiso   1.00
C707   C     0.66254   0.17643   0.41004   0.00000  Uiso   1.00
C708   C     0.57944   0.00603   0.52733   0.00000  Uiso   1.00
C709   C     0.57782   0.00472   0.58915   0.00000  Uiso   1.00
C710   C     0.55182   0.06984   0.61533   0.00000  Uiso   1.00
C711   C     0.58746   0.85244   0.44704   0.00000  Uiso   1.00
C712   C     0.59256   0.72199   0.44136   0.00000  Uiso   1.00
C713   C     0.57330   0.65779   0.39995   0.00000  Uiso   1.00
H714   H     0.54418   0.10896   0.39929   0.00000  Uiso   1.00
H715   H     0.58771   0.25793   0.35145   0.00000  Uiso   1.00
H716   H     0.51174   0.18478   0.49230   0.00000  Uiso   1.00
H717   H     0.52649   0.90210   0.34453   0.00000  Uiso   1.00
H718   H     0.64634   0.39485   0.31362   0.00000  Uiso   1.00
H719   H     0.48615   0.24060   0.61060   0.00000  Uiso   1.00
H720   H     0.51724   0.64450   0.29900   0.00000  Uiso   1.00
H721   H     0.62406   0.89125   0.51637   0.00000  Uiso   1.00
H722   H     0.67198   0.02826   0.47495   0.00000  Uiso   1.00
H723   H     0.59601   0.95513   0.61580   0.00000  Uiso   1.00
H724   H     0.61075   0.67244   0.46803   0.00000  Uiso   1.00
H725   H     0.71473   0.20845   0.41386   0.00000  Uiso   1.00
H726   H     0.55455   0.05420   0.71084   0.00000  Uiso   1.00
H727   H     0.58564   0.45810   0.39924   0.00000  Uiso   1.00
O728   O     0.71061   0.39574   0.33440   0.00000  Uiso   1.00
O729   O     0.50045   0.19335   0.72401   0.00000  Uiso   1.00
O730   O     0.54124   0.41129   0.31521   0.00000  Uiso   1.00
N731   N     0.65586   0.33216   0.34289   0.00000  Uiso   1.00
N732   N     0.50610   0.18796   0.62054   0.00000  Uiso   1.00
N733   N     0.53516   0.63066   0.32924   0.00000  Uiso   1.00
N734   N     0.69266   0.23186   0.39682   0.00000  Uiso   1.00
N735   N     0.54290   0.08766   0.67448   0.00000  Uiso   1.00
N736   N     0.57196   0.53036   0.38317   0.00000  Uiso   1.00
