data_job_00934
_audit_creation_date              2018-12-19
_audit_creation_method            'Materials Studio'
_symmetry_space_group_name_H-M    'P1'
_symmetry_Int_Tables_number       1
_symmetry_cell_setting            triclinic
loop_
_symmetry_equiv_pos_as_xyz
  x,y,z
_cell_length_a                    25.2309
_cell_length_b                    25.2309
_cell_length_c                    12.8880
_cell_angle_alpha                 90.0000
_cell_angle_beta                  90.0000
_cell_angle_gamma                 90.0000
loop_
_atom_site_label
_atom_site_type_symbol
_atom_site_fract_x
_atom_site_fract_y
_atom_site_fract_z
_atom_site_U_iso_or_equiv
_atom_site_adp_type
_atom_site_occupancy
C1     C     0.12320   0.14399   0.30852   0.00000  Uiso   1.00
C2     C     0.16331   0.18918   0.31077   0.00000  Uiso   1.00
C3     C     0.15258   0.24195   0.28879   0.00000  Uiso   1.00
C4     C     0.19469   0.27723   0.29514   0.00000  Uiso   1.00
C5     C     0.24922   0.34998   0.29442   0.00000  Uiso   1.00
C6     C     0.14546   0.10288   0.23352   0.00000  Uiso   1.00
C7     C     0.11972   0.08308   0.14661   0.00000  Uiso   1.00
C8     C     0.14680   0.04570   0.08794   0.00000  Uiso   1.00
C9     C     0.17360   0.98444   0.96734   0.00000  Uiso   1.00
C10    C     0.12515   0.11853   0.41576   0.00000  Uiso   1.00
C11    C     0.08232   0.11188   0.48207   0.00000  Uiso   1.00
C12    C     0.09230   0.08767   0.57683   0.00000  Uiso   1.00
C13    C     0.08756   0.05070   0.73918   0.00000  Uiso   1.00
C14    C     0.21706   0.11281   0.35887   0.00000  Uiso   1.00
C15    C     0.21429   0.17225   0.33811   0.00000  Uiso   1.00
C16    C     0.25642   0.20746   0.34450   0.00000  Uiso   1.00
C17    C     0.24576   0.26026   0.32254   0.00000  Uiso   1.00
C18    C     0.19644   0.08594   0.26087   0.00000  Uiso   1.00
C19    C     0.22356   0.04859   0.20232   0.00000  Uiso   1.00
C20    C     0.19787   0.02874   0.11533   0.00000  Uiso   1.00
C21    C     0.17613   0.10160   0.44311   0.00000  Uiso   1.00
C22    C     0.18617   0.07739   0.53778   0.00000  Uiso   1.00
C23    C     0.14337   0.07070   0.60423   0.00000  Uiso   1.00
H24    H     0.08351   0.15717   0.28722   0.00000  Uiso   1.00
H25    H     0.11313   0.25503   0.26762   0.00000  Uiso   1.00
H26    H     0.08027   0.09619   0.12547   0.00000  Uiso   1.00
H27    H     0.04288   0.12498   0.46088   0.00000  Uiso   1.00
H28    H     0.16844   0.35607   0.25792   0.00000  Uiso   1.00
H29    H     0.09915   0.02112   0.95820   0.00000  Uiso   1.00
H30    H     0.02031   0.08184   0.66548   0.00000  Uiso   1.00
H31    H     0.25675   0.09962   0.38016   0.00000  Uiso   1.00
H32    H     0.29587   0.19434   0.36567   0.00000  Uiso   1.00
H33    H     0.26301   0.03549   0.22351   0.00000  Uiso   1.00
H34    H     0.22562   0.06429   0.55892   0.00000  Uiso   1.00
H35    H     0.31677   0.30681   0.33749   0.00000  Uiso   1.00
H36    H     0.24747   0.97185   0.03777   0.00000  Uiso   1.00
H37    H     0.16863   0.03258   0.74505   0.00000  Uiso   1.00
O38    O     0.26522   0.39478   0.28646   0.00000  Uiso   1.00
O39    O     0.17430   0.95533   0.89325   0.00000  Uiso   1.00
O40    O     0.07087   0.03500   0.82119   0.00000  Uiso   1.00
N41    N     0.19798   0.33148   0.27865   0.00000  Uiso   1.00
N42    N     0.13320   0.01832   0.99842   0.00000  Uiso   1.00
N43    N     0.05949   0.07508   0.65966   0.00000  Uiso   1.00
N44    N     0.27779   0.30497   0.32147   0.00000  Uiso   1.00
N45    N     0.21301   0.99182   0.04124   0.00000  Uiso   1.00
N46    N     0.13930   0.04857   0.70248   0.00000  Uiso   1.00
C47    C     0.62320   0.64399   0.80852   0.00000  Uiso   1.00
C48    C     0.66331   0.68918   0.81077   0.00000  Uiso   1.00
C49    C     0.65258   0.74195   0.78879   0.00000  Uiso   1.00
C50    C     0.69469   0.77723   0.79514   0.00000  Uiso   1.00
C51    C     0.74922   0.84998   0.79442   0.00000  Uiso   1.00
C52    C     0.64546   0.60288   0.73352   0.00000  Uiso   1.00
C53    C     0.61972   0.58308   0.64661   0.00000  Uiso   1.00
C54    C     0.64680   0.54570   0.58794   0.00000  Uiso   1.00
C55    C     0.67360   0.48444   0.46734   0.00000  Uiso   1.00
C56    C     0.62515   0.61853   0.91576   0.00000  Uiso   1.00
C57    C     0.58232   0.61188   0.98207   0.00000  Uiso   1.00
C58    C     0.59230   0.58767   0.07683   0.00000  Uiso   1.00
C59    C     0.58756   0.55070   0.23918   0.00000  Uiso   1.00
C60    C     0.71706   0.61281   0.85887   0.00000  Uiso   1.00
C61    C     0.71429   0.67225   0.83811   0.00000  Uiso   1.00
C62    C     0.75642   0.70746   0.84450   0.00000  Uiso   1.00
C63    C     0.74576   0.76026   0.82254   0.00000  Uiso   1.00
C64    C     0.69644   0.58594   0.76087   0.00000  Uiso   1.00
C65    C     0.72356   0.54859   0.70232   0.00000  Uiso   1.00
C66    C     0.69787   0.52874   0.61533   0.00000  Uiso   1.00
C67    C     0.67613   0.60160   0.94311   0.00000  Uiso   1.00
C68    C     0.68617   0.57739   0.03778   0.00000  Uiso   1.00
C69    C     0.64337   0.57070   0.10423   0.00000  Uiso   1.00
H70    H     0.58351   0.65717   0.78722   0.00000  Uiso   1.00
H71    H     0.61313   0.75503   0.76762   0.00000  Uiso   1.00
H72    H     0.58027   0.59619   0.62547   0.00000  Uiso   1.00
H73    H     0.54288   0.62498   0.96088   0.00000  Uiso   1.00
H74    H     0.66844   0.85607   0.75792   0.00000  Uiso   1.00
H75    H     0.59915   0.52112   0.45820   0.00000  Uiso   1.00
H76    H     0.52031   0.58184   0.16548   0.00000  Uiso   1.00
H77    H     0.75675   0.59962   0.88016   0.00000  Uiso   1.00
H78    H     0.79587   0.69434   0.86567   0.00000  Uiso   1.00
H79    H     0.76301   0.53549   0.72351   0.00000  Uiso   1.00
H80    H     0.72562   0.56429   0.05892   0.00000  Uiso   1.00
H81    H     0.81677   0.80681   0.83749   0.00000  Uiso   1.00
H82    H     0.74747   0.47185   0.53777   0.00000  Uiso   1.00
H83    H     0.66863   0.53258   0.24505   0.00000  Uiso   1.00
O84    O     0.76522   0.89478   0.78646   0.00000  Uiso   1.00
O85    O     0.67430   0.45533   0.39325   0.00000  Uiso   1.00
O86    O     0.57087   0.53500   0.32119   0.00000  Uiso   1.00
N87    N     0.69798   0.83148   0.77865   0.00000  Uiso   1.00
N88    N     0.63320   0.51832   0.49842   0.00000  Uiso   1.00
N89    N     0.55949   0.57508   0.15966   0.00000  Uiso   1.00
N90    N     0.77779   0.80497   0.82147   0.00000  Uiso   1.00
N91    N     0.71301   0.49182   0.54124   0.00000  Uiso   1.00
N92    N     0.63930   0.54857   0.20248   0.00000  Uiso   1.00
C93    C     0.37680   0.35601   0.80852   0.00000  Uiso   1.00
C94    C     0.33669   0.31082   0.81077   0.00000  Uiso   1.00
C95    C     0.34742   0.25805   0.78879   0.00000  Uiso   1.00
C96    C     0.30531   0.22277   0.79514   0.00000  Uiso   1.00
C97    C     0.25078   0.15002   0.79442   0.00000  Uiso   1.00
C98    C     0.35454   0.39712   0.73352   0.00000  Uiso   1.00
C99    C     0.38028   0.41692   0.64661   0.00000  Uiso   1.00
C100   C     0.35320   0.45430   0.58794   0.00000  Uiso   1.00
C101   C     0.32640   0.51556   0.46734   0.00000  Uiso   1.00
C102   C     0.37485   0.38147   0.91576   0.00000  Uiso   1.00
C103   C     0.41768   0.38812   0.98207   0.00000  Uiso   1.00
C104   C     0.40770   0.41233   0.07683   0.00000  Uiso   1.00
C105   C     0.41244   0.44930   0.23918   0.00000  Uiso   1.00
C106   C     0.28294   0.38719   0.85887   0.00000  Uiso   1.00
C107   C     0.28571   0.32775   0.83811   0.00000  Uiso   1.00
C108   C     0.24358   0.29254   0.84450   0.00000  Uiso   1.00
C109   C     0.25424   0.23974   0.82254   0.00000  Uiso   1.00
C110   C     0.30356   0.41406   0.76087   0.00000  Uiso   1.00
C111   C     0.27644   0.45141   0.70232   0.00000  Uiso   1.00
C112   C     0.30213   0.47126   0.61533   0.00000  Uiso   1.00
C113   C     0.32387   0.39840   0.94311   0.00000  Uiso   1.00
C114   C     0.31383   0.42261   0.03778   0.00000  Uiso   1.00
C115   C     0.35663   0.42930   0.10423   0.00000  Uiso   1.00
H116   H     0.41649   0.34283   0.78722   0.00000  Uiso   1.00
H117   H     0.38687   0.24497   0.76762   0.00000  Uiso   1.00
H118   H     0.41973   0.40381   0.62547   0.00000  Uiso   1.00
H119   H     0.45712   0.37502   0.96088   0.00000  Uiso   1.00
H120   H     0.33156   0.14393   0.75792   0.00000  Uiso   1.00
H121   H     0.40085   0.47888   0.45820   0.00000  Uiso   1.00
H122   H     0.47969   0.41816   0.16548   0.00000  Uiso   1.00
H123   H     0.24325   0.40038   0.88016   0.00000  Uiso   1.00
H124   H     0.20413   0.30566   0.86567   0.00000  Uiso   1.00
H125   H     0.23699   0.46451   0.72351   0.00000  Uiso   1.00
H126   H     0.27438   0.43571   0.05892   0.00000  Uiso   1.00
H127   H     0.18323   0.19319   0.83749   0.00000  Uiso   1.00
H128   H     0.25253   0.52815   0.53777   0.00000  Uiso   1.00
H129   H     0.33137   0.46742   0.24505   0.00000  Uiso   1.00
O130   O     0.23478   0.10522   0.78646   0.00000  Uiso   1.00
O131   O     0.32570   0.54467   0.39325   0.00000  Uiso   1.00
O132   O     0.42913   0.46500   0.32119   0.00000  Uiso   1.00
N133   N     0.30202   0.16852   0.77865   0.00000  Uiso   1.00
N134   N     0.36680   0.48168   0.49842   0.00000  Uiso   1.00
N135   N     0.44051   0.42492   0.15966   0.00000  Uiso   1.00
N136   N     0.22221   0.19503   0.82147   0.00000  Uiso   1.00
N137   N     0.28699   0.50818   0.54124   0.00000  Uiso   1.00
N138   N     0.36070   0.45143   0.20248   0.00000  Uiso   1.00
C139   C     0.87680   0.85601   0.30852   0.00000  Uiso   1.00
C140   C     0.83669   0.81082   0.31077   0.00000  Uiso   1.00
C141   C     0.84742   0.75805   0.28879   0.00000  Uiso   1.00
C142   C     0.80531   0.72277   0.29514   0.00000  Uiso   1.00
C143   C     0.75078   0.65002   0.29442   0.00000  Uiso   1.00
C144   C     0.85454   0.89712   0.23352   0.00000  Uiso   1.00
C145   C     0.88028   0.91692   0.14661   0.00000  Uiso   1.00
C146   C     0.85320   0.95430   0.08794   0.00000  Uiso   1.00
C147   C     0.82640   0.01556   0.96734   0.00000  Uiso   1.00
C148   C     0.87485   0.88147   0.41576   0.00000  Uiso   1.00
C149   C     0.91768   0.88812   0.48207   0.00000  Uiso   1.00
C150   C     0.90770   0.91233   0.57683   0.00000  Uiso   1.00
C151   C     0.91244   0.94930   0.73918   0.00000  Uiso   1.00
C152   C     0.78294   0.88719   0.35887   0.00000  Uiso   1.00
C153   C     0.78571   0.82775   0.33811   0.00000  Uiso   1.00
C154   C     0.74358   0.79254   0.34450   0.00000  Uiso   1.00
C155   C     0.75424   0.73974   0.32254   0.00000  Uiso   1.00
C156   C     0.80356   0.91406   0.26087   0.00000  Uiso   1.00
C157   C     0.77644   0.95141   0.20232   0.00000  Uiso   1.00
C158   C     0.80213   0.97126   0.11533   0.00000  Uiso   1.00
C159   C     0.82387   0.89840   0.44311   0.00000  Uiso   1.00
C160   C     0.81383   0.92261   0.53778   0.00000  Uiso   1.00
C161   C     0.85663   0.92930   0.60423   0.00000  Uiso   1.00
H162   H     0.91649   0.84283   0.28722   0.00000  Uiso   1.00
H163   H     0.88687   0.74497   0.26762   0.00000  Uiso   1.00
H164   H     0.91973   0.90381   0.12547   0.00000  Uiso   1.00
H165   H     0.95712   0.87502   0.46088   0.00000  Uiso   1.00
H166   H     0.83156   0.64393   0.25792   0.00000  Uiso   1.00
H167   H     0.90085   0.97888   0.95820   0.00000  Uiso   1.00
H168   H     0.97969   0.91816   0.66548   0.00000  Uiso   1.00
H169   H     0.74325   0.90038   0.38016   0.00000  Uiso   1.00
H170   H     0.70413   0.80566   0.36567   0.00000  Uiso   1.00
H171   H     0.73699   0.96451   0.22351   0.00000  Uiso   1.00
H172   H     0.77438   0.93571   0.55892   0.00000  Uiso   1.00
H173   H     0.68323   0.69319   0.33749   0.00000  Uiso   1.00
H174   H     0.75253   0.02815   0.03777   0.00000  Uiso   1.00
H175   H     0.83137   0.96742   0.74505   0.00000  Uiso   1.00
O176   O     0.73478   0.60522   0.28646   0.00000  Uiso   1.00
O177   O     0.82570   0.04467   0.89325   0.00000  Uiso   1.00
O178   O     0.92913   0.96500   0.82119   0.00000  Uiso   1.00
N179   N     0.80202   0.66852   0.27865   0.00000  Uiso   1.00
N180   N     0.86680   0.98168   0.99842   0.00000  Uiso   1.00
N181   N     0.94051   0.92492   0.65966   0.00000  Uiso   1.00
N182   N     0.72221   0.69503   0.32147   0.00000  Uiso   1.00
N183   N     0.78699   0.00818   0.04124   0.00000  Uiso   1.00
N184   N     0.86070   0.95143   0.70248   0.00000  Uiso   1.00
C185   C     0.85601   0.62320   0.55852   0.00000  Uiso   1.00
C186   C     0.81082   0.66331   0.56077   0.00000  Uiso   1.00
C187   C     0.75805   0.65258   0.53879   0.00000  Uiso   1.00
C188   C     0.72277   0.69469   0.54514   0.00000  Uiso   1.00
C189   C     0.65002   0.74922   0.54442   0.00000  Uiso   1.00
C190   C     0.89712   0.64546   0.48352   0.00000  Uiso   1.00
C191   C     0.91692   0.61972   0.39661   0.00000  Uiso   1.00
C192   C     0.95430   0.64680   0.33794   0.00000  Uiso   1.00
C193   C     0.01556   0.67360   0.21734   0.00000  Uiso   1.00
C194   C     0.88147   0.62515   0.66576   0.00000  Uiso   1.00
C195   C     0.88812   0.58232   0.73207   0.00000  Uiso   1.00
C196   C     0.91233   0.59230   0.82683   0.00000  Uiso   1.00
C197   C     0.94930   0.58756   0.98918   0.00000  Uiso   1.00
C198   C     0.88719   0.71706   0.60887   0.00000  Uiso   1.00
C199   C     0.82775   0.71429   0.58811   0.00000  Uiso   1.00
C200   C     0.79254   0.75642   0.59450   0.00000  Uiso   1.00
C201   C     0.73974   0.74576   0.57254   0.00000  Uiso   1.00
C202   C     0.91406   0.69644   0.51087   0.00000  Uiso   1.00
C203   C     0.95141   0.72356   0.45232   0.00000  Uiso   1.00
C204   C     0.97126   0.69787   0.36533   0.00000  Uiso   1.00
C205   C     0.89840   0.67613   0.69311   0.00000  Uiso   1.00
C206   C     0.92261   0.68617   0.78778   0.00000  Uiso   1.00
C207   C     0.92930   0.64337   0.85423   0.00000  Uiso   1.00
H208   H     0.84283   0.58351   0.53722   0.00000  Uiso   1.00
H209   H     0.74497   0.61313   0.51762   0.00000  Uiso   1.00
H210   H     0.90381   0.58027   0.37547   0.00000  Uiso   1.00
H211   H     0.87502   0.54288   0.71088   0.00000  Uiso   1.00
H212   H     0.64393   0.66844   0.50792   0.00000  Uiso   1.00
H213   H     0.97888   0.59915   0.20820   0.00000  Uiso   1.00
H214   H     0.91816   0.52031   0.91548   0.00000  Uiso   1.00
H215   H     0.90038   0.75675   0.63016   0.00000  Uiso   1.00
H216   H     0.80566   0.79587   0.61567   0.00000  Uiso   1.00
H217   H     0.96451   0.76301   0.47351   0.00000  Uiso   1.00
H218   H     0.93571   0.72562   0.80892   0.00000  Uiso   1.00
H219   H     0.69319   0.81677   0.58749   0.00000  Uiso   1.00
H220   H     0.02815   0.74747   0.28777   0.00000  Uiso   1.00
H221   H     0.96742   0.66863   0.99505   0.00000  Uiso   1.00
O222   O     0.60522   0.76522   0.53646   0.00000  Uiso   1.00
O223   O     0.04467   0.67430   0.14325   0.00000  Uiso   1.00
O224   O     0.96500   0.57087   0.07119   0.00000  Uiso   1.00
N225   N     0.66852   0.69798   0.52865   0.00000  Uiso   1.00
N226   N     0.98168   0.63320   0.24842   0.00000  Uiso   1.00
N227   N     0.92492   0.55949   0.90966   0.00000  Uiso   1.00
N228   N     0.69503   0.77779   0.57147   0.00000  Uiso   1.00
N229   N     0.00818   0.71301   0.29124   0.00000  Uiso   1.00
N230   N     0.95143   0.63930   0.95248   0.00000  Uiso   1.00
C231   C     0.35601   0.12320   0.05852   0.00000  Uiso   1.00
C232   C     0.31082   0.16331   0.06077   0.00000  Uiso   1.00
C233   C     0.25805   0.15258   0.03879   0.00000  Uiso   1.00
C234   C     0.22277   0.19469   0.04514   0.00000  Uiso   1.00
C235   C     0.15002   0.24922   0.04442   0.00000  Uiso   1.00
C236   C     0.39712   0.14546   0.98352   0.00000  Uiso   1.00
C237   C     0.41692   0.11972   0.89661   0.00000  Uiso   1.00
C238   C     0.45430   0.14680   0.83794   0.00000  Uiso   1.00
C239   C     0.51556   0.17360   0.71734   0.00000  Uiso   1.00
C240   C     0.38147   0.12515   0.16576   0.00000  Uiso   1.00
C241   C     0.38812   0.08232   0.23207   0.00000  Uiso   1.00
C242   C     0.41233   0.09230   0.32683   0.00000  Uiso   1.00
C243   C     0.44930   0.08756   0.48918   0.00000  Uiso   1.00
C244   C     0.38719   0.21706   0.10887   0.00000  Uiso   1.00
C245   C     0.32775   0.21429   0.08811   0.00000  Uiso   1.00
C246   C     0.29254   0.25642   0.09450   0.00000  Uiso   1.00
C247   C     0.23974   0.24576   0.07254   0.00000  Uiso   1.00
C248   C     0.41406   0.19644   0.01087   0.00000  Uiso   1.00
C249   C     0.45141   0.22356   0.95232   0.00000  Uiso   1.00
C250   C     0.47126   0.19787   0.86533   0.00000  Uiso   1.00
C251   C     0.39840   0.17613   0.19311   0.00000  Uiso   1.00
C252   C     0.42261   0.18617   0.28778   0.00000  Uiso   1.00
C253   C     0.42930   0.14337   0.35423   0.00000  Uiso   1.00
H254   H     0.34283   0.08351   0.03722   0.00000  Uiso   1.00
H255   H     0.24497   0.11313   0.01762   0.00000  Uiso   1.00
H256   H     0.40381   0.08027   0.87547   0.00000  Uiso   1.00
H257   H     0.37502   0.04288   0.21088   0.00000  Uiso   1.00
H258   H     0.14393   0.16844   0.00792   0.00000  Uiso   1.00
H259   H     0.47888   0.09915   0.70820   0.00000  Uiso   1.00
H260   H     0.41816   0.02031   0.41548   0.00000  Uiso   1.00
H261   H     0.40038   0.25675   0.13016   0.00000  Uiso   1.00
H262   H     0.30566   0.29587   0.11567   0.00000  Uiso   1.00
H263   H     0.46451   0.26301   0.97351   0.00000  Uiso   1.00
H264   H     0.43571   0.22562   0.30892   0.00000  Uiso   1.00
H265   H     0.19319   0.31677   0.08749   0.00000  Uiso   1.00
H266   H     0.52815   0.24747   0.78777   0.00000  Uiso   1.00
H267   H     0.46742   0.16863   0.49505   0.00000  Uiso   1.00
O268   O     0.10522   0.26522   0.03646   0.00000  Uiso   1.00
O269   O     0.54467   0.17430   0.64325   0.00000  Uiso   1.00
O270   O     0.46500   0.07087   0.57119   0.00000  Uiso   1.00
N271   N     0.16852   0.19798   0.02865   0.00000  Uiso   1.00
N272   N     0.48168   0.13320   0.74842   0.00000  Uiso   1.00
N273   N     0.42492   0.05949   0.40966   0.00000  Uiso   1.00
N274   N     0.19503   0.27779   0.07147   0.00000  Uiso   1.00
N275   N     0.50818   0.21301   0.79124   0.00000  Uiso   1.00
N276   N     0.45143   0.13930   0.45248   0.00000  Uiso   1.00
C277   C     0.64399   0.87680   0.05852   0.00000  Uiso   1.00
C278   C     0.68918   0.83669   0.06077   0.00000  Uiso   1.00
C279   C     0.74195   0.84742   0.03879   0.00000  Uiso   1.00
C280   C     0.77723   0.80531   0.04514   0.00000  Uiso   1.00
C281   C     0.84998   0.75078   0.04442   0.00000  Uiso   1.00
C282   C     0.60288   0.85454   0.98352   0.00000  Uiso   1.00
C283   C     0.58308   0.88028   0.89661   0.00000  Uiso   1.00
C284   C     0.54570   0.85320   0.83794   0.00000  Uiso   1.00
C285   C     0.48444   0.82640   0.71734   0.00000  Uiso   1.00
C286   C     0.61853   0.87485   0.16576   0.00000  Uiso   1.00
C287   C     0.61188   0.91768   0.23207   0.00000  Uiso   1.00
C288   C     0.58767   0.90770   0.32683   0.00000  Uiso   1.00
C289   C     0.55070   0.91244   0.48918   0.00000  Uiso   1.00
C290   C     0.61281   0.78294   0.10887   0.00000  Uiso   1.00
C291   C     0.67225   0.78571   0.08811   0.00000  Uiso   1.00
C292   C     0.70746   0.74358   0.09450   0.00000  Uiso   1.00
C293   C     0.76026   0.75424   0.07254   0.00000  Uiso   1.00
C294   C     0.58594   0.80356   0.01087   0.00000  Uiso   1.00
C295   C     0.54859   0.77644   0.95232   0.00000  Uiso   1.00
C296   C     0.52874   0.80213   0.86533   0.00000  Uiso   1.00
C297   C     0.60160   0.82387   0.19311   0.00000  Uiso   1.00
C298   C     0.57739   0.81383   0.28778   0.00000  Uiso   1.00
C299   C     0.57070   0.85663   0.35423   0.00000  Uiso   1.00
H300   H     0.65717   0.91649   0.03722   0.00000  Uiso   1.00
H301   H     0.75503   0.88687   0.01762   0.00000  Uiso   1.00
H302   H     0.59619   0.91973   0.87547   0.00000  Uiso   1.00
H303   H     0.62498   0.95712   0.21088   0.00000  Uiso   1.00
H304   H     0.85607   0.83156   0.00792   0.00000  Uiso   1.00
H305   H     0.52112   0.90085   0.70820   0.00000  Uiso   1.00
H306   H     0.58184   0.97969   0.41548   0.00000  Uiso   1.00
H307   H     0.59962   0.74325   0.13016   0.00000  Uiso   1.00
H308   H     0.69434   0.70413   0.11567   0.00000  Uiso   1.00
H309   H     0.53549   0.73699   0.97351   0.00000  Uiso   1.00
H310   H     0.56429   0.77438   0.30892   0.00000  Uiso   1.00
H311   H     0.80681   0.68323   0.08749   0.00000  Uiso   1.00
H312   H     0.47185   0.75253   0.78777   0.00000  Uiso   1.00
H313   H     0.53258   0.83137   0.49505   0.00000  Uiso   1.00
O314   O     0.89478   0.73478   0.03646   0.00000  Uiso   1.00
O315   O     0.45533   0.82570   0.64325   0.00000  Uiso   1.00
O316   O     0.53500   0.92913   0.57119   0.00000  Uiso   1.00
N317   N     0.83148   0.80202   0.02865   0.00000  Uiso   1.00
N318   N     0.51832   0.86680   0.74842   0.00000  Uiso   1.00
N319   N     0.57508   0.94051   0.40966   0.00000  Uiso   1.00
N320   N     0.80497   0.72221   0.07147   0.00000  Uiso   1.00
N321   N     0.49182   0.78699   0.79124   0.00000  Uiso   1.00
N322   N     0.54857   0.86070   0.45248   0.00000  Uiso   1.00
C323   C     0.14399   0.37680   0.55852   0.00000  Uiso   1.00
C324   C     0.18918   0.33669   0.56077   0.00000  Uiso   1.00
C325   C     0.24195   0.34742   0.53879   0.00000  Uiso   1.00
C326   C     0.27723   0.30531   0.54514   0.00000  Uiso   1.00
C327   C     0.34998   0.25078   0.54442   0.00000  Uiso   1.00
C328   C     0.10288   0.35454   0.48352   0.00000  Uiso   1.00
C329   C     0.08308   0.38028   0.39661   0.00000  Uiso   1.00
C330   C     0.04570   0.35320   0.33794   0.00000  Uiso   1.00
C331   C     0.98444   0.32640   0.21734   0.00000  Uiso   1.00
C332   C     0.11853   0.37485   0.66576   0.00000  Uiso   1.00
C333   C     0.11188   0.41768   0.73207   0.00000  Uiso   1.00
C334   C     0.08767   0.40770   0.82683   0.00000  Uiso   1.00
C335   C     0.05070   0.41244   0.98918   0.00000  Uiso   1.00
C336   C     0.11281   0.28294   0.60887   0.00000  Uiso   1.00
C337   C     0.17225   0.28571   0.58811   0.00000  Uiso   1.00
C338   C     0.20746   0.24358   0.59450   0.00000  Uiso   1.00
C339   C     0.26026   0.25424   0.57254   0.00000  Uiso   1.00
C340   C     0.08594   0.30356   0.51087   0.00000  Uiso   1.00
C341   C     0.04859   0.27644   0.45232   0.00000  Uiso   1.00
C342   C     0.02874   0.30213   0.36533   0.00000  Uiso   1.00
C343   C     0.10160   0.32387   0.69311   0.00000  Uiso   1.00
C344   C     0.07739   0.31383   0.78778   0.00000  Uiso   1.00
C345   C     0.07070   0.35663   0.85423   0.00000  Uiso   1.00
H346   H     0.15717   0.41649   0.53722   0.00000  Uiso   1.00
H347   H     0.25503   0.38687   0.51762   0.00000  Uiso   1.00
H348   H     0.09619   0.41973   0.37547   0.00000  Uiso   1.00
H349   H     0.12498   0.45712   0.71088   0.00000  Uiso   1.00
H350   H     0.35607   0.33156   0.50792   0.00000  Uiso   1.00
H351   H     0.02112   0.40085   0.20820   0.00000  Uiso   1.00
H352   H     0.08184   0.47969   0.91548   0.00000  Uiso   1.00
H353   H     0.09962   0.24325   0.63016   0.00000  Uiso   1.00
H354   H     0.19434   0.20413   0.61567   0.00000  Uiso   1.00
H355   H     0.03549   0.23699   0.47351   0.00000  Uiso   1.00
H356   H     0.06429   0.27438   0.80892   0.00000  Uiso   1.00
H357   H     0.30681   0.18323   0.58749   0.00000  Uiso   1.00
H358   H     0.97185   0.25253   0.28777   0.00000  Uiso   1.00
H359   H     0.03258   0.33137   0.99505   0.00000  Uiso   1.00
O360   O     0.39478   0.23478   0.53646   0.00000  Uiso   1.00
O361   O     0.95533   0.32570   0.14325   0.00000  Uiso   1.00
O362   O     0.03500   0.42913   0.07119   0.00000  Uiso   1.00
N363   N     0.33148   0.30202   0.52865   0.00000  Uiso   1.00
N364   N     0.01832   0.36680   0.24842   0.00000  Uiso   1.00
N365   N     0.07508   0.44051   0.90966   0.00000  Uiso   1.00
N366   N     0.30497   0.22221   0.57147   0.00000  Uiso   1.00
N367   N     0.99182   0.28699   0.29124   0.00000  Uiso   1.00
N368   N     0.04857   0.36070   0.95248   0.00000  Uiso   1.00
C369   C     0.87680   0.35601   0.94148   0.00000  Uiso   1.00
C370   C     0.83669   0.31082   0.93923   0.00000  Uiso   1.00
C371   C     0.84742   0.25805   0.96121   0.00000  Uiso   1.00
C372   C     0.80531   0.22277   0.95486   0.00000  Uiso   1.00
C373   C     0.75078   0.15002   0.95558   0.00000  Uiso   1.00
C374   C     0.85454   0.39712   0.01648   0.00000  Uiso   1.00
C375   C     0.88028   0.41692   0.10339   0.00000  Uiso   1.00
C376   C     0.85320   0.45430   0.16206   0.00000  Uiso   1.00
C377   C     0.82640   0.51556   0.28266   0.00000  Uiso   1.00
C378   C     0.87485   0.38147   0.83424   0.00000  Uiso   1.00
C379   C     0.91768   0.38812   0.76793   0.00000  Uiso   1.00
C380   C     0.90770   0.41233   0.67317   0.00000  Uiso   1.00
C381   C     0.91244   0.44930   0.51082   0.00000  Uiso   1.00
C382   C     0.78294   0.38719   0.89113   0.00000  Uiso   1.00
C383   C     0.78571   0.32775   0.91189   0.00000  Uiso   1.00
C384   C     0.74358   0.29254   0.90550   0.00000  Uiso   1.00
C385   C     0.75424   0.23974   0.92746   0.00000  Uiso   1.00
C386   C     0.80356   0.41406   0.98913   0.00000  Uiso   1.00
C387   C     0.77644   0.45141   0.04768   0.00000  Uiso   1.00
C388   C     0.80213   0.47126   0.13467   0.00000  Uiso   1.00
C389   C     0.82387   0.39840   0.80689   0.00000  Uiso   1.00
C390   C     0.81383   0.42261   0.71222   0.00000  Uiso   1.00
C391   C     0.85663   0.42930   0.64577   0.00000  Uiso   1.00
H392   H     0.91649   0.34283   0.96278   0.00000  Uiso   1.00
H393   H     0.88687   0.24497   0.98238   0.00000  Uiso   1.00
H394   H     0.91973   0.40381   0.12453   0.00000  Uiso   1.00
H395   H     0.95712   0.37502   0.78912   0.00000  Uiso   1.00
H396   H     0.83156   0.14393   0.99208   0.00000  Uiso   1.00
H397   H     0.90085   0.47888   0.29180   0.00000  Uiso   1.00
H398   H     0.97969   0.41816   0.58452   0.00000  Uiso   1.00
H399   H     0.74325   0.40038   0.86984   0.00000  Uiso   1.00
H400   H     0.70413   0.30566   0.88433   0.00000  Uiso   1.00
H401   H     0.73699   0.46451   0.02649   0.00000  Uiso   1.00
H402   H     0.77438   0.43571   0.69108   0.00000  Uiso   1.00
H403   H     0.68323   0.19319   0.91251   0.00000  Uiso   1.00
H404   H     0.75253   0.52815   0.21223   0.00000  Uiso   1.00
H405   H     0.83137   0.46742   0.50495   0.00000  Uiso   1.00
O406   O     0.73478   0.10522   0.96354   0.00000  Uiso   1.00
O407   O     0.82570   0.54467   0.35675   0.00000  Uiso   1.00
O408   O     0.92913   0.46500   0.42881   0.00000  Uiso   1.00
N409   N     0.80202   0.16852   0.97135   0.00000  Uiso   1.00
N410   N     0.86680   0.48168   0.25158   0.00000  Uiso   1.00
N411   N     0.94051   0.42492   0.59034   0.00000  Uiso   1.00
N412   N     0.72221   0.19503   0.92853   0.00000  Uiso   1.00
N413   N     0.78699   0.50818   0.20876   0.00000  Uiso   1.00
N414   N     0.86070   0.45143   0.54752   0.00000  Uiso   1.00
C415   C     0.37680   0.85601   0.44148   0.00000  Uiso   1.00
C416   C     0.33669   0.81082   0.43923   0.00000  Uiso   1.00
C417   C     0.34742   0.75805   0.46121   0.00000  Uiso   1.00
C418   C     0.30531   0.72277   0.45486   0.00000  Uiso   1.00
C419   C     0.25078   0.65002   0.45558   0.00000  Uiso   1.00
C420   C     0.35454   0.89712   0.51648   0.00000  Uiso   1.00
C421   C     0.38028   0.91692   0.60339   0.00000  Uiso   1.00
C422   C     0.35320   0.95430   0.66206   0.00000  Uiso   1.00
C423   C     0.32640   0.01556   0.78266   0.00000  Uiso   1.00
C424   C     0.37485   0.88147   0.33424   0.00000  Uiso   1.00
C425   C     0.41768   0.88812   0.26793   0.00000  Uiso   1.00
C426   C     0.40770   0.91233   0.17317   0.00000  Uiso   1.00
C427   C     0.41244   0.94930   0.01082   0.00000  Uiso   1.00
C428   C     0.28294   0.88719   0.39113   0.00000  Uiso   1.00
C429   C     0.28571   0.82775   0.41189   0.00000  Uiso   1.00
C430   C     0.24358   0.79254   0.40550   0.00000  Uiso   1.00
C431   C     0.25424   0.73974   0.42746   0.00000  Uiso   1.00
C432   C     0.30356   0.91406   0.48913   0.00000  Uiso   1.00
C433   C     0.27644   0.95141   0.54768   0.00000  Uiso   1.00
C434   C     0.30213   0.97126   0.63467   0.00000  Uiso   1.00
C435   C     0.32387   0.89840   0.30689   0.00000  Uiso   1.00
C436   C     0.31383   0.92261   0.21222   0.00000  Uiso   1.00
C437   C     0.35663   0.92930   0.14577   0.00000  Uiso   1.00
H438   H     0.41649   0.84283   0.46278   0.00000  Uiso   1.00
H439   H     0.38687   0.74497   0.48238   0.00000  Uiso   1.00
H440   H     0.41973   0.90381   0.62453   0.00000  Uiso   1.00
H441   H     0.45712   0.87502   0.28912   0.00000  Uiso   1.00
H442   H     0.33156   0.64393   0.49208   0.00000  Uiso   1.00
H443   H     0.40085   0.97888   0.79180   0.00000  Uiso   1.00
H444   H     0.47969   0.91816   0.08452   0.00000  Uiso   1.00
H445   H     0.24325   0.90038   0.36984   0.00000  Uiso   1.00
H446   H     0.20413   0.80566   0.38433   0.00000  Uiso   1.00
H447   H     0.23699   0.96451   0.52649   0.00000  Uiso   1.00
H448   H     0.27438   0.93571   0.19108   0.00000  Uiso   1.00
H449   H     0.18323   0.69319   0.41251   0.00000  Uiso   1.00
H450   H     0.25253   0.02815   0.71223   0.00000  Uiso   1.00
H451   H     0.33137   0.96742   0.00495   0.00000  Uiso   1.00
O452   O     0.23478   0.60522   0.46354   0.00000  Uiso   1.00
O453   O     0.32570   0.04467   0.85675   0.00000  Uiso   1.00
O454   O     0.42913   0.96500   0.92881   0.00000  Uiso   1.00
N455   N     0.30202   0.66852   0.47135   0.00000  Uiso   1.00
N456   N     0.36680   0.98168   0.75158   0.00000  Uiso   1.00
N457   N     0.44051   0.92492   0.09034   0.00000  Uiso   1.00
N458   N     0.22221   0.69503   0.42853   0.00000  Uiso   1.00
N459   N     0.28699   0.00818   0.70876   0.00000  Uiso   1.00
N460   N     0.36070   0.95143   0.04752   0.00000  Uiso   1.00
C461   C     0.62320   0.14399   0.44148   0.00000  Uiso   1.00
C462   C     0.66331   0.18918   0.43923   0.00000  Uiso   1.00
C463   C     0.65258   0.24195   0.46121   0.00000  Uiso   1.00
C464   C     0.69469   0.27723   0.45486   0.00000  Uiso   1.00
C465   C     0.74922   0.34998   0.45558   0.00000  Uiso   1.00
C466   C     0.64546   0.10288   0.51648   0.00000  Uiso   1.00
C467   C     0.61972   0.08308   0.60339   0.00000  Uiso   1.00
C468   C     0.64680   0.04570   0.66206   0.00000  Uiso   1.00
C469   C     0.67360   0.98444   0.78266   0.00000  Uiso   1.00
C470   C     0.62515   0.11853   0.33424   0.00000  Uiso   1.00
C471   C     0.58232   0.11188   0.26793   0.00000  Uiso   1.00
C472   C     0.59230   0.08767   0.17317   0.00000  Uiso   1.00
C473   C     0.58756   0.05070   0.01082   0.00000  Uiso   1.00
C474   C     0.71706   0.11281   0.39113   0.00000  Uiso   1.00
C475   C     0.71429   0.17225   0.41189   0.00000  Uiso   1.00
C476   C     0.75642   0.20746   0.40550   0.00000  Uiso   1.00
C477   C     0.74576   0.26026   0.42746   0.00000  Uiso   1.00
C478   C     0.69644   0.08594   0.48913   0.00000  Uiso   1.00
C479   C     0.72356   0.04859   0.54768   0.00000  Uiso   1.00
C480   C     0.69787   0.02874   0.63467   0.00000  Uiso   1.00
C481   C     0.67613   0.10160   0.30689   0.00000  Uiso   1.00
C482   C     0.68617   0.07739   0.21222   0.00000  Uiso   1.00
C483   C     0.64337   0.07070   0.14577   0.00000  Uiso   1.00
H484   H     0.58351   0.15717   0.46278   0.00000  Uiso   1.00
H485   H     0.61313   0.25503   0.48238   0.00000  Uiso   1.00
H486   H     0.58027   0.09619   0.62453   0.00000  Uiso   1.00
H487   H     0.54288   0.12498   0.28912   0.00000  Uiso   1.00
H488   H     0.66844   0.35607   0.49208   0.00000  Uiso   1.00
H489   H     0.59915   0.02112   0.79180   0.00000  Uiso   1.00
H490   H     0.52031   0.08184   0.08452   0.00000  Uiso   1.00
H491   H     0.75675   0.09962   0.36984   0.00000  Uiso   1.00
H492   H     0.79587   0.19434   0.38433   0.00000  Uiso   1.00
H493   H     0.76301   0.03549   0.52649   0.00000  Uiso   1.00
H494   H     0.72562   0.06429   0.19108   0.00000  Uiso   1.00
H495   H     0.81677   0.30681   0.41251   0.00000  Uiso   1.00
H496   H     0.74747   0.97185   0.71223   0.00000  Uiso   1.00
H497   H     0.66863   0.03258   0.00495   0.00000  Uiso   1.00
O498   O     0.76522   0.39478   0.46354   0.00000  Uiso   1.00
O499   O     0.67430   0.95533   0.85675   0.00000  Uiso   1.00
O500   O     0.57087   0.03500   0.92881   0.00000  Uiso   1.00
N501   N     0.69798   0.33148   0.47135   0.00000  Uiso   1.00
N502   N     0.63320   0.01832   0.75158   0.00000  Uiso   1.00
N503   N     0.55949   0.07508   0.09034   0.00000  Uiso   1.00
N504   N     0.77779   0.30497   0.42853   0.00000  Uiso   1.00
N505   N     0.71301   0.99182   0.70876   0.00000  Uiso   1.00
N506   N     0.63930   0.04857   0.04752   0.00000  Uiso   1.00
C507   C     0.12320   0.64399   0.94148   0.00000  Uiso   1.00
C508   C     0.16331   0.68918   0.93923   0.00000  Uiso   1.00
C509   C     0.15258   0.74195   0.96121   0.00000  Uiso   1.00
C510   C     0.19469   0.77723   0.95486   0.00000  Uiso   1.00
C511   C     0.24922   0.84998   0.95558   0.00000  Uiso   1.00
C512   C     0.14546   0.60288   0.01648   0.00000  Uiso   1.00
C513   C     0.11972   0.58308   0.10339   0.00000  Uiso   1.00
C514   C     0.14680   0.54570   0.16206   0.00000  Uiso   1.00
C515   C     0.17360   0.48444   0.28266   0.00000  Uiso   1.00
C516   C     0.12515   0.61853   0.83424   0.00000  Uiso   1.00
C517   C     0.08232   0.61188   0.76793   0.00000  Uiso   1.00
C518   C     0.09230   0.58767   0.67317   0.00000  Uiso   1.00
C519   C     0.08756   0.55070   0.51082   0.00000  Uiso   1.00
C520   C     0.21706   0.61281   0.89113   0.00000  Uiso   1.00
C521   C     0.21429   0.67225   0.91189   0.00000  Uiso   1.00
C522   C     0.25642   0.70746   0.90550   0.00000  Uiso   1.00
C523   C     0.24576   0.76026   0.92746   0.00000  Uiso   1.00
C524   C     0.19644   0.58594   0.98913   0.00000  Uiso   1.00
C525   C     0.22356   0.54859   0.04768   0.00000  Uiso   1.00
C526   C     0.19787   0.52874   0.13467   0.00000  Uiso   1.00
C527   C     0.17613   0.60160   0.80689   0.00000  Uiso   1.00
C528   C     0.18617   0.57739   0.71222   0.00000  Uiso   1.00
C529   C     0.14337   0.57070   0.64577   0.00000  Uiso   1.00
H530   H     0.08351   0.65717   0.96278   0.00000  Uiso   1.00
H531   H     0.11313   0.75503   0.98238   0.00000  Uiso   1.00
H532   H     0.08027   0.59619   0.12453   0.00000  Uiso   1.00
H533   H     0.04288   0.62498   0.78912   0.00000  Uiso   1.00
H534   H     0.16844   0.85607   0.99208   0.00000  Uiso   1.00
H535   H     0.09915   0.52112   0.29180   0.00000  Uiso   1.00
H536   H     0.02031   0.58184   0.58452   0.00000  Uiso   1.00
H537   H     0.25675   0.59962   0.86984   0.00000  Uiso   1.00
H538   H     0.29587   0.69434   0.88433   0.00000  Uiso   1.00
H539   H     0.26301   0.53549   0.02649   0.00000  Uiso   1.00
H540   H     0.22562   0.56429   0.69108   0.00000  Uiso   1.00
H541   H     0.31677   0.80681   0.91251   0.00000  Uiso   1.00
H542   H     0.24747   0.47185   0.21223   0.00000  Uiso   1.00
H543   H     0.16863   0.53258   0.50495   0.00000  Uiso   1.00
O544   O     0.26522   0.89478   0.96354   0.00000  Uiso   1.00
O545   O     0.17430   0.45533   0.35675   0.00000  Uiso   1.00
O546   O     0.07087   0.53500   0.42881   0.00000  Uiso   1.00
N547   N     0.19798   0.83148   0.97135   0.00000  Uiso   1.00
N548   N     0.13320   0.51832   0.25158   0.00000  Uiso   1.00
N549   N     0.05949   0.57508   0.59034   0.00000  Uiso   1.00
N550   N     0.27779   0.80497   0.92853   0.00000  Uiso   1.00
N551   N     0.21301   0.49182   0.20876   0.00000  Uiso   1.00
N552   N     0.13930   0.54857   0.54752   0.00000  Uiso   1.00
C553   C     0.14399   0.87680   0.69148   0.00000  Uiso   1.00
C554   C     0.18918   0.83669   0.68923   0.00000  Uiso   1.00
C555   C     0.24195   0.84742   0.71121   0.00000  Uiso   1.00
C556   C     0.27723   0.80531   0.70486   0.00000  Uiso   1.00
C557   C     0.34998   0.75078   0.70558   0.00000  Uiso   1.00
C558   C     0.10288   0.85454   0.76648   0.00000  Uiso   1.00
C559   C     0.08308   0.88028   0.85339   0.00000  Uiso   1.00
C560   C     0.04570   0.85320   0.91206   0.00000  Uiso   1.00
C561   C     0.98444   0.82640   0.03266   0.00000  Uiso   1.00
C562   C     0.11853   0.87485   0.58424   0.00000  Uiso   1.00
C563   C     0.11188   0.91768   0.51793   0.00000  Uiso   1.00
C564   C     0.08767   0.90770   0.42317   0.00000  Uiso   1.00
C565   C     0.05070   0.91244   0.26082   0.00000  Uiso   1.00
C566   C     0.11281   0.78294   0.64113   0.00000  Uiso   1.00
C567   C     0.17225   0.78571   0.66189   0.00000  Uiso   1.00
C568   C     0.20746   0.74358   0.65550   0.00000  Uiso   1.00
C569   C     0.26026   0.75424   0.67746   0.00000  Uiso   1.00
C570   C     0.08594   0.80356   0.73913   0.00000  Uiso   1.00
C571   C     0.04859   0.77644   0.79768   0.00000  Uiso   1.00
C572   C     0.02874   0.80213   0.88467   0.00000  Uiso   1.00
C573   C     0.10160   0.82387   0.55689   0.00000  Uiso   1.00
C574   C     0.07739   0.81383   0.46222   0.00000  Uiso   1.00
C575   C     0.07070   0.85663   0.39577   0.00000  Uiso   1.00
H576   H     0.15717   0.91649   0.71278   0.00000  Uiso   1.00
H577   H     0.25503   0.88687   0.73238   0.00000  Uiso   1.00
H578   H     0.09619   0.91973   0.87453   0.00000  Uiso   1.00
H579   H     0.12498   0.95712   0.53912   0.00000  Uiso   1.00
H580   H     0.35607   0.83156   0.74208   0.00000  Uiso   1.00
H581   H     0.02112   0.90085   0.04180   0.00000  Uiso   1.00
H582   H     0.08184   0.97969   0.33452   0.00000  Uiso   1.00
H583   H     0.09962   0.74325   0.61984   0.00000  Uiso   1.00
H584   H     0.19434   0.70413   0.63433   0.00000  Uiso   1.00
H585   H     0.03549   0.73699   0.77649   0.00000  Uiso   1.00
H586   H     0.06429   0.77438   0.44108   0.00000  Uiso   1.00
H587   H     0.30681   0.68323   0.66251   0.00000  Uiso   1.00
H588   H     0.97185   0.75253   0.96223   0.00000  Uiso   1.00
H589   H     0.03258   0.83137   0.25495   0.00000  Uiso   1.00
O590   O     0.39478   0.73478   0.71354   0.00000  Uiso   1.00
O591   O     0.95533   0.82570   0.10675   0.00000  Uiso   1.00
O592   O     0.03500   0.92913   0.17881   0.00000  Uiso   1.00
N593   N     0.33148   0.80202   0.72135   0.00000  Uiso   1.00
N594   N     0.01832   0.86680   0.00158   0.00000  Uiso   1.00
N595   N     0.07508   0.94051   0.34034   0.00000  Uiso   1.00
N596   N     0.30497   0.72221   0.67853   0.00000  Uiso   1.00
N597   N     0.99182   0.78699   0.95876   0.00000  Uiso   1.00
N598   N     0.04857   0.86070   0.29752   0.00000  Uiso   1.00
C599   C     0.64399   0.37680   0.19148   0.00000  Uiso   1.00
C600   C     0.68918   0.33669   0.18923   0.00000  Uiso   1.00
C601   C     0.74195   0.34742   0.21121   0.00000  Uiso   1.00
C602   C     0.77723   0.30531   0.20486   0.00000  Uiso   1.00
C603   C     0.84998   0.25078   0.20558   0.00000  Uiso   1.00
C604   C     0.60288   0.35454   0.26648   0.00000  Uiso   1.00
C605   C     0.58308   0.38028   0.35339   0.00000  Uiso   1.00
C606   C     0.54570   0.35320   0.41206   0.00000  Uiso   1.00
C607   C     0.48444   0.32640   0.53266   0.00000  Uiso   1.00
C608   C     0.61853   0.37485   0.08424   0.00000  Uiso   1.00
C609   C     0.61188   0.41768   0.01793   0.00000  Uiso   1.00
C610   C     0.58767   0.40770   0.92317   0.00000  Uiso   1.00
C611   C     0.55070   0.41244   0.76082   0.00000  Uiso   1.00
C612   C     0.61281   0.28294   0.14113   0.00000  Uiso   1.00
C613   C     0.67225   0.28571   0.16189   0.00000  Uiso   1.00
C614   C     0.70746   0.24358   0.15550   0.00000  Uiso   1.00
C615   C     0.76026   0.25424   0.17746   0.00000  Uiso   1.00
C616   C     0.58594   0.30356   0.23913   0.00000  Uiso   1.00
C617   C     0.54859   0.27644   0.29768   0.00000  Uiso   1.00
C618   C     0.52874   0.30213   0.38467   0.00000  Uiso   1.00
C619   C     0.60160   0.32387   0.05689   0.00000  Uiso   1.00
C620   C     0.57739   0.31383   0.96222   0.00000  Uiso   1.00
C621   C     0.57070   0.35663   0.89577   0.00000  Uiso   1.00
H622   H     0.65717   0.41649   0.21278   0.00000  Uiso   1.00
H623   H     0.75503   0.38687   0.23238   0.00000  Uiso   1.00
H624   H     0.59619   0.41973   0.37453   0.00000  Uiso   1.00
H625   H     0.62498   0.45712   0.03912   0.00000  Uiso   1.00
H626   H     0.85607   0.33156   0.24208   0.00000  Uiso   1.00
H627   H     0.52112   0.40085   0.54180   0.00000  Uiso   1.00
H628   H     0.58184   0.47969   0.83452   0.00000  Uiso   1.00
H629   H     0.59962   0.24325   0.11984   0.00000  Uiso   1.00
H630   H     0.69434   0.20413   0.13433   0.00000  Uiso   1.00
H631   H     0.53549   0.23699   0.27649   0.00000  Uiso   1.00
H632   H     0.56429   0.27438   0.94108   0.00000  Uiso   1.00
H633   H     0.80681   0.18323   0.16251   0.00000  Uiso   1.00
H634   H     0.47185   0.25253   0.46223   0.00000  Uiso   1.00
H635   H     0.53258   0.33137   0.75495   0.00000  Uiso   1.00
O636   O     0.89478   0.23478   0.21354   0.00000  Uiso   1.00
O637   O     0.45533   0.32570   0.60675   0.00000  Uiso   1.00
O638   O     0.53500   0.42913   0.67881   0.00000  Uiso   1.00
N639   N     0.83148   0.30202   0.22135   0.00000  Uiso   1.00
N640   N     0.51832   0.36680   0.50158   0.00000  Uiso   1.00
N641   N     0.57508   0.44051   0.84034   0.00000  Uiso   1.00
N642   N     0.80497   0.22221   0.17853   0.00000  Uiso   1.00
N643   N     0.49182   0.28699   0.45876   0.00000  Uiso   1.00
N644   N     0.54857   0.36070   0.79752   0.00000  Uiso   1.00
C645   C     0.35601   0.62320   0.19148   0.00000  Uiso   1.00
C646   C     0.31082   0.66331   0.18923   0.00000  Uiso   1.00
C647   C     0.25805   0.65258   0.21121   0.00000  Uiso   1.00
C648   C     0.22277   0.69469   0.20486   0.00000  Uiso   1.00
C649   C     0.15002   0.74922   0.20558   0.00000  Uiso   1.00
C650   C     0.39712   0.64546   0.26648   0.00000  Uiso   1.00
C651   C     0.41692   0.61972   0.35339   0.00000  Uiso   1.00
C652   C     0.45430   0.64680   0.41206   0.00000  Uiso   1.00
C653   C     0.51556   0.67360   0.53266   0.00000  Uiso   1.00
C654   C     0.38147   0.62515   0.08424   0.00000  Uiso   1.00
C655   C     0.38812   0.58232   0.01793   0.00000  Uiso   1.00
C656   C     0.41233   0.59230   0.92317   0.00000  Uiso   1.00
C657   C     0.44930   0.58756   0.76082   0.00000  Uiso   1.00
C658   C     0.38719   0.71706   0.14113   0.00000  Uiso   1.00
C659   C     0.32775   0.71429   0.16189   0.00000  Uiso   1.00
C660   C     0.29254   0.75642   0.15550   0.00000  Uiso   1.00
C661   C     0.23974   0.74576   0.17746   0.00000  Uiso   1.00
C662   C     0.41406   0.69644   0.23913   0.00000  Uiso   1.00
C663   C     0.45141   0.72356   0.29768   0.00000  Uiso   1.00
C664   C     0.47126   0.69787   0.38467   0.00000  Uiso   1.00
C665   C     0.39840   0.67613   0.05689   0.00000  Uiso   1.00
C666   C     0.42261   0.68617   0.96222   0.00000  Uiso   1.00
C667   C     0.42930   0.64337   0.89577   0.00000  Uiso   1.00
H668   H     0.34283   0.58351   0.21278   0.00000  Uiso   1.00
H669   H     0.24497   0.61313   0.23238   0.00000  Uiso   1.00
H670   H     0.40381   0.58027   0.37453   0.00000  Uiso   1.00
H671   H     0.37502   0.54288   0.03912   0.00000  Uiso   1.00
H672   H     0.14393   0.66844   0.24208   0.00000  Uiso   1.00
H673   H     0.47888   0.59915   0.54180   0.00000  Uiso   1.00
H674   H     0.41816   0.52031   0.83452   0.00000  Uiso   1.00
H675   H     0.40038   0.75675   0.11984   0.00000  Uiso   1.00
H676   H     0.30566   0.79587   0.13433   0.00000  Uiso   1.00
H677   H     0.46451   0.76301   0.27649   0.00000  Uiso   1.00
H678   H     0.43571   0.72562   0.94108   0.00000  Uiso   1.00
H679   H     0.19319   0.81677   0.16251   0.00000  Uiso   1.00
H680   H     0.52815   0.74747   0.46223   0.00000  Uiso   1.00
H681   H     0.46742   0.66863   0.75495   0.00000  Uiso   1.00
O682   O     0.10522   0.76522   0.21354   0.00000  Uiso   1.00
O683   O     0.54467   0.67430   0.60675   0.00000  Uiso   1.00
O684   O     0.46500   0.57087   0.67881   0.00000  Uiso   1.00
N685   N     0.16852   0.69798   0.22135   0.00000  Uiso   1.00
N686   N     0.48168   0.63320   0.50158   0.00000  Uiso   1.00
N687   N     0.42492   0.55949   0.84034   0.00000  Uiso   1.00
N688   N     0.19503   0.77779   0.17853   0.00000  Uiso   1.00
N689   N     0.50818   0.71301   0.45876   0.00000  Uiso   1.00
N690   N     0.45143   0.63930   0.79752   0.00000  Uiso   1.00
C691   C     0.85601   0.12320   0.69148   0.00000  Uiso   1.00
C692   C     0.81082   0.16331   0.68923   0.00000  Uiso   1.00
C693   C     0.75805   0.15258   0.71121   0.00000  Uiso   1.00
C694   C     0.72277   0.19469   0.70486   0.00000  Uiso   1.00
C695   C     0.65002   0.24922   0.70558   0.00000  Uiso   1.00
C696   C     0.89712   0.14546   0.76648   0.00000  Uiso   1.00
C697   C     0.91692   0.11972   0.85339   0.00000  Uiso   1.00
C698   C     0.95430   0.14680   0.91206   0.00000  Uiso   1.00
C699   C     0.01556   0.17360   0.03266   0.00000  Uiso   1.00
C700   C     0.88147   0.12515   0.58424   0.00000  Uiso   1.00
C701   C     0.88812   0.08232   0.51793   0.00000  Uiso   1.00
C702   C     0.91233   0.09230   0.42317   0.00000  Uiso   1.00
C703   C     0.94930   0.08756   0.26082   0.00000  Uiso   1.00
C704   C     0.88719   0.21706   0.64113   0.00000  Uiso   1.00
C705   C     0.82775   0.21429   0.66189   0.00000  Uiso   1.00
C706   C     0.79254   0.25642   0.65550   0.00000  Uiso   1.00
C707   C     0.73974   0.24576   0.67746   0.00000  Uiso   1.00
C708   C     0.91406   0.19644   0.73913   0.00000  Uiso   1.00
C709   C     0.95141   0.22356   0.79768   0.00000  Uiso   1.00
C710   C     0.97126   0.19787   0.88467   0.00000  Uiso   1.00
C711   C     0.89840   0.17613   0.55689   0.00000  Uiso   1.00
C712   C     0.92261   0.18617   0.46222   0.00000  Uiso   1.00
C713   C     0.92930   0.14337   0.39577   0.00000  Uiso   1.00
H714   H     0.84283   0.08351   0.71278   0.00000  Uiso   1.00
H715   H     0.74497   0.11313   0.73238   0.00000  Uiso   1.00
H716   H     0.90381   0.08027   0.87453   0.00000  Uiso   1.00
H717   H     0.87502   0.04288   0.53912   0.00000  Uiso   1.00
H718   H     0.64393   0.16844   0.74208   0.00000  Uiso   1.00
H719   H     0.97888   0.09915   0.04180   0.00000  Uiso   1.00
H720   H     0.91816   0.02031   0.33452   0.00000  Uiso   1.00
H721   H     0.90038   0.25675   0.61984   0.00000  Uiso   1.00
H722   H     0.80566   0.29587   0.63433   0.00000  Uiso   1.00
H723   H     0.96451   0.26301   0.77649   0.00000  Uiso   1.00
H724   H     0.93571   0.22562   0.44108   0.00000  Uiso   1.00
H725   H     0.69319   0.31677   0.66251   0.00000  Uiso   1.00
H726   H     0.02815   0.24747   0.96223   0.00000  Uiso   1.00
H727   H     0.96742   0.16863   0.25495   0.00000  Uiso   1.00
O728   O     0.60522   0.26522   0.71354   0.00000  Uiso   1.00
O729   O     0.04467   0.17430   0.10675   0.00000  Uiso   1.00
O730   O     0.96500   0.07087   0.17881   0.00000  Uiso   1.00
N731   N     0.66852   0.19798   0.72135   0.00000  Uiso   1.00
N732   N     0.98168   0.13320   0.00158   0.00000  Uiso   1.00
N733   N     0.92492   0.05949   0.34034   0.00000  Uiso   1.00
N734   N     0.69503   0.27779   0.67853   0.00000  Uiso   1.00
N735   N     0.00818   0.21301   0.95876   0.00000  Uiso   1.00
N736   N     0.95143   0.13930   0.29752   0.00000  Uiso   1.00
