data_job_05256
_audit_creation_date              2018-12-19
_audit_creation_method            'Materials Studio'
_symmetry_space_group_name_H-M    'P1'
_symmetry_Int_Tables_number       1
_symmetry_cell_setting            triclinic
loop_
_symmetry_equiv_pos_as_xyz
  x,y,z
_cell_length_a                    24.0741
_cell_length_b                    16.7052
_cell_length_c                    24.7623
_cell_angle_alpha                 90.0000
_cell_angle_beta                  90.0000
_cell_angle_gamma                 90.0000
loop_
_atom_site_label
_atom_site_type_symbol
_atom_site_fract_x
_atom_site_fract_y
_atom_site_fract_z
_atom_site_U_iso_or_equiv
_atom_site_adp_type
_atom_site_occupancy
C1     C     0.67815   0.42622   0.40180   0.00000  Uiso   1.00
C2     C     0.69253   0.34107   0.38455   0.00000  Uiso   1.00
C3     C     0.74483   0.30632   0.38697   0.00000  Uiso   1.00
C4     C     0.74941   0.22774   0.36927   0.00000  Uiso   1.00
C5     C     0.77875   0.10197   0.34543   0.00000  Uiso   1.00
C6     C     0.65170   0.46585   0.35264   0.00000  Uiso   1.00
C7     C     0.66967   0.53601   0.32824   0.00000  Uiso   1.00
C8     C     0.63986   0.56247   0.28368   0.00000  Uiso   1.00
C9     C     0.60579   0.63044   0.21031   0.00000  Uiso   1.00
C10    C     0.63205   0.41844   0.44370   0.00000  Uiso   1.00
C11    C     0.63349   0.44877   0.49586   0.00000  Uiso   1.00
C12    C     0.58713   0.43533   0.52796   0.00000  Uiso   1.00
C13    C     0.52256   0.42971   0.59598   0.00000  Uiso   1.00
C14    C     0.59326   0.34844   0.36606   0.00000  Uiso   1.00
C15    C     0.64642   0.29883   0.36514   0.00000  Uiso   1.00
C16    C     0.65092   0.22028   0.34743   0.00000  Uiso   1.00
C17    C     0.70322   0.18542   0.34983   0.00000  Uiso   1.00
C18    C     0.60559   0.42360   0.33323   0.00000  Uiso   1.00
C19    C     0.57575   0.44996   0.28869   0.00000  Uiso   1.00
C20    C     0.59367   0.52015   0.26423   0.00000  Uiso   1.00
C21    C     0.58594   0.37620   0.42429   0.00000  Uiso   1.00
C22    C     0.53957   0.36272   0.45631   0.00000  Uiso   1.00
C23    C     0.54094   0.39302   0.50851   0.00000  Uiso   1.00
H24    H     0.71405   0.45911   0.41691   0.00000  Uiso   1.00
H25    H     0.78051   0.33904   0.40200   0.00000  Uiso   1.00
H26    H     0.70535   0.56869   0.34327   0.00000  Uiso   1.00
H27    H     0.66918   0.48146   0.51087   0.00000  Uiso   1.00
H28    H     0.83386   0.18730   0.37688   0.00000  Uiso   1.00
H29    H     0.67537   0.67155   0.25307   0.00000  Uiso   1.00
H30    H     0.59910   0.48761   0.60648   0.00000  Uiso   1.00
H31    H     0.55737   0.31556   0.35094   0.00000  Uiso   1.00
H32    H     0.61523   0.18760   0.33241   0.00000  Uiso   1.00
H33    H     0.54007   0.41726   0.27368   0.00000  Uiso   1.00
H34    H     0.50390   0.33003   0.44128   0.00000  Uiso   1.00
H35    H     0.69971   0.06438   0.32040   0.00000  Uiso   1.00
H36    H     0.54122   0.54864   0.19659   0.00000  Uiso   1.00
H37    H     0.46495   0.36470   0.55000   0.00000  Uiso   1.00
O38    O     0.80768   0.04427   0.33763   0.00000  Uiso   1.00
O39    O     0.59974   0.67960   0.17520   0.00000  Uiso   1.00
O40    O     0.49968   0.43827   0.63886   0.00000  Uiso   1.00
N41    N     0.79435   0.17592   0.36614   0.00000  Uiso   1.00
N42    N     0.64617   0.62867   0.25038   0.00000  Uiso   1.00
N43    N     0.57486   0.45671   0.58078   0.00000  Uiso   1.00
N44    N     0.72216   0.10979   0.33575   0.00000  Uiso   1.00
N45    N     0.57399   0.56253   0.21999   0.00000  Uiso   1.00
N46    N     0.50268   0.39058   0.55039   0.00000  Uiso   1.00
C47    C     0.68802   0.07999   0.06841   0.00000  Uiso   1.00
C48    C     0.70176   0.16491   0.08663   0.00000  Uiso   1.00
C49    C     0.75381   0.20049   0.08469   0.00000  Uiso   1.00
C50    C     0.75778   0.27869   0.10327   0.00000  Uiso   1.00
C51    C     0.78618   0.40430   0.12858   0.00000  Uiso   1.00
C52    C     0.66177   0.03876   0.11708   0.00000  Uiso   1.00
C53    C     0.68020   0.96828   0.14072   0.00000  Uiso   1.00
C54    C     0.65051   0.94029   0.18493   0.00000  Uiso   1.00
C55    C     0.61681   0.87002   0.25747   0.00000  Uiso   1.00
C56    C     0.64194   0.08810   0.02652   0.00000  Uiso   1.00
C57    C     0.64368   0.05908   0.97404   0.00000  Uiso   1.00
C58    C     0.59728   0.07261   0.94200   0.00000  Uiso   1.00
C59    C     0.53279   0.07893   0.87395   0.00000  Uiso   1.00
C60    C     0.60251   0.15560   0.10487   0.00000  Uiso   1.00
C61    C     0.65531   0.20597   0.10643   0.00000  Uiso   1.00
C62    C     0.65921   0.28415   0.12502   0.00000  Uiso   1.00
C63    C     0.71125   0.31984   0.12311   0.00000  Uiso   1.00
C64    C     0.61533   0.07983   0.13688   0.00000  Uiso   1.00
C65    C     0.58560   0.05194   0.18106   0.00000  Uiso   1.00
C66    C     0.60398   0.98143   0.20477   0.00000  Uiso   1.00
C67    C     0.59549   0.12917   0.04632   0.00000  Uiso   1.00
C68    C     0.54908   0.14274   0.01437   0.00000  Uiso   1.00
C69    C     0.55076   0.11375   0.96184   0.00000  Uiso   1.00
H70    H     0.72418   0.04801   0.05300   0.00000  Uiso   1.00
H71    H     0.78974   0.16869   0.06937   0.00000  Uiso   1.00
H72    H     0.71614   0.93651   0.12539   0.00000  Uiso   1.00
H73    H     0.67963   0.02730   0.95873   0.00000  Uiso   1.00
H74    H     0.84195   0.32058   0.09627   0.00000  Uiso   1.00
H75    H     0.68676   0.83101   0.21437   0.00000  Uiso   1.00
H76    H     0.60976   0.02245   0.86294   0.00000  Uiso   1.00
H77    H     0.56635   0.18757   0.12029   0.00000  Uiso   1.00
H78    H     0.62326   0.31591   0.14034   0.00000  Uiso   1.00
H79    H     0.54966   0.08373   0.19636   0.00000  Uiso   1.00
H80    H     0.51315   0.17452   0.02970   0.00000  Uiso   1.00
H81    H     0.70683   0.44007   0.15387   0.00000  Uiso   1.00
H82    H     0.55163   0.95049   0.27198   0.00000  Uiso   1.00
H83    H     0.47464   0.14194   0.92054   0.00000  Uiso   1.00
O84    O     0.81467   0.46223   0.13707   0.00000  Uiso   1.00
O85    O     0.61106   0.81992   0.29201   0.00000  Uiso   1.00
O86    O     0.51004   0.07109   0.83094   0.00000  Uiso   1.00
N87    N     0.80234   0.33110   0.10706   0.00000  Uiso   1.00
N88    N     0.65725   0.87338   0.21749   0.00000  Uiso   1.00
N89    N     0.58525   0.05234   0.88893   0.00000  Uiso   1.00
N90    N     0.72963   0.39540   0.13806   0.00000  Uiso   1.00
N91    N     0.58454   0.93768   0.24849   0.00000  Uiso   1.00
N92    N     0.51255   0.11664   0.91993   0.00000  Uiso   1.00
C93    C     0.82185   0.57378   0.40180   0.00000  Uiso   1.00
C94    C     0.80747   0.65893   0.38455   0.00000  Uiso   1.00
C95    C     0.75517   0.69368   0.38697   0.00000  Uiso   1.00
C96    C     0.75059   0.77226   0.36927   0.00000  Uiso   1.00
C97    C     0.72125   0.89803   0.34543   0.00000  Uiso   1.00
C98    C     0.84830   0.53415   0.35264   0.00000  Uiso   1.00
C99    C     0.83033   0.46399   0.32824   0.00000  Uiso   1.00
C100   C     0.86014   0.43753   0.28368   0.00000  Uiso   1.00
C101   C     0.89421   0.36956   0.21031   0.00000  Uiso   1.00
C102   C     0.86795   0.58156   0.44370   0.00000  Uiso   1.00
C103   C     0.86651   0.55123   0.49586   0.00000  Uiso   1.00
C104   C     0.91287   0.56467   0.52796   0.00000  Uiso   1.00
C105   C     0.97744   0.57029   0.59598   0.00000  Uiso   1.00
C106   C     0.90674   0.65156   0.36606   0.00000  Uiso   1.00
C107   C     0.85358   0.70117   0.36514   0.00000  Uiso   1.00
C108   C     0.84908   0.77972   0.34743   0.00000  Uiso   1.00
C109   C     0.79678   0.81458   0.34983   0.00000  Uiso   1.00
C110   C     0.89441   0.57640   0.33323   0.00000  Uiso   1.00
C111   C     0.92425   0.55004   0.28869   0.00000  Uiso   1.00
C112   C     0.90633   0.47985   0.26423   0.00000  Uiso   1.00
C113   C     0.91406   0.62380   0.42429   0.00000  Uiso   1.00
C114   C     0.96043   0.63728   0.45631   0.00000  Uiso   1.00
C115   C     0.95906   0.60698   0.50851   0.00000  Uiso   1.00
H116   H     0.78595   0.54089   0.41691   0.00000  Uiso   1.00
H117   H     0.71949   0.66096   0.40200   0.00000  Uiso   1.00
H118   H     0.79465   0.43131   0.34327   0.00000  Uiso   1.00
H119   H     0.83082   0.51854   0.51087   0.00000  Uiso   1.00
H120   H     0.66614   0.81270   0.37688   0.00000  Uiso   1.00
H121   H     0.82463   0.32845   0.25307   0.00000  Uiso   1.00
H122   H     0.90090   0.51239   0.60648   0.00000  Uiso   1.00
H123   H     0.94263   0.68444   0.35094   0.00000  Uiso   1.00
H124   H     0.88477   0.81240   0.33241   0.00000  Uiso   1.00
H125   H     0.95993   0.58274   0.27368   0.00000  Uiso   1.00
H126   H     0.99610   0.66997   0.44128   0.00000  Uiso   1.00
H127   H     0.80029   0.93562   0.32040   0.00000  Uiso   1.00
H128   H     0.95878   0.45136   0.19659   0.00000  Uiso   1.00
H129   H     0.03505   0.63530   0.55000   0.00000  Uiso   1.00
O130   O     0.69232   0.95573   0.33763   0.00000  Uiso   1.00
O131   O     0.90026   0.32040   0.17520   0.00000  Uiso   1.00
O132   O     0.00032   0.56173   0.63886   0.00000  Uiso   1.00
N133   N     0.70565   0.82408   0.36614   0.00000  Uiso   1.00
N134   N     0.85383   0.37133   0.25038   0.00000  Uiso   1.00
N135   N     0.92514   0.54329   0.58078   0.00000  Uiso   1.00
N136   N     0.77784   0.89021   0.33575   0.00000  Uiso   1.00
N137   N     0.92601   0.43747   0.21999   0.00000  Uiso   1.00
N138   N     0.99732   0.60942   0.55039   0.00000  Uiso   1.00
C139   C     0.81198   0.92001   0.06841   0.00000  Uiso   1.00
C140   C     0.79824   0.83509   0.08663   0.00000  Uiso   1.00
C141   C     0.74619   0.79951   0.08469   0.00000  Uiso   1.00
C142   C     0.74222   0.72131   0.10327   0.00000  Uiso   1.00
C143   C     0.71382   0.59570   0.12858   0.00000  Uiso   1.00
C144   C     0.83823   0.96124   0.11708   0.00000  Uiso   1.00
C145   C     0.81980   0.03172   0.14072   0.00000  Uiso   1.00
C146   C     0.84949   0.05971   0.18493   0.00000  Uiso   1.00
C147   C     0.88319   0.12998   0.25747   0.00000  Uiso   1.00
C148   C     0.85806   0.91190   0.02652   0.00000  Uiso   1.00
C149   C     0.85632   0.94092   0.97404   0.00000  Uiso   1.00
C150   C     0.90272   0.92739   0.94200   0.00000  Uiso   1.00
C151   C     0.96721   0.92107   0.87395   0.00000  Uiso   1.00
C152   C     0.89749   0.84440   0.10487   0.00000  Uiso   1.00
C153   C     0.84469   0.79403   0.10643   0.00000  Uiso   1.00
C154   C     0.84079   0.71585   0.12502   0.00000  Uiso   1.00
C155   C     0.78875   0.68016   0.12311   0.00000  Uiso   1.00
C156   C     0.88467   0.92017   0.13688   0.00000  Uiso   1.00
C157   C     0.91440   0.94806   0.18106   0.00000  Uiso   1.00
C158   C     0.89602   0.01857   0.20477   0.00000  Uiso   1.00
C159   C     0.90451   0.87083   0.04632   0.00000  Uiso   1.00
C160   C     0.95092   0.85726   0.01437   0.00000  Uiso   1.00
C161   C     0.94924   0.88625   0.96184   0.00000  Uiso   1.00
H162   H     0.77582   0.95199   0.05300   0.00000  Uiso   1.00
H163   H     0.71026   0.83131   0.06937   0.00000  Uiso   1.00
H164   H     0.78386   0.06349   0.12539   0.00000  Uiso   1.00
H165   H     0.82037   0.97270   0.95873   0.00000  Uiso   1.00
H166   H     0.65805   0.67942   0.09627   0.00000  Uiso   1.00
H167   H     0.81324   0.16899   0.21437   0.00000  Uiso   1.00
H168   H     0.89024   0.97755   0.86294   0.00000  Uiso   1.00
H169   H     0.93365   0.81243   0.12029   0.00000  Uiso   1.00
H170   H     0.87674   0.68409   0.14034   0.00000  Uiso   1.00
H171   H     0.95034   0.91627   0.19636   0.00000  Uiso   1.00
H172   H     0.98685   0.82548   0.02970   0.00000  Uiso   1.00
H173   H     0.79317   0.55993   0.15387   0.00000  Uiso   1.00
H174   H     0.94837   0.04951   0.27198   0.00000  Uiso   1.00
H175   H     0.02536   0.85806   0.92054   0.00000  Uiso   1.00
O176   O     0.68533   0.53777   0.13707   0.00000  Uiso   1.00
O177   O     0.88894   0.18008   0.29201   0.00000  Uiso   1.00
O178   O     0.98996   0.92891   0.83094   0.00000  Uiso   1.00
N179   N     0.69766   0.66890   0.10706   0.00000  Uiso   1.00
N180   N     0.84275   0.12662   0.21749   0.00000  Uiso   1.00
N181   N     0.91475   0.94766   0.88893   0.00000  Uiso   1.00
N182   N     0.77037   0.60460   0.13806   0.00000  Uiso   1.00
N183   N     0.91546   0.06232   0.24849   0.00000  Uiso   1.00
N184   N     0.98745   0.88336   0.91993   0.00000  Uiso   1.00
C185   C     0.32185   0.42622   0.09820   0.00000  Uiso   1.00
C186   C     0.30747   0.34107   0.11545   0.00000  Uiso   1.00
C187   C     0.25517   0.30632   0.11303   0.00000  Uiso   1.00
C188   C     0.25059   0.22774   0.13073   0.00000  Uiso   1.00
C189   C     0.22125   0.10197   0.15457   0.00000  Uiso   1.00
C190   C     0.34830   0.46585   0.14736   0.00000  Uiso   1.00
C191   C     0.33033   0.53601   0.17176   0.00000  Uiso   1.00
C192   C     0.36014   0.56247   0.21632   0.00000  Uiso   1.00
C193   C     0.39421   0.63044   0.28969   0.00000  Uiso   1.00
C194   C     0.36795   0.41844   0.05630   0.00000  Uiso   1.00
C195   C     0.36651   0.44877   0.00414   0.00000  Uiso   1.00
C196   C     0.41287   0.43533   0.97204   0.00000  Uiso   1.00
C197   C     0.47744   0.42971   0.90402   0.00000  Uiso   1.00
C198   C     0.40674   0.34844   0.13394   0.00000  Uiso   1.00
C199   C     0.35358   0.29883   0.13486   0.00000  Uiso   1.00
C200   C     0.34908   0.22028   0.15257   0.00000  Uiso   1.00
C201   C     0.29678   0.18542   0.15017   0.00000  Uiso   1.00
C202   C     0.39441   0.42360   0.16677   0.00000  Uiso   1.00
C203   C     0.42425   0.44996   0.21131   0.00000  Uiso   1.00
C204   C     0.40633   0.52015   0.23577   0.00000  Uiso   1.00
C205   C     0.41406   0.37620   0.07571   0.00000  Uiso   1.00
C206   C     0.46043   0.36272   0.04369   0.00000  Uiso   1.00
C207   C     0.45906   0.39302   0.99149   0.00000  Uiso   1.00
H208   H     0.28595   0.45911   0.08309   0.00000  Uiso   1.00
H209   H     0.21949   0.33904   0.09800   0.00000  Uiso   1.00
H210   H     0.29465   0.56869   0.15673   0.00000  Uiso   1.00
H211   H     0.33082   0.48146   0.98913   0.00000  Uiso   1.00
H212   H     0.16614   0.18730   0.12312   0.00000  Uiso   1.00
H213   H     0.32463   0.67155   0.24693   0.00000  Uiso   1.00
H214   H     0.40090   0.48761   0.89352   0.00000  Uiso   1.00
H215   H     0.44263   0.31556   0.14906   0.00000  Uiso   1.00
H216   H     0.38477   0.18760   0.16759   0.00000  Uiso   1.00
H217   H     0.45993   0.41726   0.22632   0.00000  Uiso   1.00
H218   H     0.49610   0.33003   0.05872   0.00000  Uiso   1.00
H219   H     0.30029   0.06438   0.17960   0.00000  Uiso   1.00
H220   H     0.45878   0.54864   0.30341   0.00000  Uiso   1.00
H221   H     0.53505   0.36470   0.95000   0.00000  Uiso   1.00
O222   O     0.19232   0.04427   0.16237   0.00000  Uiso   1.00
O223   O     0.40026   0.67960   0.32480   0.00000  Uiso   1.00
O224   O     0.50032   0.43827   0.86114   0.00000  Uiso   1.00
N225   N     0.20565   0.17592   0.13386   0.00000  Uiso   1.00
N226   N     0.35383   0.62867   0.24962   0.00000  Uiso   1.00
N227   N     0.42514   0.45671   0.91922   0.00000  Uiso   1.00
N228   N     0.27784   0.10979   0.16425   0.00000  Uiso   1.00
N229   N     0.42601   0.56253   0.28001   0.00000  Uiso   1.00
N230   N     0.49732   0.39058   0.94961   0.00000  Uiso   1.00
C231   C     0.31198   0.07999   0.43159   0.00000  Uiso   1.00
C232   C     0.29824   0.16491   0.41337   0.00000  Uiso   1.00
C233   C     0.24619   0.20049   0.41531   0.00000  Uiso   1.00
C234   C     0.24222   0.27869   0.39673   0.00000  Uiso   1.00
C235   C     0.21382   0.40430   0.37142   0.00000  Uiso   1.00
C236   C     0.33823   0.03876   0.38292   0.00000  Uiso   1.00
C237   C     0.31980   0.96828   0.35928   0.00000  Uiso   1.00
C238   C     0.34949   0.94029   0.31507   0.00000  Uiso   1.00
C239   C     0.38319   0.87002   0.24253   0.00000  Uiso   1.00
C240   C     0.35806   0.08810   0.47348   0.00000  Uiso   1.00
C241   C     0.35632   0.05908   0.52596   0.00000  Uiso   1.00
C242   C     0.40272   0.07261   0.55800   0.00000  Uiso   1.00
C243   C     0.46721   0.07893   0.62605   0.00000  Uiso   1.00
C244   C     0.39749   0.15560   0.39513   0.00000  Uiso   1.00
C245   C     0.34469   0.20597   0.39357   0.00000  Uiso   1.00
C246   C     0.34079   0.28415   0.37498   0.00000  Uiso   1.00
C247   C     0.28875   0.31984   0.37689   0.00000  Uiso   1.00
C248   C     0.38467   0.07983   0.36312   0.00000  Uiso   1.00
C249   C     0.41440   0.05194   0.31894   0.00000  Uiso   1.00
C250   C     0.39602   0.98143   0.29523   0.00000  Uiso   1.00
C251   C     0.40451   0.12917   0.45368   0.00000  Uiso   1.00
C252   C     0.45092   0.14274   0.48563   0.00000  Uiso   1.00
C253   C     0.44924   0.11375   0.53816   0.00000  Uiso   1.00
H254   H     0.27582   0.04801   0.44700   0.00000  Uiso   1.00
H255   H     0.21026   0.16869   0.43063   0.00000  Uiso   1.00
H256   H     0.28386   0.93651   0.37461   0.00000  Uiso   1.00
H257   H     0.32037   0.02730   0.54127   0.00000  Uiso   1.00
H258   H     0.15805   0.32058   0.40373   0.00000  Uiso   1.00
H259   H     0.31324   0.83101   0.28563   0.00000  Uiso   1.00
H260   H     0.39024   0.02245   0.63706   0.00000  Uiso   1.00
H261   H     0.43365   0.18757   0.37971   0.00000  Uiso   1.00
H262   H     0.37674   0.31591   0.35966   0.00000  Uiso   1.00
H263   H     0.45034   0.08373   0.30364   0.00000  Uiso   1.00
H264   H     0.48685   0.17452   0.47030   0.00000  Uiso   1.00
H265   H     0.29317   0.44007   0.34613   0.00000  Uiso   1.00
H266   H     0.44837   0.95049   0.22802   0.00000  Uiso   1.00
H267   H     0.52536   0.14194   0.57946   0.00000  Uiso   1.00
O268   O     0.18533   0.46223   0.36293   0.00000  Uiso   1.00
O269   O     0.38894   0.81992   0.20799   0.00000  Uiso   1.00
O270   O     0.48996   0.07109   0.66906   0.00000  Uiso   1.00
N271   N     0.19766   0.33110   0.39294   0.00000  Uiso   1.00
N272   N     0.34275   0.87338   0.28251   0.00000  Uiso   1.00
N273   N     0.41475   0.05234   0.61107   0.00000  Uiso   1.00
N274   N     0.27037   0.39540   0.36194   0.00000  Uiso   1.00
N275   N     0.41546   0.93768   0.25151   0.00000  Uiso   1.00
N276   N     0.48745   0.11664   0.58007   0.00000  Uiso   1.00
C277   C     0.17815   0.57378   0.09820   0.00000  Uiso   1.00
C278   C     0.19253   0.65893   0.11545   0.00000  Uiso   1.00
C279   C     0.24483   0.69368   0.11303   0.00000  Uiso   1.00
C280   C     0.24941   0.77226   0.13073   0.00000  Uiso   1.00
C281   C     0.27875   0.89803   0.15457   0.00000  Uiso   1.00
C282   C     0.15170   0.53415   0.14736   0.00000  Uiso   1.00
C283   C     0.16967   0.46399   0.17176   0.00000  Uiso   1.00
C284   C     0.13986   0.43753   0.21632   0.00000  Uiso   1.00
C285   C     0.10579   0.36956   0.28969   0.00000  Uiso   1.00
C286   C     0.13205   0.58156   0.05630   0.00000  Uiso   1.00
C287   C     0.13349   0.55123   0.00414   0.00000  Uiso   1.00
C288   C     0.08713   0.56467   0.97204   0.00000  Uiso   1.00
C289   C     0.02256   0.57029   0.90402   0.00000  Uiso   1.00
C290   C     0.09326   0.65156   0.13394   0.00000  Uiso   1.00
C291   C     0.14642   0.70117   0.13486   0.00000  Uiso   1.00
C292   C     0.15092   0.77972   0.15257   0.00000  Uiso   1.00
C293   C     0.20322   0.81458   0.15017   0.00000  Uiso   1.00
C294   C     0.10559   0.57640   0.16677   0.00000  Uiso   1.00
C295   C     0.07575   0.55004   0.21131   0.00000  Uiso   1.00
C296   C     0.09367   0.47985   0.23577   0.00000  Uiso   1.00
C297   C     0.08594   0.62380   0.07571   0.00000  Uiso   1.00
C298   C     0.03957   0.63728   0.04369   0.00000  Uiso   1.00
C299   C     0.04094   0.60698   0.99149   0.00000  Uiso   1.00
H300   H     0.21405   0.54089   0.08309   0.00000  Uiso   1.00
H301   H     0.28051   0.66096   0.09800   0.00000  Uiso   1.00
H302   H     0.20535   0.43131   0.15673   0.00000  Uiso   1.00
H303   H     0.16918   0.51854   0.98913   0.00000  Uiso   1.00
H304   H     0.33386   0.81270   0.12312   0.00000  Uiso   1.00
H305   H     0.17537   0.32845   0.24693   0.00000  Uiso   1.00
H306   H     0.09910   0.51239   0.89352   0.00000  Uiso   1.00
H307   H     0.05737   0.68444   0.14906   0.00000  Uiso   1.00
H308   H     0.11523   0.81240   0.16759   0.00000  Uiso   1.00
H309   H     0.04007   0.58274   0.22632   0.00000  Uiso   1.00
H310   H     0.00390   0.66997   0.05872   0.00000  Uiso   1.00
H311   H     0.19971   0.93562   0.17960   0.00000  Uiso   1.00
H312   H     0.04122   0.45136   0.30341   0.00000  Uiso   1.00
H313   H     0.96495   0.63530   0.95000   0.00000  Uiso   1.00
O314   O     0.30768   0.95573   0.16237   0.00000  Uiso   1.00
O315   O     0.09974   0.32040   0.32480   0.00000  Uiso   1.00
O316   O     0.99968   0.56173   0.86114   0.00000  Uiso   1.00
N317   N     0.29435   0.82408   0.13386   0.00000  Uiso   1.00
N318   N     0.14617   0.37133   0.24962   0.00000  Uiso   1.00
N319   N     0.07486   0.54329   0.91922   0.00000  Uiso   1.00
N320   N     0.22216   0.89021   0.16425   0.00000  Uiso   1.00
N321   N     0.07399   0.43747   0.28001   0.00000  Uiso   1.00
N322   N     0.00268   0.60942   0.94961   0.00000  Uiso   1.00
C323   C     0.18802   0.92001   0.43159   0.00000  Uiso   1.00
C324   C     0.20176   0.83509   0.41337   0.00000  Uiso   1.00
C325   C     0.25381   0.79951   0.41531   0.00000  Uiso   1.00
C326   C     0.25778   0.72131   0.39673   0.00000  Uiso   1.00
C327   C     0.28618   0.59570   0.37142   0.00000  Uiso   1.00
C328   C     0.16177   0.96124   0.38292   0.00000  Uiso   1.00
C329   C     0.18020   0.03172   0.35928   0.00000  Uiso   1.00
C330   C     0.15051   0.05971   0.31507   0.00000  Uiso   1.00
C331   C     0.11681   0.12998   0.24253   0.00000  Uiso   1.00
C332   C     0.14194   0.91190   0.47348   0.00000  Uiso   1.00
C333   C     0.14368   0.94092   0.52596   0.00000  Uiso   1.00
C334   C     0.09728   0.92739   0.55800   0.00000  Uiso   1.00
C335   C     0.03279   0.92107   0.62605   0.00000  Uiso   1.00
C336   C     0.10251   0.84440   0.39513   0.00000  Uiso   1.00
C337   C     0.15531   0.79403   0.39357   0.00000  Uiso   1.00
C338   C     0.15921   0.71585   0.37498   0.00000  Uiso   1.00
C339   C     0.21125   0.68016   0.37689   0.00000  Uiso   1.00
C340   C     0.11533   0.92017   0.36312   0.00000  Uiso   1.00
C341   C     0.08560   0.94806   0.31894   0.00000  Uiso   1.00
C342   C     0.10398   0.01857   0.29523   0.00000  Uiso   1.00
C343   C     0.09549   0.87083   0.45368   0.00000  Uiso   1.00
C344   C     0.04908   0.85726   0.48563   0.00000  Uiso   1.00
C345   C     0.05076   0.88625   0.53816   0.00000  Uiso   1.00
H346   H     0.22418   0.95199   0.44700   0.00000  Uiso   1.00
H347   H     0.28974   0.83131   0.43063   0.00000  Uiso   1.00
H348   H     0.21614   0.06349   0.37461   0.00000  Uiso   1.00
H349   H     0.17963   0.97270   0.54127   0.00000  Uiso   1.00
H350   H     0.34195   0.67942   0.40373   0.00000  Uiso   1.00
H351   H     0.18676   0.16899   0.28563   0.00000  Uiso   1.00
H352   H     0.10976   0.97755   0.63706   0.00000  Uiso   1.00
H353   H     0.06635   0.81243   0.37971   0.00000  Uiso   1.00
H354   H     0.12326   0.68409   0.35966   0.00000  Uiso   1.00
H355   H     0.04966   0.91627   0.30364   0.00000  Uiso   1.00
H356   H     0.01315   0.82548   0.47030   0.00000  Uiso   1.00
H357   H     0.20683   0.55993   0.34613   0.00000  Uiso   1.00
H358   H     0.05163   0.04951   0.22802   0.00000  Uiso   1.00
H359   H     0.97464   0.85806   0.57946   0.00000  Uiso   1.00
O360   O     0.31467   0.53777   0.36293   0.00000  Uiso   1.00
O361   O     0.11106   0.18008   0.20799   0.00000  Uiso   1.00
O362   O     0.01004   0.92891   0.66906   0.00000  Uiso   1.00
N363   N     0.30234   0.66890   0.39294   0.00000  Uiso   1.00
N364   N     0.15725   0.12662   0.28251   0.00000  Uiso   1.00
N365   N     0.08525   0.94766   0.61107   0.00000  Uiso   1.00
N366   N     0.22963   0.60460   0.36194   0.00000  Uiso   1.00
N367   N     0.08454   0.06232   0.25151   0.00000  Uiso   1.00
N368   N     0.01255   0.88336   0.58007   0.00000  Uiso   1.00
C369   C     0.32185   0.57378   0.59820   0.00000  Uiso   1.00
C370   C     0.30747   0.65893   0.61545   0.00000  Uiso   1.00
C371   C     0.25517   0.69368   0.61303   0.00000  Uiso   1.00
C372   C     0.25059   0.77226   0.63073   0.00000  Uiso   1.00
C373   C     0.22125   0.89803   0.65457   0.00000  Uiso   1.00
C374   C     0.34830   0.53415   0.64736   0.00000  Uiso   1.00
C375   C     0.33033   0.46399   0.67176   0.00000  Uiso   1.00
C376   C     0.36014   0.43753   0.71632   0.00000  Uiso   1.00
C377   C     0.39421   0.36956   0.78969   0.00000  Uiso   1.00
C378   C     0.36795   0.58156   0.55630   0.00000  Uiso   1.00
C379   C     0.36651   0.55123   0.50414   0.00000  Uiso   1.00
C380   C     0.41287   0.56467   0.47204   0.00000  Uiso   1.00
C381   C     0.47744   0.57029   0.40402   0.00000  Uiso   1.00
C382   C     0.40674   0.65156   0.63394   0.00000  Uiso   1.00
C383   C     0.35358   0.70117   0.63486   0.00000  Uiso   1.00
C384   C     0.34908   0.77972   0.65257   0.00000  Uiso   1.00
C385   C     0.29678   0.81458   0.65017   0.00000  Uiso   1.00
C386   C     0.39441   0.57640   0.66677   0.00000  Uiso   1.00
C387   C     0.42425   0.55004   0.71131   0.00000  Uiso   1.00
C388   C     0.40633   0.47985   0.73577   0.00000  Uiso   1.00
C389   C     0.41406   0.62380   0.57571   0.00000  Uiso   1.00
C390   C     0.46043   0.63728   0.54369   0.00000  Uiso   1.00
C391   C     0.45906   0.60698   0.49149   0.00000  Uiso   1.00
H392   H     0.28595   0.54089   0.58309   0.00000  Uiso   1.00
H393   H     0.21949   0.66096   0.59800   0.00000  Uiso   1.00
H394   H     0.29465   0.43131   0.65673   0.00000  Uiso   1.00
H395   H     0.33082   0.51854   0.48913   0.00000  Uiso   1.00
H396   H     0.16614   0.81270   0.62312   0.00000  Uiso   1.00
H397   H     0.32463   0.32845   0.74693   0.00000  Uiso   1.00
H398   H     0.40090   0.51239   0.39352   0.00000  Uiso   1.00
H399   H     0.44263   0.68444   0.64906   0.00000  Uiso   1.00
H400   H     0.38477   0.81240   0.66759   0.00000  Uiso   1.00
H401   H     0.45993   0.58274   0.72632   0.00000  Uiso   1.00
H402   H     0.49610   0.66997   0.55872   0.00000  Uiso   1.00
H403   H     0.30029   0.93562   0.67960   0.00000  Uiso   1.00
H404   H     0.45878   0.45136   0.80341   0.00000  Uiso   1.00
H405   H     0.53505   0.63530   0.45000   0.00000  Uiso   1.00
O406   O     0.19232   0.95573   0.66237   0.00000  Uiso   1.00
O407   O     0.40026   0.32040   0.82480   0.00000  Uiso   1.00
O408   O     0.50032   0.56173   0.36114   0.00000  Uiso   1.00
N409   N     0.20565   0.82408   0.63386   0.00000  Uiso   1.00
N410   N     0.35383   0.37133   0.74962   0.00000  Uiso   1.00
N411   N     0.42514   0.54329   0.41922   0.00000  Uiso   1.00
N412   N     0.27784   0.89021   0.66425   0.00000  Uiso   1.00
N413   N     0.42601   0.43747   0.78001   0.00000  Uiso   1.00
N414   N     0.49732   0.60942   0.44961   0.00000  Uiso   1.00
C415   C     0.31198   0.92001   0.93159   0.00000  Uiso   1.00
C416   C     0.29824   0.83509   0.91337   0.00000  Uiso   1.00
C417   C     0.24619   0.79951   0.91531   0.00000  Uiso   1.00
C418   C     0.24222   0.72131   0.89673   0.00000  Uiso   1.00
C419   C     0.21382   0.59570   0.87142   0.00000  Uiso   1.00
C420   C     0.33823   0.96124   0.88292   0.00000  Uiso   1.00
C421   C     0.31980   0.03172   0.85928   0.00000  Uiso   1.00
C422   C     0.34949   0.05971   0.81507   0.00000  Uiso   1.00
C423   C     0.38319   0.12998   0.74253   0.00000  Uiso   1.00
C424   C     0.35806   0.91190   0.97348   0.00000  Uiso   1.00
C425   C     0.35632   0.94092   0.02596   0.00000  Uiso   1.00
C426   C     0.40272   0.92739   0.05800   0.00000  Uiso   1.00
C427   C     0.46721   0.92107   0.12605   0.00000  Uiso   1.00
C428   C     0.39749   0.84440   0.89513   0.00000  Uiso   1.00
C429   C     0.34469   0.79403   0.89357   0.00000  Uiso   1.00
C430   C     0.34079   0.71585   0.87498   0.00000  Uiso   1.00
C431   C     0.28875   0.68016   0.87689   0.00000  Uiso   1.00
C432   C     0.38467   0.92017   0.86312   0.00000  Uiso   1.00
C433   C     0.41440   0.94806   0.81894   0.00000  Uiso   1.00
C434   C     0.39602   0.01857   0.79523   0.00000  Uiso   1.00
C435   C     0.40451   0.87083   0.95368   0.00000  Uiso   1.00
C436   C     0.45092   0.85726   0.98563   0.00000  Uiso   1.00
C437   C     0.44924   0.88625   0.03816   0.00000  Uiso   1.00
H438   H     0.27582   0.95199   0.94700   0.00000  Uiso   1.00
H439   H     0.21026   0.83131   0.93063   0.00000  Uiso   1.00
H440   H     0.28386   0.06349   0.87461   0.00000  Uiso   1.00
H441   H     0.32037   0.97270   0.04127   0.00000  Uiso   1.00
H442   H     0.15805   0.67942   0.90373   0.00000  Uiso   1.00
H443   H     0.31324   0.16899   0.78563   0.00000  Uiso   1.00
H444   H     0.39024   0.97755   0.13706   0.00000  Uiso   1.00
H445   H     0.43365   0.81243   0.87971   0.00000  Uiso   1.00
H446   H     0.37674   0.68409   0.85966   0.00000  Uiso   1.00
H447   H     0.45034   0.91627   0.80364   0.00000  Uiso   1.00
H448   H     0.48685   0.82548   0.97030   0.00000  Uiso   1.00
H449   H     0.29317   0.55993   0.84613   0.00000  Uiso   1.00
H450   H     0.44837   0.04951   0.72802   0.00000  Uiso   1.00
H451   H     0.52536   0.85806   0.07946   0.00000  Uiso   1.00
O452   O     0.18533   0.53777   0.86293   0.00000  Uiso   1.00
O453   O     0.38894   0.18008   0.70799   0.00000  Uiso   1.00
O454   O     0.48996   0.92891   0.16906   0.00000  Uiso   1.00
N455   N     0.19766   0.66890   0.89294   0.00000  Uiso   1.00
N456   N     0.34275   0.12662   0.78251   0.00000  Uiso   1.00
N457   N     0.41475   0.94766   0.11107   0.00000  Uiso   1.00
N458   N     0.27037   0.60460   0.86194   0.00000  Uiso   1.00
N459   N     0.41546   0.06232   0.75151   0.00000  Uiso   1.00
N460   N     0.48745   0.88336   0.08007   0.00000  Uiso   1.00
C461   C     0.17815   0.42622   0.59820   0.00000  Uiso   1.00
C462   C     0.19253   0.34107   0.61545   0.00000  Uiso   1.00
C463   C     0.24483   0.30632   0.61303   0.00000  Uiso   1.00
C464   C     0.24941   0.22774   0.63073   0.00000  Uiso   1.00
C465   C     0.27875   0.10197   0.65457   0.00000  Uiso   1.00
C466   C     0.15170   0.46585   0.64736   0.00000  Uiso   1.00
C467   C     0.16967   0.53601   0.67176   0.00000  Uiso   1.00
C468   C     0.13986   0.56247   0.71632   0.00000  Uiso   1.00
C469   C     0.10579   0.63044   0.78969   0.00000  Uiso   1.00
C470   C     0.13205   0.41844   0.55630   0.00000  Uiso   1.00
C471   C     0.13349   0.44877   0.50414   0.00000  Uiso   1.00
C472   C     0.08713   0.43533   0.47204   0.00000  Uiso   1.00
C473   C     0.02256   0.42971   0.40402   0.00000  Uiso   1.00
C474   C     0.09326   0.34844   0.63394   0.00000  Uiso   1.00
C475   C     0.14642   0.29883   0.63486   0.00000  Uiso   1.00
C476   C     0.15092   0.22028   0.65257   0.00000  Uiso   1.00
C477   C     0.20322   0.18542   0.65017   0.00000  Uiso   1.00
C478   C     0.10559   0.42360   0.66677   0.00000  Uiso   1.00
C479   C     0.07575   0.44996   0.71131   0.00000  Uiso   1.00
C480   C     0.09367   0.52015   0.73577   0.00000  Uiso   1.00
C481   C     0.08594   0.37620   0.57571   0.00000  Uiso   1.00
C482   C     0.03957   0.36272   0.54369   0.00000  Uiso   1.00
C483   C     0.04094   0.39302   0.49149   0.00000  Uiso   1.00
H484   H     0.21405   0.45911   0.58309   0.00000  Uiso   1.00
H485   H     0.28051   0.33904   0.59800   0.00000  Uiso   1.00
H486   H     0.20535   0.56869   0.65673   0.00000  Uiso   1.00
H487   H     0.16918   0.48146   0.48913   0.00000  Uiso   1.00
H488   H     0.33386   0.18730   0.62312   0.00000  Uiso   1.00
H489   H     0.17537   0.67155   0.74693   0.00000  Uiso   1.00
H490   H     0.09910   0.48761   0.39352   0.00000  Uiso   1.00
H491   H     0.05737   0.31556   0.64906   0.00000  Uiso   1.00
H492   H     0.11523   0.18760   0.66759   0.00000  Uiso   1.00
H493   H     0.04007   0.41726   0.72632   0.00000  Uiso   1.00
H494   H     0.00390   0.33003   0.55872   0.00000  Uiso   1.00
H495   H     0.19971   0.06438   0.67960   0.00000  Uiso   1.00
H496   H     0.04122   0.54864   0.80341   0.00000  Uiso   1.00
H497   H     0.96495   0.36470   0.45000   0.00000  Uiso   1.00
O498   O     0.30768   0.04427   0.66237   0.00000  Uiso   1.00
O499   O     0.09974   0.67960   0.82480   0.00000  Uiso   1.00
O500   O     0.99968   0.43827   0.36114   0.00000  Uiso   1.00
N501   N     0.29435   0.17592   0.63386   0.00000  Uiso   1.00
N502   N     0.14617   0.62867   0.74962   0.00000  Uiso   1.00
N503   N     0.07486   0.45671   0.41922   0.00000  Uiso   1.00
N504   N     0.22216   0.10979   0.66425   0.00000  Uiso   1.00
N505   N     0.07399   0.56253   0.78001   0.00000  Uiso   1.00
N506   N     0.00268   0.39058   0.44961   0.00000  Uiso   1.00
C507   C     0.18802   0.07999   0.93159   0.00000  Uiso   1.00
C508   C     0.20176   0.16491   0.91337   0.00000  Uiso   1.00
C509   C     0.25381   0.20049   0.91531   0.00000  Uiso   1.00
C510   C     0.25778   0.27869   0.89673   0.00000  Uiso   1.00
C511   C     0.28618   0.40430   0.87142   0.00000  Uiso   1.00
C512   C     0.16177   0.03876   0.88292   0.00000  Uiso   1.00
C513   C     0.18020   0.96828   0.85928   0.00000  Uiso   1.00
C514   C     0.15051   0.94029   0.81507   0.00000  Uiso   1.00
C515   C     0.11681   0.87002   0.74253   0.00000  Uiso   1.00
C516   C     0.14194   0.08810   0.97348   0.00000  Uiso   1.00
C517   C     0.14368   0.05908   0.02596   0.00000  Uiso   1.00
C518   C     0.09728   0.07261   0.05800   0.00000  Uiso   1.00
C519   C     0.03279   0.07893   0.12605   0.00000  Uiso   1.00
C520   C     0.10251   0.15560   0.89513   0.00000  Uiso   1.00
C521   C     0.15531   0.20597   0.89357   0.00000  Uiso   1.00
C522   C     0.15921   0.28415   0.87498   0.00000  Uiso   1.00
C523   C     0.21125   0.31984   0.87689   0.00000  Uiso   1.00
C524   C     0.11533   0.07983   0.86312   0.00000  Uiso   1.00
C525   C     0.08560   0.05194   0.81894   0.00000  Uiso   1.00
C526   C     0.10398   0.98143   0.79523   0.00000  Uiso   1.00
C527   C     0.09549   0.12917   0.95368   0.00000  Uiso   1.00
C528   C     0.04908   0.14274   0.98563   0.00000  Uiso   1.00
C529   C     0.05076   0.11375   0.03816   0.00000  Uiso   1.00
H530   H     0.22418   0.04801   0.94700   0.00000  Uiso   1.00
H531   H     0.28974   0.16869   0.93063   0.00000  Uiso   1.00
H532   H     0.21614   0.93651   0.87461   0.00000  Uiso   1.00
H533   H     0.17963   0.02730   0.04127   0.00000  Uiso   1.00
H534   H     0.34195   0.32058   0.90373   0.00000  Uiso   1.00
H535   H     0.18676   0.83101   0.78563   0.00000  Uiso   1.00
H536   H     0.10976   0.02245   0.13706   0.00000  Uiso   1.00
H537   H     0.06635   0.18757   0.87971   0.00000  Uiso   1.00
H538   H     0.12326   0.31591   0.85966   0.00000  Uiso   1.00
H539   H     0.04966   0.08373   0.80364   0.00000  Uiso   1.00
H540   H     0.01315   0.17452   0.97030   0.00000  Uiso   1.00
H541   H     0.20683   0.44007   0.84613   0.00000  Uiso   1.00
H542   H     0.05163   0.95049   0.72802   0.00000  Uiso   1.00
H543   H     0.97464   0.14194   0.07946   0.00000  Uiso   1.00
O544   O     0.31467   0.46223   0.86293   0.00000  Uiso   1.00
O545   O     0.11106   0.81992   0.70799   0.00000  Uiso   1.00
O546   O     0.01004   0.07109   0.16906   0.00000  Uiso   1.00
N547   N     0.30234   0.33110   0.89294   0.00000  Uiso   1.00
N548   N     0.15725   0.87338   0.78251   0.00000  Uiso   1.00
N549   N     0.08525   0.05234   0.11107   0.00000  Uiso   1.00
N550   N     0.22963   0.39540   0.86194   0.00000  Uiso   1.00
N551   N     0.08454   0.93768   0.75151   0.00000  Uiso   1.00
N552   N     0.01255   0.11664   0.08007   0.00000  Uiso   1.00
C553   C     0.67815   0.57378   0.90180   0.00000  Uiso   1.00
C554   C     0.69253   0.65893   0.88455   0.00000  Uiso   1.00
C555   C     0.74483   0.69368   0.88697   0.00000  Uiso   1.00
C556   C     0.74941   0.77226   0.86927   0.00000  Uiso   1.00
C557   C     0.77875   0.89803   0.84543   0.00000  Uiso   1.00
C558   C     0.65170   0.53415   0.85264   0.00000  Uiso   1.00
C559   C     0.66967   0.46399   0.82824   0.00000  Uiso   1.00
C560   C     0.63986   0.43753   0.78368   0.00000  Uiso   1.00
C561   C     0.60579   0.36956   0.71031   0.00000  Uiso   1.00
C562   C     0.63205   0.58156   0.94370   0.00000  Uiso   1.00
C563   C     0.63349   0.55123   0.99586   0.00000  Uiso   1.00
C564   C     0.58713   0.56467   0.02796   0.00000  Uiso   1.00
C565   C     0.52256   0.57029   0.09598   0.00000  Uiso   1.00
C566   C     0.59326   0.65156   0.86606   0.00000  Uiso   1.00
C567   C     0.64642   0.70117   0.86514   0.00000  Uiso   1.00
C568   C     0.65092   0.77972   0.84743   0.00000  Uiso   1.00
C569   C     0.70322   0.81458   0.84983   0.00000  Uiso   1.00
C570   C     0.60559   0.57640   0.83323   0.00000  Uiso   1.00
C571   C     0.57575   0.55004   0.78869   0.00000  Uiso   1.00
C572   C     0.59367   0.47985   0.76423   0.00000  Uiso   1.00
C573   C     0.58594   0.62380   0.92429   0.00000  Uiso   1.00
C574   C     0.53957   0.63728   0.95631   0.00000  Uiso   1.00
C575   C     0.54094   0.60698   0.00851   0.00000  Uiso   1.00
H576   H     0.71405   0.54089   0.91691   0.00000  Uiso   1.00
H577   H     0.78051   0.66096   0.90200   0.00000  Uiso   1.00
H578   H     0.70535   0.43131   0.84327   0.00000  Uiso   1.00
H579   H     0.66918   0.51854   0.01087   0.00000  Uiso   1.00
H580   H     0.83386   0.81270   0.87688   0.00000  Uiso   1.00
H581   H     0.67537   0.32845   0.75307   0.00000  Uiso   1.00
H582   H     0.59910   0.51239   0.10648   0.00000  Uiso   1.00
H583   H     0.55737   0.68444   0.85094   0.00000  Uiso   1.00
H584   H     0.61523   0.81240   0.83241   0.00000  Uiso   1.00
H585   H     0.54007   0.58274   0.77368   0.00000  Uiso   1.00
H586   H     0.50390   0.66997   0.94128   0.00000  Uiso   1.00
H587   H     0.69971   0.93562   0.82040   0.00000  Uiso   1.00
H588   H     0.54122   0.45136   0.69659   0.00000  Uiso   1.00
H589   H     0.46495   0.63530   0.05000   0.00000  Uiso   1.00
O590   O     0.80768   0.95573   0.83763   0.00000  Uiso   1.00
O591   O     0.59974   0.32040   0.67520   0.00000  Uiso   1.00
O592   O     0.49968   0.56173   0.13886   0.00000  Uiso   1.00
N593   N     0.79435   0.82408   0.86614   0.00000  Uiso   1.00
N594   N     0.64617   0.37133   0.75038   0.00000  Uiso   1.00
N595   N     0.57486   0.54329   0.08078   0.00000  Uiso   1.00
N596   N     0.72216   0.89021   0.83575   0.00000  Uiso   1.00
N597   N     0.57399   0.43747   0.71999   0.00000  Uiso   1.00
N598   N     0.50268   0.60942   0.05039   0.00000  Uiso   1.00
C599   C     0.68802   0.92001   0.56841   0.00000  Uiso   1.00
C600   C     0.70176   0.83509   0.58663   0.00000  Uiso   1.00
C601   C     0.75381   0.79951   0.58469   0.00000  Uiso   1.00
C602   C     0.75778   0.72131   0.60327   0.00000  Uiso   1.00
C603   C     0.78618   0.59570   0.62858   0.00000  Uiso   1.00
C604   C     0.66177   0.96124   0.61708   0.00000  Uiso   1.00
C605   C     0.68020   0.03172   0.64072   0.00000  Uiso   1.00
C606   C     0.65051   0.05971   0.68493   0.00000  Uiso   1.00
C607   C     0.61681   0.12998   0.75747   0.00000  Uiso   1.00
C608   C     0.64194   0.91190   0.52652   0.00000  Uiso   1.00
C609   C     0.64368   0.94092   0.47404   0.00000  Uiso   1.00
C610   C     0.59728   0.92739   0.44200   0.00000  Uiso   1.00
C611   C     0.53279   0.92107   0.37395   0.00000  Uiso   1.00
C612   C     0.60251   0.84440   0.60487   0.00000  Uiso   1.00
C613   C     0.65531   0.79403   0.60643   0.00000  Uiso   1.00
C614   C     0.65921   0.71585   0.62502   0.00000  Uiso   1.00
C615   C     0.71125   0.68016   0.62311   0.00000  Uiso   1.00
C616   C     0.61533   0.92017   0.63688   0.00000  Uiso   1.00
C617   C     0.58560   0.94806   0.68106   0.00000  Uiso   1.00
C618   C     0.60398   0.01857   0.70477   0.00000  Uiso   1.00
C619   C     0.59549   0.87083   0.54632   0.00000  Uiso   1.00
C620   C     0.54908   0.85726   0.51437   0.00000  Uiso   1.00
C621   C     0.55076   0.88625   0.46184   0.00000  Uiso   1.00
H622   H     0.72418   0.95199   0.55300   0.00000  Uiso   1.00
H623   H     0.78974   0.83131   0.56937   0.00000  Uiso   1.00
H624   H     0.71614   0.06349   0.62539   0.00000  Uiso   1.00
H625   H     0.67963   0.97270   0.45873   0.00000  Uiso   1.00
H626   H     0.84195   0.67942   0.59627   0.00000  Uiso   1.00
H627   H     0.68676   0.16899   0.71437   0.00000  Uiso   1.00
H628   H     0.60976   0.97755   0.36294   0.00000  Uiso   1.00
H629   H     0.56635   0.81243   0.62029   0.00000  Uiso   1.00
H630   H     0.62326   0.68409   0.64034   0.00000  Uiso   1.00
H631   H     0.54966   0.91627   0.69636   0.00000  Uiso   1.00
H632   H     0.51315   0.82548   0.52970   0.00000  Uiso   1.00
H633   H     0.70683   0.55993   0.65387   0.00000  Uiso   1.00
H634   H     0.55163   0.04951   0.77198   0.00000  Uiso   1.00
H635   H     0.47464   0.85806   0.42054   0.00000  Uiso   1.00
O636   O     0.81467   0.53777   0.63707   0.00000  Uiso   1.00
O637   O     0.61106   0.18008   0.79201   0.00000  Uiso   1.00
O638   O     0.51004   0.92891   0.33094   0.00000  Uiso   1.00
N639   N     0.80234   0.66890   0.60706   0.00000  Uiso   1.00
N640   N     0.65725   0.12662   0.71749   0.00000  Uiso   1.00
N641   N     0.58525   0.94766   0.38893   0.00000  Uiso   1.00
N642   N     0.72963   0.60460   0.63806   0.00000  Uiso   1.00
N643   N     0.58454   0.06232   0.74849   0.00000  Uiso   1.00
N644   N     0.51255   0.88336   0.41993   0.00000  Uiso   1.00
C645   C     0.82185   0.42622   0.90180   0.00000  Uiso   1.00
C646   C     0.80747   0.34107   0.88455   0.00000  Uiso   1.00
C647   C     0.75517   0.30632   0.88697   0.00000  Uiso   1.00
C648   C     0.75059   0.22774   0.86927   0.00000  Uiso   1.00
C649   C     0.72125   0.10197   0.84543   0.00000  Uiso   1.00
C650   C     0.84830   0.46585   0.85264   0.00000  Uiso   1.00
C651   C     0.83033   0.53601   0.82824   0.00000  Uiso   1.00
C652   C     0.86014   0.56247   0.78368   0.00000  Uiso   1.00
C653   C     0.89421   0.63044   0.71031   0.00000  Uiso   1.00
C654   C     0.86795   0.41844   0.94370   0.00000  Uiso   1.00
C655   C     0.86651   0.44877   0.99586   0.00000  Uiso   1.00
C656   C     0.91287   0.43533   0.02796   0.00000  Uiso   1.00
C657   C     0.97744   0.42971   0.09598   0.00000  Uiso   1.00
C658   C     0.90674   0.34844   0.86606   0.00000  Uiso   1.00
C659   C     0.85358   0.29883   0.86514   0.00000  Uiso   1.00
C660   C     0.84908   0.22028   0.84743   0.00000  Uiso   1.00
C661   C     0.79678   0.18542   0.84983   0.00000  Uiso   1.00
C662   C     0.89441   0.42360   0.83323   0.00000  Uiso   1.00
C663   C     0.92425   0.44996   0.78869   0.00000  Uiso   1.00
C664   C     0.90633   0.52015   0.76423   0.00000  Uiso   1.00
C665   C     0.91406   0.37620   0.92429   0.00000  Uiso   1.00
C666   C     0.96043   0.36272   0.95631   0.00000  Uiso   1.00
C667   C     0.95906   0.39302   0.00851   0.00000  Uiso   1.00
H668   H     0.78595   0.45911   0.91691   0.00000  Uiso   1.00
H669   H     0.71949   0.33904   0.90200   0.00000  Uiso   1.00
H670   H     0.79465   0.56869   0.84327   0.00000  Uiso   1.00
H671   H     0.83082   0.48146   0.01087   0.00000  Uiso   1.00
H672   H     0.66614   0.18730   0.87688   0.00000  Uiso   1.00
H673   H     0.82463   0.67155   0.75307   0.00000  Uiso   1.00
H674   H     0.90090   0.48761   0.10648   0.00000  Uiso   1.00
H675   H     0.94263   0.31556   0.85094   0.00000  Uiso   1.00
H676   H     0.88477   0.18760   0.83241   0.00000  Uiso   1.00
H677   H     0.95993   0.41726   0.77368   0.00000  Uiso   1.00
H678   H     0.99610   0.33003   0.94128   0.00000  Uiso   1.00
H679   H     0.80029   0.06438   0.82040   0.00000  Uiso   1.00
H680   H     0.95878   0.54864   0.69659   0.00000  Uiso   1.00
H681   H     0.03505   0.36470   0.05000   0.00000  Uiso   1.00
O682   O     0.69232   0.04427   0.83763   0.00000  Uiso   1.00
O683   O     0.90026   0.67960   0.67520   0.00000  Uiso   1.00
O684   O     0.00032   0.43827   0.13886   0.00000  Uiso   1.00
N685   N     0.70565   0.17592   0.86614   0.00000  Uiso   1.00
N686   N     0.85383   0.62867   0.75038   0.00000  Uiso   1.00
N687   N     0.92514   0.45671   0.08078   0.00000  Uiso   1.00
N688   N     0.77784   0.10979   0.83575   0.00000  Uiso   1.00
N689   N     0.92601   0.56253   0.71999   0.00000  Uiso   1.00
N690   N     0.99732   0.39058   0.05039   0.00000  Uiso   1.00
C691   C     0.81198   0.07999   0.56841   0.00000  Uiso   1.00
C692   C     0.79824   0.16491   0.58663   0.00000  Uiso   1.00
C693   C     0.74619   0.20049   0.58469   0.00000  Uiso   1.00
C694   C     0.74222   0.27869   0.60327   0.00000  Uiso   1.00
C695   C     0.71382   0.40430   0.62858   0.00000  Uiso   1.00
C696   C     0.83823   0.03876   0.61708   0.00000  Uiso   1.00
C697   C     0.81980   0.96828   0.64072   0.00000  Uiso   1.00
C698   C     0.84949   0.94029   0.68493   0.00000  Uiso   1.00
C699   C     0.88319   0.87002   0.75747   0.00000  Uiso   1.00
C700   C     0.85806   0.08810   0.52652   0.00000  Uiso   1.00
C701   C     0.85632   0.05908   0.47404   0.00000  Uiso   1.00
C702   C     0.90272   0.07261   0.44200   0.00000  Uiso   1.00
C703   C     0.96721   0.07893   0.37395   0.00000  Uiso   1.00
C704   C     0.89749   0.15560   0.60487   0.00000  Uiso   1.00
C705   C     0.84469   0.20597   0.60643   0.00000  Uiso   1.00
C706   C     0.84079   0.28415   0.62502   0.00000  Uiso   1.00
C707   C     0.78875   0.31984   0.62311   0.00000  Uiso   1.00
C708   C     0.88467   0.07983   0.63688   0.00000  Uiso   1.00
C709   C     0.91440   0.05194   0.68106   0.00000  Uiso   1.00
C710   C     0.89602   0.98143   0.70477   0.00000  Uiso   1.00
C711   C     0.90451   0.12917   0.54632   0.00000  Uiso   1.00
C712   C     0.95092   0.14274   0.51437   0.00000  Uiso   1.00
C713   C     0.94924   0.11375   0.46184   0.00000  Uiso   1.00
H714   H     0.77582   0.04801   0.55300   0.00000  Uiso   1.00
H715   H     0.71026   0.16869   0.56937   0.00000  Uiso   1.00
H716   H     0.78386   0.93651   0.62539   0.00000  Uiso   1.00
H717   H     0.82037   0.02730   0.45873   0.00000  Uiso   1.00
H718   H     0.65805   0.32058   0.59627   0.00000  Uiso   1.00
H719   H     0.81324   0.83101   0.71437   0.00000  Uiso   1.00
H720   H     0.89024   0.02245   0.36294   0.00000  Uiso   1.00
H721   H     0.93365   0.18757   0.62029   0.00000  Uiso   1.00
H722   H     0.87674   0.31591   0.64034   0.00000  Uiso   1.00
H723   H     0.95034   0.08373   0.69636   0.00000  Uiso   1.00
H724   H     0.98685   0.17452   0.52970   0.00000  Uiso   1.00
H725   H     0.79317   0.44007   0.65387   0.00000  Uiso   1.00
H726   H     0.94837   0.95049   0.77198   0.00000  Uiso   1.00
H727   H     0.02536   0.14194   0.42054   0.00000  Uiso   1.00
O728   O     0.68533   0.46223   0.63707   0.00000  Uiso   1.00
O729   O     0.88894   0.81992   0.79201   0.00000  Uiso   1.00
O730   O     0.98996   0.07109   0.33094   0.00000  Uiso   1.00
N731   N     0.69766   0.33110   0.60706   0.00000  Uiso   1.00
N732   N     0.84275   0.87338   0.71749   0.00000  Uiso   1.00
N733   N     0.91475   0.05234   0.38893   0.00000  Uiso   1.00
N734   N     0.77037   0.39540   0.63806   0.00000  Uiso   1.00
N735   N     0.91546   0.93768   0.74849   0.00000  Uiso   1.00
N736   N     0.98745   0.11664   0.41993   0.00000  Uiso   1.00
