data_job_00127
_audit_creation_date              2018-12-19
_audit_creation_method            'Materials Studio'
_symmetry_space_group_name_H-M    'P1'
_symmetry_Int_Tables_number       1
_symmetry_cell_setting            triclinic
loop_
_symmetry_equiv_pos_as_xyz
  x,y,z
_cell_length_a                    23.7956
_cell_length_b                    23.7956
_cell_length_c                    15.3463
_cell_angle_alpha                 90.0000
_cell_angle_beta                  90.0000
_cell_angle_gamma                 90.0000
loop_
_atom_site_label
_atom_site_type_symbol
_atom_site_fract_x
_atom_site_fract_y
_atom_site_fract_z
_atom_site_U_iso_or_equiv
_atom_site_adp_type
_atom_site_occupancy
C1     C     0.17034   0.89927   0.16319   0.00000  Uiso   1.00
C2     C     0.12271   0.88309   0.22475   0.00000  Uiso   1.00
C3     C     0.09913   0.91753   0.28791   0.00000  Uiso   1.00
C4     C     0.05595   0.89490   0.33761   0.00000  Uiso   1.00
C5     C     0.98488   0.87814   0.43521   0.00000  Uiso   1.00
C6     C     0.21644   0.85566   0.17709   0.00000  Uiso   1.00
C7     C     0.27167   0.86705   0.20016   0.00000  Uiso   1.00
C8     C     0.30739   0.82133   0.20973   0.00000  Uiso   1.00
C9     C     0.38185   0.76201   0.23327   0.00000  Uiso   1.00
C10    C     0.14805   0.88953   0.07126   0.00000  Uiso   1.00
C11    C     0.14580   0.92939   0.00534   0.00000  Uiso   1.00
C12    C     0.12396   0.91219   0.92579   0.00000  Uiso   1.00
C13    C     0.09224   0.90545   0.78502   0.00000  Uiso   1.00
C14    C     0.13557   0.79782   0.13914   0.00000  Uiso   1.00
C15    C     0.10383   0.82798   0.21169   0.00000  Uiso   1.00
C16    C     0.06067   0.80529   0.26130   0.00000  Uiso   1.00
C17    C     0.03703   0.83970   0.32452   0.00000  Uiso   1.00
C18    C     0.19756   0.80056   0.16403   0.00000  Uiso   1.00
C19    C     0.23321   0.75481   0.17356   0.00000  Uiso   1.00
C20    C     0.28848   0.76613   0.19664   0.00000  Uiso   1.00
C21    C     0.12917   0.83443   0.05820   0.00000  Uiso   1.00
C22    C     0.10733   0.81716   0.97874   0.00000  Uiso   1.00
C23    C     0.10505   0.85698   0.91271   0.00000  Uiso   1.00
H24    H     0.18504   0.94216   0.17336   0.00000  Uiso   1.00
H25    H     0.11376   0.96017   0.29800   0.00000  Uiso   1.00
H26    H     0.28627   0.90970   0.21026   0.00000  Uiso   1.00
H27    H     0.16042   0.97203   0.01547   0.00000  Uiso   1.00
H28    H     0.02641   0.95582   0.43045   0.00000  Uiso   1.00
H29    H     0.39017   0.84940   0.24541   0.00000  Uiso   1.00
H30    H     0.12479   0.98084   0.83466   0.00000  Uiso   1.00
H31    H     0.12087   0.75492   0.12898   0.00000  Uiso   1.00
H32    H     0.04606   0.76265   0.25118   0.00000  Uiso   1.00
H33    H     0.21858   0.71218   0.16344   0.00000  Uiso   1.00
H34    H     0.09273   0.77451   0.96865   0.00000  Uiso   1.00
H35    H     0.97147   0.79551   0.39245   0.00000  Uiso   1.00
H36    H     0.33523   0.68909   0.20741   0.00000  Uiso   1.00
H37    H     0.06985   0.82053   0.79666   0.00000  Uiso   1.00
O38    O     0.95090   0.88412   0.49266   0.00000  Uiso   1.00
O39    O     0.42814   0.74451   0.24988   0.00000  Uiso   1.00
O40    O     0.07996   0.91695   0.71099   0.00000  Uiso   1.00
N41    N     0.02374   0.91704   0.40472   0.00000  Uiso   1.00
N42    N     0.36383   0.81754   0.23174   0.00000  Uiso   1.00
N43    N     0.11573   0.94042   0.84771   0.00000  Uiso   1.00
N44    N     0.99418   0.83077   0.38428   0.00000  Uiso   1.00
N45    N     0.33427   0.73128   0.21129   0.00000  Uiso   1.00
N46    N     0.08617   0.85416   0.82726   0.00000  Uiso   1.00
C47    C     0.67034   0.39927   0.66319   0.00000  Uiso   1.00
C48    C     0.62271   0.38309   0.72475   0.00000  Uiso   1.00
C49    C     0.59913   0.41753   0.78791   0.00000  Uiso   1.00
C50    C     0.55595   0.39490   0.83761   0.00000  Uiso   1.00
C51    C     0.48488   0.37814   0.93521   0.00000  Uiso   1.00
C52    C     0.71644   0.35566   0.67709   0.00000  Uiso   1.00
C53    C     0.77167   0.36705   0.70016   0.00000  Uiso   1.00
C54    C     0.80739   0.32133   0.70973   0.00000  Uiso   1.00
C55    C     0.88185   0.26201   0.73327   0.00000  Uiso   1.00
C56    C     0.64805   0.38953   0.57126   0.00000  Uiso   1.00
C57    C     0.64580   0.42939   0.50534   0.00000  Uiso   1.00
C58    C     0.62396   0.41219   0.42579   0.00000  Uiso   1.00
C59    C     0.59224   0.40545   0.28502   0.00000  Uiso   1.00
C60    C     0.63557   0.29782   0.63914   0.00000  Uiso   1.00
C61    C     0.60383   0.32798   0.71169   0.00000  Uiso   1.00
C62    C     0.56067   0.30529   0.76130   0.00000  Uiso   1.00
C63    C     0.53703   0.33970   0.82452   0.00000  Uiso   1.00
C64    C     0.69756   0.30056   0.66403   0.00000  Uiso   1.00
C65    C     0.73321   0.25481   0.67356   0.00000  Uiso   1.00
C66    C     0.78848   0.26613   0.69664   0.00000  Uiso   1.00
C67    C     0.62917   0.33443   0.55820   0.00000  Uiso   1.00
C68    C     0.60733   0.31716   0.47874   0.00000  Uiso   1.00
C69    C     0.60505   0.35698   0.41271   0.00000  Uiso   1.00
H70    H     0.68504   0.44216   0.67336   0.00000  Uiso   1.00
H71    H     0.61376   0.46017   0.79800   0.00000  Uiso   1.00
H72    H     0.78627   0.40970   0.71026   0.00000  Uiso   1.00
H73    H     0.66042   0.47203   0.51547   0.00000  Uiso   1.00
H74    H     0.52641   0.45582   0.93045   0.00000  Uiso   1.00
H75    H     0.89017   0.34940   0.74541   0.00000  Uiso   1.00
H76    H     0.62479   0.48084   0.33466   0.00000  Uiso   1.00
H77    H     0.62087   0.25492   0.62898   0.00000  Uiso   1.00
H78    H     0.54606   0.26265   0.75118   0.00000  Uiso   1.00
H79    H     0.71858   0.21218   0.66344   0.00000  Uiso   1.00
H80    H     0.59273   0.27451   0.46865   0.00000  Uiso   1.00
H81    H     0.47147   0.29551   0.89245   0.00000  Uiso   1.00
H82    H     0.83523   0.18909   0.70741   0.00000  Uiso   1.00
H83    H     0.56985   0.32053   0.29666   0.00000  Uiso   1.00
O84    O     0.45090   0.38412   0.99266   0.00000  Uiso   1.00
O85    O     0.92814   0.24451   0.74988   0.00000  Uiso   1.00
O86    O     0.57996   0.41695   0.21099   0.00000  Uiso   1.00
N87    N     0.52374   0.41704   0.90472   0.00000  Uiso   1.00
N88    N     0.86383   0.31754   0.73174   0.00000  Uiso   1.00
N89    N     0.61573   0.44042   0.34771   0.00000  Uiso   1.00
N90    N     0.49418   0.33077   0.88428   0.00000  Uiso   1.00
N91    N     0.83427   0.23128   0.71129   0.00000  Uiso   1.00
N92    N     0.58617   0.35416   0.32726   0.00000  Uiso   1.00
C93    C     0.32966   0.60073   0.66319   0.00000  Uiso   1.00
C94    C     0.37729   0.61691   0.72475   0.00000  Uiso   1.00
C95    C     0.40087   0.58247   0.78791   0.00000  Uiso   1.00
C96    C     0.44405   0.60510   0.83761   0.00000  Uiso   1.00
C97    C     0.51512   0.62186   0.93521   0.00000  Uiso   1.00
C98    C     0.28356   0.64434   0.67709   0.00000  Uiso   1.00
C99    C     0.22833   0.63295   0.70016   0.00000  Uiso   1.00
C100   C     0.19261   0.67867   0.70973   0.00000  Uiso   1.00
C101   C     0.11815   0.73799   0.73327   0.00000  Uiso   1.00
C102   C     0.35195   0.61047   0.57126   0.00000  Uiso   1.00
C103   C     0.35420   0.57061   0.50534   0.00000  Uiso   1.00
C104   C     0.37604   0.58781   0.42579   0.00000  Uiso   1.00
C105   C     0.40776   0.59455   0.28502   0.00000  Uiso   1.00
C106   C     0.36443   0.70218   0.63914   0.00000  Uiso   1.00
C107   C     0.39617   0.67202   0.71169   0.00000  Uiso   1.00
C108   C     0.43933   0.69471   0.76130   0.00000  Uiso   1.00
C109   C     0.46297   0.66030   0.82452   0.00000  Uiso   1.00
C110   C     0.30244   0.69944   0.66403   0.00000  Uiso   1.00
C111   C     0.26679   0.74519   0.67356   0.00000  Uiso   1.00
C112   C     0.21152   0.73387   0.69664   0.00000  Uiso   1.00
C113   C     0.37083   0.66557   0.55820   0.00000  Uiso   1.00
C114   C     0.39267   0.68284   0.47874   0.00000  Uiso   1.00
C115   C     0.39495   0.64302   0.41271   0.00000  Uiso   1.00
H116   H     0.31496   0.55784   0.67336   0.00000  Uiso   1.00
H117   H     0.38624   0.53983   0.79800   0.00000  Uiso   1.00
H118   H     0.21373   0.59030   0.71026   0.00000  Uiso   1.00
H119   H     0.33958   0.52797   0.51547   0.00000  Uiso   1.00
H120   H     0.47359   0.54418   0.93045   0.00000  Uiso   1.00
H121   H     0.10983   0.65060   0.74541   0.00000  Uiso   1.00
H122   H     0.37521   0.51916   0.33466   0.00000  Uiso   1.00
H123   H     0.37913   0.74508   0.62898   0.00000  Uiso   1.00
H124   H     0.45394   0.73735   0.75118   0.00000  Uiso   1.00
H125   H     0.28142   0.78782   0.66344   0.00000  Uiso   1.00
H126   H     0.40727   0.72549   0.46865   0.00000  Uiso   1.00
H127   H     0.52853   0.70449   0.89245   0.00000  Uiso   1.00
H128   H     0.16477   0.81091   0.70741   0.00000  Uiso   1.00
H129   H     0.43015   0.67947   0.29666   0.00000  Uiso   1.00
O130   O     0.54910   0.61588   0.99266   0.00000  Uiso   1.00
O131   O     0.07186   0.75549   0.74988   0.00000  Uiso   1.00
O132   O     0.42004   0.58305   0.21099   0.00000  Uiso   1.00
N133   N     0.47626   0.58296   0.90472   0.00000  Uiso   1.00
N134   N     0.13617   0.68246   0.73174   0.00000  Uiso   1.00
N135   N     0.38427   0.55958   0.34771   0.00000  Uiso   1.00
N136   N     0.50582   0.66923   0.88428   0.00000  Uiso   1.00
N137   N     0.16573   0.76872   0.71129   0.00000  Uiso   1.00
N138   N     0.41383   0.64584   0.32726   0.00000  Uiso   1.00
C139   C     0.82966   0.10073   0.16319   0.00000  Uiso   1.00
C140   C     0.87729   0.11691   0.22475   0.00000  Uiso   1.00
C141   C     0.90087   0.08247   0.28791   0.00000  Uiso   1.00
C142   C     0.94405   0.10510   0.33761   0.00000  Uiso   1.00
C143   C     0.01512   0.12186   0.43521   0.00000  Uiso   1.00
C144   C     0.78356   0.14434   0.17709   0.00000  Uiso   1.00
C145   C     0.72833   0.13295   0.20016   0.00000  Uiso   1.00
C146   C     0.69261   0.17867   0.20973   0.00000  Uiso   1.00
C147   C     0.61815   0.23799   0.23327   0.00000  Uiso   1.00
C148   C     0.85195   0.11047   0.07126   0.00000  Uiso   1.00
C149   C     0.85420   0.07061   0.00534   0.00000  Uiso   1.00
C150   C     0.87604   0.08781   0.92579   0.00000  Uiso   1.00
C151   C     0.90776   0.09455   0.78502   0.00000  Uiso   1.00
C152   C     0.86443   0.20218   0.13914   0.00000  Uiso   1.00
C153   C     0.89617   0.17202   0.21169   0.00000  Uiso   1.00
C154   C     0.93933   0.19471   0.26130   0.00000  Uiso   1.00
C155   C     0.96297   0.16030   0.32452   0.00000  Uiso   1.00
C156   C     0.80244   0.19944   0.16403   0.00000  Uiso   1.00
C157   C     0.76679   0.24519   0.17356   0.00000  Uiso   1.00
C158   C     0.71152   0.23387   0.19664   0.00000  Uiso   1.00
C159   C     0.87083   0.16557   0.05820   0.00000  Uiso   1.00
C160   C     0.89267   0.18284   0.97874   0.00000  Uiso   1.00
C161   C     0.89495   0.14302   0.91271   0.00000  Uiso   1.00
H162   H     0.81496   0.05784   0.17336   0.00000  Uiso   1.00
H163   H     0.88624   0.03983   0.29800   0.00000  Uiso   1.00
H164   H     0.71373   0.09030   0.21026   0.00000  Uiso   1.00
H165   H     0.83958   0.02797   0.01547   0.00000  Uiso   1.00
H166   H     0.97359   0.04418   0.43045   0.00000  Uiso   1.00
H167   H     0.60983   0.15060   0.24541   0.00000  Uiso   1.00
H168   H     0.87521   0.01916   0.83466   0.00000  Uiso   1.00
H169   H     0.87913   0.24508   0.12898   0.00000  Uiso   1.00
H170   H     0.95394   0.23735   0.25118   0.00000  Uiso   1.00
H171   H     0.78142   0.28782   0.16344   0.00000  Uiso   1.00
H172   H     0.90727   0.22549   0.96865   0.00000  Uiso   1.00
H173   H     0.02853   0.20449   0.39245   0.00000  Uiso   1.00
H174   H     0.66477   0.31091   0.20741   0.00000  Uiso   1.00
H175   H     0.93015   0.17947   0.79666   0.00000  Uiso   1.00
O176   O     0.04910   0.11588   0.49266   0.00000  Uiso   1.00
O177   O     0.57186   0.25549   0.24988   0.00000  Uiso   1.00
O178   O     0.92004   0.08305   0.71099   0.00000  Uiso   1.00
N179   N     0.97626   0.08296   0.40472   0.00000  Uiso   1.00
N180   N     0.63617   0.18246   0.23174   0.00000  Uiso   1.00
N181   N     0.88427   0.05958   0.84771   0.00000  Uiso   1.00
N182   N     0.00582   0.16923   0.38428   0.00000  Uiso   1.00
N183   N     0.66573   0.26872   0.21129   0.00000  Uiso   1.00
N184   N     0.91383   0.14584   0.82726   0.00000  Uiso   1.00
C185   C     0.10073   0.67034   0.41319   0.00000  Uiso   1.00
C186   C     0.11691   0.62271   0.47475   0.00000  Uiso   1.00
C187   C     0.08247   0.59913   0.53791   0.00000  Uiso   1.00
C188   C     0.10510   0.55595   0.58761   0.00000  Uiso   1.00
C189   C     0.12186   0.48488   0.68521   0.00000  Uiso   1.00
C190   C     0.14434   0.71644   0.42709   0.00000  Uiso   1.00
C191   C     0.13295   0.77167   0.45016   0.00000  Uiso   1.00
C192   C     0.17867   0.80739   0.45973   0.00000  Uiso   1.00
C193   C     0.23799   0.88185   0.48327   0.00000  Uiso   1.00
C194   C     0.11047   0.64805   0.32126   0.00000  Uiso   1.00
C195   C     0.07061   0.64580   0.25534   0.00000  Uiso   1.00
C196   C     0.08781   0.62396   0.17579   0.00000  Uiso   1.00
C197   C     0.09455   0.59224   0.03502   0.00000  Uiso   1.00
C198   C     0.20218   0.63557   0.38914   0.00000  Uiso   1.00
C199   C     0.17202   0.60383   0.46169   0.00000  Uiso   1.00
C200   C     0.19471   0.56067   0.51130   0.00000  Uiso   1.00
C201   C     0.16030   0.53703   0.57452   0.00000  Uiso   1.00
C202   C     0.19944   0.69756   0.41403   0.00000  Uiso   1.00
C203   C     0.24519   0.73321   0.42356   0.00000  Uiso   1.00
C204   C     0.23387   0.78848   0.44664   0.00000  Uiso   1.00
C205   C     0.16557   0.62917   0.30820   0.00000  Uiso   1.00
C206   C     0.18284   0.60733   0.22874   0.00000  Uiso   1.00
C207   C     0.14302   0.60505   0.16271   0.00000  Uiso   1.00
H208   H     0.05784   0.68504   0.42336   0.00000  Uiso   1.00
H209   H     0.03983   0.61376   0.54800   0.00000  Uiso   1.00
H210   H     0.09030   0.78627   0.46026   0.00000  Uiso   1.00
H211   H     0.02797   0.66042   0.26547   0.00000  Uiso   1.00
H212   H     0.04418   0.52641   0.68045   0.00000  Uiso   1.00
H213   H     0.15060   0.89017   0.49541   0.00000  Uiso   1.00
H214   H     0.01916   0.62479   0.08466   0.00000  Uiso   1.00
H215   H     0.24508   0.62087   0.37898   0.00000  Uiso   1.00
H216   H     0.23735   0.54606   0.50118   0.00000  Uiso   1.00
H217   H     0.28782   0.71858   0.41344   0.00000  Uiso   1.00
H218   H     0.22549   0.59273   0.21865   0.00000  Uiso   1.00
H219   H     0.20449   0.47147   0.64245   0.00000  Uiso   1.00
H220   H     0.31091   0.83523   0.45741   0.00000  Uiso   1.00
H221   H     0.17947   0.56985   0.04666   0.00000  Uiso   1.00
O222   O     0.11588   0.45090   0.74266   0.00000  Uiso   1.00
O223   O     0.25549   0.92814   0.49988   0.00000  Uiso   1.00
O224   O     0.08305   0.57996   0.96099   0.00000  Uiso   1.00
N225   N     0.08296   0.52374   0.65472   0.00000  Uiso   1.00
N226   N     0.18246   0.86383   0.48174   0.00000  Uiso   1.00
N227   N     0.05958   0.61573   0.09771   0.00000  Uiso   1.00
N228   N     0.16923   0.49418   0.63428   0.00000  Uiso   1.00
N229   N     0.26872   0.83427   0.46129   0.00000  Uiso   1.00
N230   N     0.14584   0.58617   0.07726   0.00000  Uiso   1.00
C231   C     0.60073   0.17034   0.91319   0.00000  Uiso   1.00
C232   C     0.61691   0.12271   0.97475   0.00000  Uiso   1.00
C233   C     0.58247   0.09913   0.03791   0.00000  Uiso   1.00
C234   C     0.60510   0.05595   0.08761   0.00000  Uiso   1.00
C235   C     0.62186   0.98488   0.18521   0.00000  Uiso   1.00
C236   C     0.64434   0.21644   0.92709   0.00000  Uiso   1.00
C237   C     0.63295   0.27167   0.95016   0.00000  Uiso   1.00
C238   C     0.67867   0.30739   0.95973   0.00000  Uiso   1.00
C239   C     0.73799   0.38185   0.98327   0.00000  Uiso   1.00
C240   C     0.61047   0.14805   0.82126   0.00000  Uiso   1.00
C241   C     0.57061   0.14580   0.75534   0.00000  Uiso   1.00
C242   C     0.58781   0.12396   0.67579   0.00000  Uiso   1.00
C243   C     0.59455   0.09224   0.53502   0.00000  Uiso   1.00
C244   C     0.70218   0.13557   0.88914   0.00000  Uiso   1.00
C245   C     0.67202   0.10383   0.96169   0.00000  Uiso   1.00
C246   C     0.69471   0.06067   0.01130   0.00000  Uiso   1.00
C247   C     0.66030   0.03703   0.07452   0.00000  Uiso   1.00
C248   C     0.69944   0.19756   0.91403   0.00000  Uiso   1.00
C249   C     0.74519   0.23321   0.92356   0.00000  Uiso   1.00
C250   C     0.73387   0.28848   0.94664   0.00000  Uiso   1.00
C251   C     0.66557   0.12917   0.80820   0.00000  Uiso   1.00
C252   C     0.68284   0.10733   0.72874   0.00000  Uiso   1.00
C253   C     0.64302   0.10505   0.66271   0.00000  Uiso   1.00
H254   H     0.55784   0.18504   0.92336   0.00000  Uiso   1.00
H255   H     0.53983   0.11376   0.04800   0.00000  Uiso   1.00
H256   H     0.59030   0.28627   0.96026   0.00000  Uiso   1.00
H257   H     0.52797   0.16042   0.76547   0.00000  Uiso   1.00
H258   H     0.54418   0.02641   0.18045   0.00000  Uiso   1.00
H259   H     0.65060   0.39017   0.99541   0.00000  Uiso   1.00
H260   H     0.51916   0.12479   0.58466   0.00000  Uiso   1.00
H261   H     0.74508   0.12087   0.87898   0.00000  Uiso   1.00
H262   H     0.73735   0.04606   0.00118   0.00000  Uiso   1.00
H263   H     0.78782   0.21858   0.91344   0.00000  Uiso   1.00
H264   H     0.72549   0.09273   0.71865   0.00000  Uiso   1.00
H265   H     0.70449   0.97147   0.14245   0.00000  Uiso   1.00
H266   H     0.81091   0.33523   0.95741   0.00000  Uiso   1.00
H267   H     0.67947   0.06985   0.54666   0.00000  Uiso   1.00
O268   O     0.61588   0.95090   0.24266   0.00000  Uiso   1.00
O269   O     0.75549   0.42814   0.99988   0.00000  Uiso   1.00
O270   O     0.58305   0.07996   0.46099   0.00000  Uiso   1.00
N271   N     0.58296   0.02374   0.15472   0.00000  Uiso   1.00
N272   N     0.68246   0.36383   0.98174   0.00000  Uiso   1.00
N273   N     0.55958   0.11573   0.59771   0.00000  Uiso   1.00
N274   N     0.66923   0.99418   0.13428   0.00000  Uiso   1.00
N275   N     0.76872   0.33427   0.96129   0.00000  Uiso   1.00
N276   N     0.64584   0.08617   0.57726   0.00000  Uiso   1.00
C277   C     0.39927   0.82966   0.91319   0.00000  Uiso   1.00
C278   C     0.38309   0.87729   0.97475   0.00000  Uiso   1.00
C279   C     0.41753   0.90087   0.03791   0.00000  Uiso   1.00
C280   C     0.39490   0.94405   0.08761   0.00000  Uiso   1.00
C281   C     0.37814   0.01512   0.18521   0.00000  Uiso   1.00
C282   C     0.35566   0.78356   0.92709   0.00000  Uiso   1.00
C283   C     0.36705   0.72833   0.95016   0.00000  Uiso   1.00
C284   C     0.32133   0.69261   0.95973   0.00000  Uiso   1.00
C285   C     0.26201   0.61815   0.98327   0.00000  Uiso   1.00
C286   C     0.38953   0.85195   0.82126   0.00000  Uiso   1.00
C287   C     0.42939   0.85420   0.75534   0.00000  Uiso   1.00
C288   C     0.41219   0.87604   0.67579   0.00000  Uiso   1.00
C289   C     0.40545   0.90776   0.53502   0.00000  Uiso   1.00
C290   C     0.29782   0.86443   0.88914   0.00000  Uiso   1.00
C291   C     0.32798   0.89617   0.96169   0.00000  Uiso   1.00
C292   C     0.30529   0.93933   0.01130   0.00000  Uiso   1.00
C293   C     0.33970   0.96297   0.07452   0.00000  Uiso   1.00
C294   C     0.30056   0.80244   0.91403   0.00000  Uiso   1.00
C295   C     0.25481   0.76679   0.92356   0.00000  Uiso   1.00
C296   C     0.26613   0.71152   0.94664   0.00000  Uiso   1.00
C297   C     0.33443   0.87083   0.80820   0.00000  Uiso   1.00
C298   C     0.31716   0.89267   0.72874   0.00000  Uiso   1.00
C299   C     0.35698   0.89495   0.66271   0.00000  Uiso   1.00
H300   H     0.44216   0.81496   0.92336   0.00000  Uiso   1.00
H301   H     0.46017   0.88624   0.04800   0.00000  Uiso   1.00
H302   H     0.40970   0.71373   0.96026   0.00000  Uiso   1.00
H303   H     0.47203   0.83958   0.76547   0.00000  Uiso   1.00
H304   H     0.45582   0.97359   0.18045   0.00000  Uiso   1.00
H305   H     0.34940   0.60983   0.99541   0.00000  Uiso   1.00
H306   H     0.48084   0.87521   0.58466   0.00000  Uiso   1.00
H307   H     0.25492   0.87913   0.87898   0.00000  Uiso   1.00
H308   H     0.26265   0.95394   0.00118   0.00000  Uiso   1.00
H309   H     0.21218   0.78142   0.91344   0.00000  Uiso   1.00
H310   H     0.27451   0.90727   0.71865   0.00000  Uiso   1.00
H311   H     0.29551   0.02853   0.14245   0.00000  Uiso   1.00
H312   H     0.18909   0.66477   0.95741   0.00000  Uiso   1.00
H313   H     0.32053   0.93015   0.54666   0.00000  Uiso   1.00
O314   O     0.38412   0.04910   0.24266   0.00000  Uiso   1.00
O315   O     0.24451   0.57186   0.99988   0.00000  Uiso   1.00
O316   O     0.41695   0.92004   0.46099   0.00000  Uiso   1.00
N317   N     0.41704   0.97626   0.15472   0.00000  Uiso   1.00
N318   N     0.31754   0.63617   0.98174   0.00000  Uiso   1.00
N319   N     0.44042   0.88427   0.59771   0.00000  Uiso   1.00
N320   N     0.33077   0.00582   0.13428   0.00000  Uiso   1.00
N321   N     0.23128   0.66573   0.96129   0.00000  Uiso   1.00
N322   N     0.35416   0.91383   0.57726   0.00000  Uiso   1.00
C323   C     0.89927   0.32966   0.41319   0.00000  Uiso   1.00
C324   C     0.88309   0.37729   0.47475   0.00000  Uiso   1.00
C325   C     0.91753   0.40087   0.53791   0.00000  Uiso   1.00
C326   C     0.89490   0.44405   0.58761   0.00000  Uiso   1.00
C327   C     0.87814   0.51512   0.68521   0.00000  Uiso   1.00
C328   C     0.85566   0.28356   0.42709   0.00000  Uiso   1.00
C329   C     0.86705   0.22833   0.45016   0.00000  Uiso   1.00
C330   C     0.82133   0.19261   0.45973   0.00000  Uiso   1.00
C331   C     0.76201   0.11815   0.48327   0.00000  Uiso   1.00
C332   C     0.88953   0.35195   0.32126   0.00000  Uiso   1.00
C333   C     0.92939   0.35420   0.25534   0.00000  Uiso   1.00
C334   C     0.91219   0.37604   0.17579   0.00000  Uiso   1.00
C335   C     0.90545   0.40776   0.03502   0.00000  Uiso   1.00
C336   C     0.79782   0.36443   0.38914   0.00000  Uiso   1.00
C337   C     0.82798   0.39617   0.46169   0.00000  Uiso   1.00
C338   C     0.80529   0.43933   0.51130   0.00000  Uiso   1.00
C339   C     0.83970   0.46297   0.57452   0.00000  Uiso   1.00
C340   C     0.80056   0.30244   0.41403   0.00000  Uiso   1.00
C341   C     0.75481   0.26679   0.42356   0.00000  Uiso   1.00
C342   C     0.76613   0.21152   0.44664   0.00000  Uiso   1.00
C343   C     0.83443   0.37083   0.30820   0.00000  Uiso   1.00
C344   C     0.81716   0.39267   0.22874   0.00000  Uiso   1.00
C345   C     0.85698   0.39495   0.16271   0.00000  Uiso   1.00
H346   H     0.94216   0.31496   0.42336   0.00000  Uiso   1.00
H347   H     0.96017   0.38624   0.54800   0.00000  Uiso   1.00
H348   H     0.90970   0.21373   0.46026   0.00000  Uiso   1.00
H349   H     0.97203   0.33958   0.26547   0.00000  Uiso   1.00
H350   H     0.95582   0.47359   0.68045   0.00000  Uiso   1.00
H351   H     0.84940   0.10983   0.49541   0.00000  Uiso   1.00
H352   H     0.98084   0.37521   0.08466   0.00000  Uiso   1.00
H353   H     0.75492   0.37913   0.37898   0.00000  Uiso   1.00
H354   H     0.76265   0.45394   0.50118   0.00000  Uiso   1.00
H355   H     0.71218   0.28142   0.41344   0.00000  Uiso   1.00
H356   H     0.77451   0.40727   0.21865   0.00000  Uiso   1.00
H357   H     0.79551   0.52853   0.64245   0.00000  Uiso   1.00
H358   H     0.68909   0.16477   0.45741   0.00000  Uiso   1.00
H359   H     0.82053   0.43015   0.04666   0.00000  Uiso   1.00
O360   O     0.88412   0.54910   0.74266   0.00000  Uiso   1.00
O361   O     0.74451   0.07186   0.49988   0.00000  Uiso   1.00
O362   O     0.91695   0.42004   0.96099   0.00000  Uiso   1.00
N363   N     0.91704   0.47626   0.65472   0.00000  Uiso   1.00
N364   N     0.81754   0.13617   0.48174   0.00000  Uiso   1.00
N365   N     0.94042   0.38427   0.09771   0.00000  Uiso   1.00
N366   N     0.83077   0.50582   0.63428   0.00000  Uiso   1.00
N367   N     0.73128   0.16573   0.46129   0.00000  Uiso   1.00
N368   N     0.85416   0.41383   0.07726   0.00000  Uiso   1.00
C369   C     0.82966   0.60073   0.08681   0.00000  Uiso   1.00
C370   C     0.87729   0.61691   0.02525   0.00000  Uiso   1.00
C371   C     0.90087   0.58247   0.96209   0.00000  Uiso   1.00
C372   C     0.94405   0.60510   0.91239   0.00000  Uiso   1.00
C373   C     0.01512   0.62186   0.81479   0.00000  Uiso   1.00
C374   C     0.78356   0.64434   0.07291   0.00000  Uiso   1.00
C375   C     0.72833   0.63295   0.04984   0.00000  Uiso   1.00
C376   C     0.69261   0.67867   0.04027   0.00000  Uiso   1.00
C377   C     0.61815   0.73799   0.01673   0.00000  Uiso   1.00
C378   C     0.85195   0.61047   0.17874   0.00000  Uiso   1.00
C379   C     0.85420   0.57061   0.24466   0.00000  Uiso   1.00
C380   C     0.87604   0.58781   0.32421   0.00000  Uiso   1.00
C381   C     0.90776   0.59455   0.46498   0.00000  Uiso   1.00
C382   C     0.86443   0.70218   0.11086   0.00000  Uiso   1.00
C383   C     0.89617   0.67202   0.03831   0.00000  Uiso   1.00
C384   C     0.93933   0.69471   0.98870   0.00000  Uiso   1.00
C385   C     0.96297   0.66030   0.92548   0.00000  Uiso   1.00
C386   C     0.80244   0.69944   0.08597   0.00000  Uiso   1.00
C387   C     0.76679   0.74519   0.07644   0.00000  Uiso   1.00
C388   C     0.71152   0.73387   0.05336   0.00000  Uiso   1.00
C389   C     0.87083   0.66557   0.19180   0.00000  Uiso   1.00
C390   C     0.89267   0.68284   0.27126   0.00000  Uiso   1.00
C391   C     0.89495   0.64302   0.33729   0.00000  Uiso   1.00
H392   H     0.81496   0.55784   0.07664   0.00000  Uiso   1.00
H393   H     0.88624   0.53983   0.95200   0.00000  Uiso   1.00
H394   H     0.71373   0.59030   0.03974   0.00000  Uiso   1.00
H395   H     0.83958   0.52797   0.23453   0.00000  Uiso   1.00
H396   H     0.97359   0.54418   0.81955   0.00000  Uiso   1.00
H397   H     0.60983   0.65060   0.00459   0.00000  Uiso   1.00
H398   H     0.87521   0.51916   0.41534   0.00000  Uiso   1.00
H399   H     0.87913   0.74508   0.12102   0.00000  Uiso   1.00
H400   H     0.95394   0.73735   0.99882   0.00000  Uiso   1.00
H401   H     0.78142   0.78782   0.08656   0.00000  Uiso   1.00
H402   H     0.90727   0.72549   0.28135   0.00000  Uiso   1.00
H403   H     0.02853   0.70449   0.85755   0.00000  Uiso   1.00
H404   H     0.66477   0.81091   0.04259   0.00000  Uiso   1.00
H405   H     0.93015   0.67947   0.45334   0.00000  Uiso   1.00
O406   O     0.04910   0.61588   0.75734   0.00000  Uiso   1.00
O407   O     0.57186   0.75549   0.00012   0.00000  Uiso   1.00
O408   O     0.92004   0.58305   0.53901   0.00000  Uiso   1.00
N409   N     0.97626   0.58296   0.84528   0.00000  Uiso   1.00
N410   N     0.63617   0.68246   0.01826   0.00000  Uiso   1.00
N411   N     0.88427   0.55958   0.40229   0.00000  Uiso   1.00
N412   N     0.00582   0.66923   0.86572   0.00000  Uiso   1.00
N413   N     0.66573   0.76872   0.03871   0.00000  Uiso   1.00
N414   N     0.91383   0.64584   0.42274   0.00000  Uiso   1.00
C415   C     0.32966   0.10073   0.58681   0.00000  Uiso   1.00
C416   C     0.37729   0.11691   0.52525   0.00000  Uiso   1.00
C417   C     0.40087   0.08247   0.46209   0.00000  Uiso   1.00
C418   C     0.44405   0.10510   0.41239   0.00000  Uiso   1.00
C419   C     0.51512   0.12186   0.31479   0.00000  Uiso   1.00
C420   C     0.28356   0.14434   0.57291   0.00000  Uiso   1.00
C421   C     0.22833   0.13295   0.54984   0.00000  Uiso   1.00
C422   C     0.19261   0.17867   0.54027   0.00000  Uiso   1.00
C423   C     0.11815   0.23799   0.51673   0.00000  Uiso   1.00
C424   C     0.35195   0.11047   0.67874   0.00000  Uiso   1.00
C425   C     0.35420   0.07061   0.74466   0.00000  Uiso   1.00
C426   C     0.37604   0.08781   0.82421   0.00000  Uiso   1.00
C427   C     0.40776   0.09455   0.96498   0.00000  Uiso   1.00
C428   C     0.36443   0.20218   0.61086   0.00000  Uiso   1.00
C429   C     0.39617   0.17202   0.53831   0.00000  Uiso   1.00
C430   C     0.43933   0.19471   0.48870   0.00000  Uiso   1.00
C431   C     0.46297   0.16030   0.42548   0.00000  Uiso   1.00
C432   C     0.30244   0.19944   0.58597   0.00000  Uiso   1.00
C433   C     0.26679   0.24519   0.57644   0.00000  Uiso   1.00
C434   C     0.21152   0.23387   0.55336   0.00000  Uiso   1.00
C435   C     0.37083   0.16557   0.69180   0.00000  Uiso   1.00
C436   C     0.39267   0.18284   0.77126   0.00000  Uiso   1.00
C437   C     0.39495   0.14302   0.83729   0.00000  Uiso   1.00
H438   H     0.31496   0.05784   0.57664   0.00000  Uiso   1.00
H439   H     0.38624   0.03983   0.45200   0.00000  Uiso   1.00
H440   H     0.21373   0.09030   0.53974   0.00000  Uiso   1.00
H441   H     0.33958   0.02797   0.73453   0.00000  Uiso   1.00
H442   H     0.47359   0.04418   0.31955   0.00000  Uiso   1.00
H443   H     0.10983   0.15060   0.50459   0.00000  Uiso   1.00
H444   H     0.37521   0.01916   0.91534   0.00000  Uiso   1.00
H445   H     0.37913   0.24508   0.62102   0.00000  Uiso   1.00
H446   H     0.45394   0.23735   0.49882   0.00000  Uiso   1.00
H447   H     0.28142   0.28782   0.58656   0.00000  Uiso   1.00
H448   H     0.40727   0.22549   0.78135   0.00000  Uiso   1.00
H449   H     0.52853   0.20449   0.35755   0.00000  Uiso   1.00
H450   H     0.16477   0.31091   0.54259   0.00000  Uiso   1.00
H451   H     0.43015   0.17947   0.95334   0.00000  Uiso   1.00
O452   O     0.54910   0.11588   0.25734   0.00000  Uiso   1.00
O453   O     0.07186   0.25549   0.50012   0.00000  Uiso   1.00
O454   O     0.42004   0.08305   0.03901   0.00000  Uiso   1.00
N455   N     0.47626   0.08296   0.34528   0.00000  Uiso   1.00
N456   N     0.13617   0.18246   0.51826   0.00000  Uiso   1.00
N457   N     0.38427   0.05958   0.90229   0.00000  Uiso   1.00
N458   N     0.50582   0.16923   0.36572   0.00000  Uiso   1.00
N459   N     0.16573   0.26872   0.53871   0.00000  Uiso   1.00
N460   N     0.41383   0.14584   0.92274   0.00000  Uiso   1.00
C461   C     0.67034   0.89927   0.58681   0.00000  Uiso   1.00
C462   C     0.62271   0.88309   0.52525   0.00000  Uiso   1.00
C463   C     0.59913   0.91753   0.46209   0.00000  Uiso   1.00
C464   C     0.55595   0.89490   0.41239   0.00000  Uiso   1.00
C465   C     0.48488   0.87814   0.31479   0.00000  Uiso   1.00
C466   C     0.71644   0.85566   0.57291   0.00000  Uiso   1.00
C467   C     0.77167   0.86705   0.54984   0.00000  Uiso   1.00
C468   C     0.80739   0.82133   0.54027   0.00000  Uiso   1.00
C469   C     0.88185   0.76201   0.51673   0.00000  Uiso   1.00
C470   C     0.64805   0.88953   0.67874   0.00000  Uiso   1.00
C471   C     0.64580   0.92939   0.74466   0.00000  Uiso   1.00
C472   C     0.62396   0.91219   0.82421   0.00000  Uiso   1.00
C473   C     0.59224   0.90545   0.96498   0.00000  Uiso   1.00
C474   C     0.63557   0.79782   0.61086   0.00000  Uiso   1.00
C475   C     0.60383   0.82798   0.53831   0.00000  Uiso   1.00
C476   C     0.56067   0.80529   0.48870   0.00000  Uiso   1.00
C477   C     0.53703   0.83970   0.42548   0.00000  Uiso   1.00
C478   C     0.69756   0.80056   0.58597   0.00000  Uiso   1.00
C479   C     0.73321   0.75481   0.57644   0.00000  Uiso   1.00
C480   C     0.78848   0.76613   0.55336   0.00000  Uiso   1.00
C481   C     0.62917   0.83443   0.69180   0.00000  Uiso   1.00
C482   C     0.60733   0.81716   0.77126   0.00000  Uiso   1.00
C483   C     0.60505   0.85698   0.83729   0.00000  Uiso   1.00
H484   H     0.68504   0.94216   0.57664   0.00000  Uiso   1.00
H485   H     0.61376   0.96017   0.45200   0.00000  Uiso   1.00
H486   H     0.78627   0.90970   0.53974   0.00000  Uiso   1.00
H487   H     0.66042   0.97203   0.73453   0.00000  Uiso   1.00
H488   H     0.52641   0.95582   0.31955   0.00000  Uiso   1.00
H489   H     0.89017   0.84940   0.50459   0.00000  Uiso   1.00
H490   H     0.62479   0.98084   0.91534   0.00000  Uiso   1.00
H491   H     0.62087   0.75492   0.62102   0.00000  Uiso   1.00
H492   H     0.54606   0.76265   0.49882   0.00000  Uiso   1.00
H493   H     0.71858   0.71218   0.58656   0.00000  Uiso   1.00
H494   H     0.59273   0.77451   0.78135   0.00000  Uiso   1.00
H495   H     0.47147   0.79551   0.35755   0.00000  Uiso   1.00
H496   H     0.83523   0.68909   0.54259   0.00000  Uiso   1.00
H497   H     0.56985   0.82053   0.95334   0.00000  Uiso   1.00
O498   O     0.45090   0.88412   0.25734   0.00000  Uiso   1.00
O499   O     0.92814   0.74451   0.50012   0.00000  Uiso   1.00
O500   O     0.57996   0.91695   0.03901   0.00000  Uiso   1.00
N501   N     0.52374   0.91704   0.34528   0.00000  Uiso   1.00
N502   N     0.86383   0.81754   0.51826   0.00000  Uiso   1.00
N503   N     0.61573   0.94042   0.90229   0.00000  Uiso   1.00
N504   N     0.49418   0.83077   0.36572   0.00000  Uiso   1.00
N505   N     0.83427   0.73128   0.53871   0.00000  Uiso   1.00
N506   N     0.58617   0.85416   0.92274   0.00000  Uiso   1.00
C507   C     0.17034   0.39927   0.08681   0.00000  Uiso   1.00
C508   C     0.12271   0.38309   0.02525   0.00000  Uiso   1.00
C509   C     0.09913   0.41753   0.96209   0.00000  Uiso   1.00
C510   C     0.05595   0.39490   0.91239   0.00000  Uiso   1.00
C511   C     0.98488   0.37814   0.81479   0.00000  Uiso   1.00
C512   C     0.21644   0.35566   0.07291   0.00000  Uiso   1.00
C513   C     0.27167   0.36705   0.04984   0.00000  Uiso   1.00
C514   C     0.30739   0.32133   0.04027   0.00000  Uiso   1.00
C515   C     0.38185   0.26201   0.01673   0.00000  Uiso   1.00
C516   C     0.14805   0.38953   0.17874   0.00000  Uiso   1.00
C517   C     0.14580   0.42939   0.24466   0.00000  Uiso   1.00
C518   C     0.12396   0.41219   0.32421   0.00000  Uiso   1.00
C519   C     0.09224   0.40545   0.46498   0.00000  Uiso   1.00
C520   C     0.13557   0.29782   0.11086   0.00000  Uiso   1.00
C521   C     0.10383   0.32798   0.03831   0.00000  Uiso   1.00
C522   C     0.06067   0.30529   0.98870   0.00000  Uiso   1.00
C523   C     0.03703   0.33970   0.92548   0.00000  Uiso   1.00
C524   C     0.19756   0.30056   0.08597   0.00000  Uiso   1.00
C525   C     0.23321   0.25481   0.07644   0.00000  Uiso   1.00
C526   C     0.28848   0.26613   0.05336   0.00000  Uiso   1.00
C527   C     0.12917   0.33443   0.19180   0.00000  Uiso   1.00
C528   C     0.10733   0.31716   0.27126   0.00000  Uiso   1.00
C529   C     0.10505   0.35698   0.33729   0.00000  Uiso   1.00
H530   H     0.18504   0.44216   0.07664   0.00000  Uiso   1.00
H531   H     0.11376   0.46017   0.95200   0.00000  Uiso   1.00
H532   H     0.28627   0.40970   0.03974   0.00000  Uiso   1.00
H533   H     0.16042   0.47203   0.23453   0.00000  Uiso   1.00
H534   H     0.02641   0.45582   0.81955   0.00000  Uiso   1.00
H535   H     0.39017   0.34940   0.00459   0.00000  Uiso   1.00
H536   H     0.12479   0.48084   0.41534   0.00000  Uiso   1.00
H537   H     0.12087   0.25492   0.12102   0.00000  Uiso   1.00
H538   H     0.04606   0.26265   0.99882   0.00000  Uiso   1.00
H539   H     0.21858   0.21218   0.08656   0.00000  Uiso   1.00
H540   H     0.09273   0.27451   0.28135   0.00000  Uiso   1.00
H541   H     0.97147   0.29551   0.85755   0.00000  Uiso   1.00
H542   H     0.33523   0.18909   0.04259   0.00000  Uiso   1.00
H543   H     0.06985   0.32053   0.45334   0.00000  Uiso   1.00
O544   O     0.95090   0.38412   0.75734   0.00000  Uiso   1.00
O545   O     0.42814   0.24451   0.00012   0.00000  Uiso   1.00
O546   O     0.07996   0.41695   0.53901   0.00000  Uiso   1.00
N547   N     0.02374   0.41704   0.84528   0.00000  Uiso   1.00
N548   N     0.36383   0.31754   0.01826   0.00000  Uiso   1.00
N549   N     0.11573   0.44042   0.40229   0.00000  Uiso   1.00
N550   N     0.99418   0.33077   0.86572   0.00000  Uiso   1.00
N551   N     0.33427   0.23128   0.03871   0.00000  Uiso   1.00
N552   N     0.08617   0.35416   0.42274   0.00000  Uiso   1.00
C553   C     0.89927   0.82966   0.83681   0.00000  Uiso   1.00
C554   C     0.88309   0.87729   0.77525   0.00000  Uiso   1.00
C555   C     0.91753   0.90087   0.71209   0.00000  Uiso   1.00
C556   C     0.89490   0.94405   0.66239   0.00000  Uiso   1.00
C557   C     0.87814   0.01512   0.56479   0.00000  Uiso   1.00
C558   C     0.85566   0.78356   0.82291   0.00000  Uiso   1.00
C559   C     0.86705   0.72833   0.79984   0.00000  Uiso   1.00
C560   C     0.82133   0.69261   0.79027   0.00000  Uiso   1.00
C561   C     0.76201   0.61815   0.76673   0.00000  Uiso   1.00
C562   C     0.88953   0.85195   0.92874   0.00000  Uiso   1.00
C563   C     0.92939   0.85420   0.99466   0.00000  Uiso   1.00
C564   C     0.91219   0.87604   0.07421   0.00000  Uiso   1.00
C565   C     0.90545   0.90776   0.21498   0.00000  Uiso   1.00
C566   C     0.79782   0.86443   0.86086   0.00000  Uiso   1.00
C567   C     0.82798   0.89617   0.78831   0.00000  Uiso   1.00
C568   C     0.80529   0.93933   0.73870   0.00000  Uiso   1.00
C569   C     0.83970   0.96297   0.67548   0.00000  Uiso   1.00
C570   C     0.80056   0.80244   0.83597   0.00000  Uiso   1.00
C571   C     0.75481   0.76679   0.82644   0.00000  Uiso   1.00
C572   C     0.76613   0.71152   0.80336   0.00000  Uiso   1.00
C573   C     0.83443   0.87083   0.94180   0.00000  Uiso   1.00
C574   C     0.81716   0.89267   0.02126   0.00000  Uiso   1.00
C575   C     0.85698   0.89495   0.08729   0.00000  Uiso   1.00
H576   H     0.94216   0.81496   0.82664   0.00000  Uiso   1.00
H577   H     0.96017   0.88624   0.70200   0.00000  Uiso   1.00
H578   H     0.90970   0.71373   0.78974   0.00000  Uiso   1.00
H579   H     0.97203   0.83958   0.98453   0.00000  Uiso   1.00
H580   H     0.95582   0.97359   0.56955   0.00000  Uiso   1.00
H581   H     0.84940   0.60983   0.75459   0.00000  Uiso   1.00
H582   H     0.98084   0.87521   0.16534   0.00000  Uiso   1.00
H583   H     0.75492   0.87913   0.87102   0.00000  Uiso   1.00
H584   H     0.76265   0.95394   0.74882   0.00000  Uiso   1.00
H585   H     0.71218   0.78142   0.83656   0.00000  Uiso   1.00
H586   H     0.77451   0.90727   0.03135   0.00000  Uiso   1.00
H587   H     0.79551   0.02853   0.60755   0.00000  Uiso   1.00
H588   H     0.68909   0.66477   0.79259   0.00000  Uiso   1.00
H589   H     0.82053   0.93015   0.20334   0.00000  Uiso   1.00
O590   O     0.88412   0.04910   0.50734   0.00000  Uiso   1.00
O591   O     0.74451   0.57186   0.75012   0.00000  Uiso   1.00
O592   O     0.91695   0.92004   0.28901   0.00000  Uiso   1.00
N593   N     0.91704   0.97626   0.59528   0.00000  Uiso   1.00
N594   N     0.81754   0.63617   0.76826   0.00000  Uiso   1.00
N595   N     0.94042   0.88427   0.15229   0.00000  Uiso   1.00
N596   N     0.83077   0.00582   0.61572   0.00000  Uiso   1.00
N597   N     0.73128   0.66573   0.78871   0.00000  Uiso   1.00
N598   N     0.85416   0.91383   0.17274   0.00000  Uiso   1.00
C599   C     0.39927   0.32966   0.33681   0.00000  Uiso   1.00
C600   C     0.38309   0.37729   0.27525   0.00000  Uiso   1.00
C601   C     0.41753   0.40087   0.21209   0.00000  Uiso   1.00
C602   C     0.39490   0.44405   0.16239   0.00000  Uiso   1.00
C603   C     0.37814   0.51512   0.06479   0.00000  Uiso   1.00
C604   C     0.35566   0.28356   0.32291   0.00000  Uiso   1.00
C605   C     0.36705   0.22833   0.29984   0.00000  Uiso   1.00
C606   C     0.32133   0.19261   0.29027   0.00000  Uiso   1.00
C607   C     0.26201   0.11815   0.26673   0.00000  Uiso   1.00
C608   C     0.38953   0.35195   0.42874   0.00000  Uiso   1.00
C609   C     0.42939   0.35420   0.49466   0.00000  Uiso   1.00
C610   C     0.41219   0.37604   0.57421   0.00000  Uiso   1.00
C611   C     0.40545   0.40776   0.71498   0.00000  Uiso   1.00
C612   C     0.29782   0.36443   0.36086   0.00000  Uiso   1.00
C613   C     0.32798   0.39617   0.28831   0.00000  Uiso   1.00
C614   C     0.30529   0.43933   0.23870   0.00000  Uiso   1.00
C615   C     0.33970   0.46297   0.17548   0.00000  Uiso   1.00
C616   C     0.30056   0.30244   0.33597   0.00000  Uiso   1.00
C617   C     0.25481   0.26679   0.32644   0.00000  Uiso   1.00
C618   C     0.26613   0.21152   0.30336   0.00000  Uiso   1.00
C619   C     0.33443   0.37083   0.44180   0.00000  Uiso   1.00
C620   C     0.31716   0.39267   0.52126   0.00000  Uiso   1.00
C621   C     0.35698   0.39495   0.58729   0.00000  Uiso   1.00
H622   H     0.44216   0.31496   0.32664   0.00000  Uiso   1.00
H623   H     0.46017   0.38624   0.20200   0.00000  Uiso   1.00
H624   H     0.40970   0.21373   0.28974   0.00000  Uiso   1.00
H625   H     0.47203   0.33958   0.48453   0.00000  Uiso   1.00
H626   H     0.45582   0.47359   0.06955   0.00000  Uiso   1.00
H627   H     0.34940   0.10983   0.25459   0.00000  Uiso   1.00
H628   H     0.48084   0.37521   0.66534   0.00000  Uiso   1.00
H629   H     0.25492   0.37913   0.37102   0.00000  Uiso   1.00
H630   H     0.26265   0.45394   0.24882   0.00000  Uiso   1.00
H631   H     0.21218   0.28142   0.33656   0.00000  Uiso   1.00
H632   H     0.27451   0.40727   0.53135   0.00000  Uiso   1.00
H633   H     0.29551   0.52853   0.10755   0.00000  Uiso   1.00
H634   H     0.18909   0.16477   0.29259   0.00000  Uiso   1.00
H635   H     0.32053   0.43015   0.70334   0.00000  Uiso   1.00
O636   O     0.38412   0.54910   0.00734   0.00000  Uiso   1.00
O637   O     0.24451   0.07186   0.25012   0.00000  Uiso   1.00
O638   O     0.41695   0.42004   0.78901   0.00000  Uiso   1.00
N639   N     0.41704   0.47626   0.09528   0.00000  Uiso   1.00
N640   N     0.31754   0.13617   0.26826   0.00000  Uiso   1.00
N641   N     0.44042   0.38427   0.65229   0.00000  Uiso   1.00
N642   N     0.33077   0.50582   0.11572   0.00000  Uiso   1.00
N643   N     0.23128   0.16573   0.28871   0.00000  Uiso   1.00
N644   N     0.35416   0.41383   0.67274   0.00000  Uiso   1.00
C645   C     0.60073   0.67034   0.33681   0.00000  Uiso   1.00
C646   C     0.61691   0.62271   0.27525   0.00000  Uiso   1.00
C647   C     0.58247   0.59913   0.21209   0.00000  Uiso   1.00
C648   C     0.60510   0.55595   0.16239   0.00000  Uiso   1.00
C649   C     0.62186   0.48488   0.06479   0.00000  Uiso   1.00
C650   C     0.64434   0.71644   0.32291   0.00000  Uiso   1.00
C651   C     0.63295   0.77167   0.29984   0.00000  Uiso   1.00
C652   C     0.67867   0.80739   0.29027   0.00000  Uiso   1.00
C653   C     0.73799   0.88185   0.26673   0.00000  Uiso   1.00
C654   C     0.61047   0.64805   0.42874   0.00000  Uiso   1.00
C655   C     0.57061   0.64580   0.49466   0.00000  Uiso   1.00
C656   C     0.58781   0.62396   0.57421   0.00000  Uiso   1.00
C657   C     0.59455   0.59224   0.71498   0.00000  Uiso   1.00
C658   C     0.70218   0.63557   0.36086   0.00000  Uiso   1.00
C659   C     0.67202   0.60383   0.28831   0.00000  Uiso   1.00
C660   C     0.69471   0.56067   0.23870   0.00000  Uiso   1.00
C661   C     0.66030   0.53703   0.17548   0.00000  Uiso   1.00
C662   C     0.69944   0.69756   0.33597   0.00000  Uiso   1.00
C663   C     0.74519   0.73321   0.32644   0.00000  Uiso   1.00
C664   C     0.73387   0.78848   0.30336   0.00000  Uiso   1.00
C665   C     0.66557   0.62917   0.44180   0.00000  Uiso   1.00
C666   C     0.68284   0.60733   0.52126   0.00000  Uiso   1.00
C667   C     0.64302   0.60505   0.58729   0.00000  Uiso   1.00
H668   H     0.55784   0.68504   0.32664   0.00000  Uiso   1.00
H669   H     0.53983   0.61376   0.20200   0.00000  Uiso   1.00
H670   H     0.59030   0.78627   0.28974   0.00000  Uiso   1.00
H671   H     0.52797   0.66042   0.48453   0.00000  Uiso   1.00
H672   H     0.54418   0.52641   0.06955   0.00000  Uiso   1.00
H673   H     0.65060   0.89017   0.25459   0.00000  Uiso   1.00
H674   H     0.51916   0.62479   0.66534   0.00000  Uiso   1.00
H675   H     0.74508   0.62087   0.37102   0.00000  Uiso   1.00
H676   H     0.73735   0.54606   0.24882   0.00000  Uiso   1.00
H677   H     0.78782   0.71858   0.33656   0.00000  Uiso   1.00
H678   H     0.72549   0.59273   0.53135   0.00000  Uiso   1.00
H679   H     0.70449   0.47147   0.10755   0.00000  Uiso   1.00
H680   H     0.81091   0.83523   0.29259   0.00000  Uiso   1.00
H681   H     0.67947   0.56985   0.70334   0.00000  Uiso   1.00
O682   O     0.61588   0.45090   0.00734   0.00000  Uiso   1.00
O683   O     0.75549   0.92814   0.25012   0.00000  Uiso   1.00
O684   O     0.58305   0.57996   0.78901   0.00000  Uiso   1.00
N685   N     0.58296   0.52374   0.09528   0.00000  Uiso   1.00
N686   N     0.68246   0.86383   0.26826   0.00000  Uiso   1.00
N687   N     0.55958   0.61573   0.65229   0.00000  Uiso   1.00
N688   N     0.66923   0.49418   0.11572   0.00000  Uiso   1.00
N689   N     0.76872   0.83427   0.28871   0.00000  Uiso   1.00
N690   N     0.64584   0.58617   0.67274   0.00000  Uiso   1.00
C691   C     0.10073   0.17034   0.83681   0.00000  Uiso   1.00
C692   C     0.11691   0.12271   0.77525   0.00000  Uiso   1.00
C693   C     0.08247   0.09913   0.71209   0.00000  Uiso   1.00
C694   C     0.10510   0.05595   0.66239   0.00000  Uiso   1.00
C695   C     0.12186   0.98488   0.56479   0.00000  Uiso   1.00
C696   C     0.14434   0.21644   0.82291   0.00000  Uiso   1.00
C697   C     0.13295   0.27167   0.79984   0.00000  Uiso   1.00
C698   C     0.17867   0.30739   0.79027   0.00000  Uiso   1.00
C699   C     0.23799   0.38185   0.76673   0.00000  Uiso   1.00
C700   C     0.11047   0.14805   0.92874   0.00000  Uiso   1.00
C701   C     0.07061   0.14580   0.99466   0.00000  Uiso   1.00
C702   C     0.08781   0.12396   0.07421   0.00000  Uiso   1.00
C703   C     0.09455   0.09224   0.21498   0.00000  Uiso   1.00
C704   C     0.20218   0.13557   0.86086   0.00000  Uiso   1.00
C705   C     0.17202   0.10383   0.78831   0.00000  Uiso   1.00
C706   C     0.19471   0.06067   0.73870   0.00000  Uiso   1.00
C707   C     0.16030   0.03703   0.67548   0.00000  Uiso   1.00
C708   C     0.19944   0.19756   0.83597   0.00000  Uiso   1.00
C709   C     0.24519   0.23321   0.82644   0.00000  Uiso   1.00
C710   C     0.23387   0.28848   0.80336   0.00000  Uiso   1.00
C711   C     0.16557   0.12917   0.94180   0.00000  Uiso   1.00
C712   C     0.18284   0.10733   0.02126   0.00000  Uiso   1.00
C713   C     0.14302   0.10505   0.08729   0.00000  Uiso   1.00
H714   H     0.05784   0.18504   0.82664   0.00000  Uiso   1.00
H715   H     0.03983   0.11376   0.70200   0.00000  Uiso   1.00
H716   H     0.09030   0.28627   0.78974   0.00000  Uiso   1.00
H717   H     0.02797   0.16042   0.98453   0.00000  Uiso   1.00
H718   H     0.04418   0.02641   0.56955   0.00000  Uiso   1.00
H719   H     0.15060   0.39017   0.75459   0.00000  Uiso   1.00
H720   H     0.01916   0.12479   0.16534   0.00000  Uiso   1.00
H721   H     0.24508   0.12087   0.87102   0.00000  Uiso   1.00
H722   H     0.23735   0.04606   0.74882   0.00000  Uiso   1.00
H723   H     0.28782   0.21858   0.83656   0.00000  Uiso   1.00
H724   H     0.22549   0.09273   0.03135   0.00000  Uiso   1.00
H725   H     0.20449   0.97147   0.60755   0.00000  Uiso   1.00
H726   H     0.31091   0.33523   0.79259   0.00000  Uiso   1.00
H727   H     0.17947   0.06985   0.20334   0.00000  Uiso   1.00
O728   O     0.11588   0.95090   0.50734   0.00000  Uiso   1.00
O729   O     0.25549   0.42814   0.75012   0.00000  Uiso   1.00
O730   O     0.08305   0.07996   0.28901   0.00000  Uiso   1.00
N731   N     0.08296   0.02374   0.59528   0.00000  Uiso   1.00
N732   N     0.18246   0.36383   0.76826   0.00000  Uiso   1.00
N733   N     0.05958   0.11573   0.15229   0.00000  Uiso   1.00
N734   N     0.16923   0.99418   0.61572   0.00000  Uiso   1.00
N735   N     0.26872   0.33427   0.78871   0.00000  Uiso   1.00
N736   N     0.14584   0.08617   0.17274   0.00000  Uiso   1.00
