data_job_00758
_audit_creation_date              2018-12-19
_audit_creation_method            'Materials Studio'
_symmetry_space_group_name_H-M    'P1'
_symmetry_Int_Tables_number       1
_symmetry_cell_setting            triclinic
loop_
_symmetry_equiv_pos_as_xyz
  x,y,z
_cell_length_a                    24.3398
_cell_length_b                    24.3398
_cell_length_c                    23.8372
_cell_angle_alpha                 90.0000
_cell_angle_beta                  90.0000
_cell_angle_gamma                 90.0000
loop_
_atom_site_label
_atom_site_type_symbol
_atom_site_fract_x
_atom_site_fract_y
_atom_site_fract_z
_atom_site_U_iso_or_equiv
_atom_site_adp_type
_atom_site_occupancy
C1     C     0.60038   0.38814   0.14684   0.00000  Uiso   1.00
C2     C     0.62788   0.33410   0.16294   0.00000  Uiso   1.00
C3     C     0.60269   0.29046   0.19017   0.00000  Uiso   1.00
C4     C     0.63490   0.24463   0.20117   0.00000  Uiso   1.00
C5     C     0.66918   0.16104   0.22858   0.00000  Uiso   1.00
C6     C     0.63457   0.43338   0.17405   0.00000  Uiso   1.00
C7     C     0.61500   0.47321   0.21061   0.00000  Uiso   1.00
C8     C     0.65285   0.51095   0.23094   0.00000  Uiso   1.00
C9     C     0.69751   0.58152   0.27556   0.00000  Uiso   1.00
C10    C     0.60859   0.39436   0.08375   0.00000  Uiso   1.00
C11    C     0.56718   0.40140   0.04438   0.00000  Uiso   1.00
C12    C     0.58315   0.40632   0.98868   0.00000  Uiso   1.00
C13    C     0.58748   0.41630   0.89309   0.00000  Uiso   1.00
C14    C     0.70239   0.38437   0.11795   0.00000  Uiso   1.00
C15    C     0.68329   0.33205   0.14725   0.00000  Uiso   1.00
C16    C     0.71555   0.28628   0.15820   0.00000  Uiso   1.00
C17    C     0.69041   0.24257   0.18544   0.00000  Uiso   1.00
C18    C     0.68998   0.43133   0.15835   0.00000  Uiso   1.00
C19    C     0.72786   0.46903   0.17864   0.00000  Uiso   1.00
C20    C     0.70836   0.50890   0.21522   0.00000  Uiso   1.00
C21    C     0.66400   0.39231   0.06805   0.00000  Uiso   1.00
C22    C     0.68004   0.39722   0.01241   0.00000  Uiso   1.00
C23    C     0.63866   0.40426   0.97296   0.00000  Uiso   1.00
H24    H     0.55724   0.38974   0.15907   0.00000  Uiso   1.00
H25    H     0.55981   0.29206   0.20232   0.00000  Uiso   1.00
H26    H     0.57212   0.47478   0.22274   0.00000  Uiso   1.00
H27    H     0.52431   0.40299   0.05654   0.00000  Uiso   1.00
H28    H     0.58709   0.18287   0.24337   0.00000  Uiso   1.00
H29    H     0.61305   0.56816   0.28642   0.00000  Uiso   1.00
H30    H     0.51222   0.41677   0.93595   0.00000  Uiso   1.00
H31    H     0.74553   0.38277   0.10573   0.00000  Uiso   1.00
H32    H     0.75843   0.28471   0.14605   0.00000  Uiso   1.00
H33    H     0.77074   0.46743   0.16648   0.00000  Uiso   1.00
H34    H     0.72292   0.39564   0.00027   0.00000  Uiso   1.00
H35    H     0.74830   0.17690   0.19770   0.00000  Uiso   1.00
H36    H     0.77425   0.56220   0.24075   0.00000  Uiso   1.00
H37    H     0.67343   0.41080   0.89028   0.00000  Uiso   1.00
O38    O     0.67279   0.11550   0.24804   0.00000  Uiso   1.00
O39    O     0.70684   0.62100   0.30451   0.00000  Uiso   1.00
O40    O     0.57456   0.42237   0.84470   0.00000  Uiso   1.00
N41    N     0.62326   0.19492   0.22708   0.00000  Uiso   1.00
N42    N     0.64753   0.55514   0.26733   0.00000  Uiso   1.00
N43    N     0.55326   0.41361   0.93967   0.00000  Uiso   1.00
N44    N     0.71000   0.19170   0.20250   0.00000  Uiso   1.00
N45    N     0.73427   0.55193   0.24276   0.00000  Uiso   1.00
N46    N     0.64001   0.41040   0.91510   0.00000  Uiso   1.00
C47    C     0.39962   0.61186   0.14684   0.00000  Uiso   1.00
C48    C     0.37212   0.66590   0.16294   0.00000  Uiso   1.00
C49    C     0.39731   0.70954   0.19017   0.00000  Uiso   1.00
C50    C     0.36510   0.75537   0.20117   0.00000  Uiso   1.00
C51    C     0.33082   0.83896   0.22858   0.00000  Uiso   1.00
C52    C     0.36543   0.56662   0.17405   0.00000  Uiso   1.00
C53    C     0.38500   0.52679   0.21061   0.00000  Uiso   1.00
C54    C     0.34715   0.48905   0.23094   0.00000  Uiso   1.00
C55    C     0.30249   0.41848   0.27556   0.00000  Uiso   1.00
C56    C     0.39141   0.60564   0.08375   0.00000  Uiso   1.00
C57    C     0.43282   0.59860   0.04438   0.00000  Uiso   1.00
C58    C     0.41685   0.59368   0.98868   0.00000  Uiso   1.00
C59    C     0.41252   0.58370   0.89309   0.00000  Uiso   1.00
C60    C     0.29761   0.61563   0.11795   0.00000  Uiso   1.00
C61    C     0.31671   0.66795   0.14725   0.00000  Uiso   1.00
C62    C     0.28445   0.71372   0.15820   0.00000  Uiso   1.00
C63    C     0.30959   0.75743   0.18544   0.00000  Uiso   1.00
C64    C     0.31002   0.56867   0.15835   0.00000  Uiso   1.00
C65    C     0.27214   0.53097   0.17864   0.00000  Uiso   1.00
C66    C     0.29164   0.49110   0.21522   0.00000  Uiso   1.00
C67    C     0.33600   0.60769   0.06805   0.00000  Uiso   1.00
C68    C     0.31996   0.60278   0.01241   0.00000  Uiso   1.00
C69    C     0.36134   0.59574   0.97296   0.00000  Uiso   1.00
H70    H     0.44276   0.61026   0.15907   0.00000  Uiso   1.00
H71    H     0.44019   0.70794   0.20232   0.00000  Uiso   1.00
H72    H     0.42788   0.52522   0.22274   0.00000  Uiso   1.00
H73    H     0.47569   0.59701   0.05654   0.00000  Uiso   1.00
H74    H     0.41291   0.81713   0.24337   0.00000  Uiso   1.00
H75    H     0.38695   0.43184   0.28642   0.00000  Uiso   1.00
H76    H     0.48778   0.58323   0.93595   0.00000  Uiso   1.00
H77    H     0.25447   0.61723   0.10573   0.00000  Uiso   1.00
H78    H     0.24157   0.71529   0.14605   0.00000  Uiso   1.00
H79    H     0.22926   0.53257   0.16648   0.00000  Uiso   1.00
H80    H     0.27708   0.60436   0.00027   0.00000  Uiso   1.00
H81    H     0.25170   0.82310   0.19770   0.00000  Uiso   1.00
H82    H     0.22575   0.43780   0.24075   0.00000  Uiso   1.00
H83    H     0.32657   0.58920   0.89028   0.00000  Uiso   1.00
O84    O     0.32721   0.88450   0.24804   0.00000  Uiso   1.00
O85    O     0.29316   0.37900   0.30451   0.00000  Uiso   1.00
O86    O     0.42544   0.57763   0.84470   0.00000  Uiso   1.00
N87    N     0.37674   0.80508   0.22708   0.00000  Uiso   1.00
N88    N     0.35247   0.44486   0.26733   0.00000  Uiso   1.00
N89    N     0.44674   0.58639   0.93967   0.00000  Uiso   1.00
N90    N     0.29000   0.80830   0.20250   0.00000  Uiso   1.00
N91    N     0.26573   0.44807   0.24276   0.00000  Uiso   1.00
N92    N     0.35999   0.58960   0.91510   0.00000  Uiso   1.00
C93    C     0.11186   0.10038   0.14684   0.00000  Uiso   1.00
C94    C     0.16590   0.12788   0.16294   0.00000  Uiso   1.00
C95    C     0.20954   0.10269   0.19017   0.00000  Uiso   1.00
C96    C     0.25537   0.13490   0.20117   0.00000  Uiso   1.00
C97    C     0.33896   0.16918   0.22858   0.00000  Uiso   1.00
C98    C     0.06662   0.13457   0.17405   0.00000  Uiso   1.00
C99    C     0.02679   0.11500   0.21061   0.00000  Uiso   1.00
C100   C     0.98905   0.15285   0.23094   0.00000  Uiso   1.00
C101   C     0.91848   0.19751   0.27556   0.00000  Uiso   1.00
C102   C     0.10564   0.10859   0.08375   0.00000  Uiso   1.00
C103   C     0.09860   0.06718   0.04438   0.00000  Uiso   1.00
C104   C     0.09368   0.08315   0.98868   0.00000  Uiso   1.00
C105   C     0.08370   0.08748   0.89309   0.00000  Uiso   1.00
C106   C     0.11563   0.20239   0.11795   0.00000  Uiso   1.00
C107   C     0.16795   0.18329   0.14725   0.00000  Uiso   1.00
C108   C     0.21372   0.21555   0.15820   0.00000  Uiso   1.00
C109   C     0.25743   0.19041   0.18544   0.00000  Uiso   1.00
C110   C     0.06867   0.18998   0.15835   0.00000  Uiso   1.00
C111   C     0.03097   0.22786   0.17864   0.00000  Uiso   1.00
C112   C     0.99110   0.20836   0.21522   0.00000  Uiso   1.00
C113   C     0.10769   0.16400   0.06805   0.00000  Uiso   1.00
C114   C     0.10278   0.18004   0.01241   0.00000  Uiso   1.00
C115   C     0.09574   0.13866   0.97296   0.00000  Uiso   1.00
H116   H     0.11026   0.05724   0.15907   0.00000  Uiso   1.00
H117   H     0.20794   0.05981   0.20232   0.00000  Uiso   1.00
H118   H     0.02522   0.07212   0.22274   0.00000  Uiso   1.00
H119   H     0.09701   0.02431   0.05654   0.00000  Uiso   1.00
H120   H     0.31713   0.08709   0.24337   0.00000  Uiso   1.00
H121   H     0.93184   0.11305   0.28642   0.00000  Uiso   1.00
H122   H     0.08323   0.01222   0.93595   0.00000  Uiso   1.00
H123   H     0.11723   0.24553   0.10573   0.00000  Uiso   1.00
H124   H     0.21529   0.25843   0.14605   0.00000  Uiso   1.00
H125   H     0.03257   0.27074   0.16648   0.00000  Uiso   1.00
H126   H     0.10436   0.22292   0.00027   0.00000  Uiso   1.00
H127   H     0.32310   0.24830   0.19770   0.00000  Uiso   1.00
H128   H     0.93780   0.27425   0.24075   0.00000  Uiso   1.00
H129   H     0.08920   0.17343   0.89028   0.00000  Uiso   1.00
O130   O     0.38450   0.17279   0.24804   0.00000  Uiso   1.00
O131   O     0.87900   0.20684   0.30451   0.00000  Uiso   1.00
O132   O     0.07763   0.07456   0.84470   0.00000  Uiso   1.00
N133   N     0.30508   0.12326   0.22708   0.00000  Uiso   1.00
N134   N     0.94486   0.14753   0.26733   0.00000  Uiso   1.00
N135   N     0.08639   0.05326   0.93967   0.00000  Uiso   1.00
N136   N     0.30830   0.21000   0.20250   0.00000  Uiso   1.00
N137   N     0.94807   0.23427   0.24276   0.00000  Uiso   1.00
N138   N     0.08960   0.14001   0.91510   0.00000  Uiso   1.00
C139   C     0.88814   0.89962   0.14684   0.00000  Uiso   1.00
C140   C     0.83410   0.87212   0.16294   0.00000  Uiso   1.00
C141   C     0.79046   0.89731   0.19017   0.00000  Uiso   1.00
C142   C     0.74463   0.86510   0.20117   0.00000  Uiso   1.00
C143   C     0.66104   0.83082   0.22858   0.00000  Uiso   1.00
C144   C     0.93338   0.86543   0.17405   0.00000  Uiso   1.00
C145   C     0.97321   0.88500   0.21061   0.00000  Uiso   1.00
C146   C     0.01095   0.84715   0.23094   0.00000  Uiso   1.00
C147   C     0.08152   0.80249   0.27556   0.00000  Uiso   1.00
C148   C     0.89436   0.89141   0.08375   0.00000  Uiso   1.00
C149   C     0.90140   0.93282   0.04438   0.00000  Uiso   1.00
C150   C     0.90632   0.91685   0.98868   0.00000  Uiso   1.00
C151   C     0.91630   0.91252   0.89309   0.00000  Uiso   1.00
C152   C     0.88437   0.79761   0.11795   0.00000  Uiso   1.00
C153   C     0.83205   0.81671   0.14725   0.00000  Uiso   1.00
C154   C     0.78628   0.78445   0.15820   0.00000  Uiso   1.00
C155   C     0.74257   0.80959   0.18544   0.00000  Uiso   1.00
C156   C     0.93133   0.81002   0.15835   0.00000  Uiso   1.00
C157   C     0.96903   0.77214   0.17864   0.00000  Uiso   1.00
C158   C     0.00890   0.79164   0.21522   0.00000  Uiso   1.00
C159   C     0.89231   0.83600   0.06805   0.00000  Uiso   1.00
C160   C     0.89722   0.81996   0.01241   0.00000  Uiso   1.00
C161   C     0.90426   0.86134   0.97296   0.00000  Uiso   1.00
H162   H     0.88974   0.94276   0.15907   0.00000  Uiso   1.00
H163   H     0.79206   0.94019   0.20232   0.00000  Uiso   1.00
H164   H     0.97478   0.92788   0.22274   0.00000  Uiso   1.00
H165   H     0.90299   0.97569   0.05654   0.00000  Uiso   1.00
H166   H     0.68287   0.91291   0.24337   0.00000  Uiso   1.00
H167   H     0.06816   0.88695   0.28642   0.00000  Uiso   1.00
H168   H     0.91677   0.98778   0.93595   0.00000  Uiso   1.00
H169   H     0.88277   0.75447   0.10573   0.00000  Uiso   1.00
H170   H     0.78471   0.74157   0.14605   0.00000  Uiso   1.00
H171   H     0.96743   0.72926   0.16648   0.00000  Uiso   1.00
H172   H     0.89564   0.77708   0.00027   0.00000  Uiso   1.00
H173   H     0.67690   0.75170   0.19770   0.00000  Uiso   1.00
H174   H     0.06220   0.72575   0.24075   0.00000  Uiso   1.00
H175   H     0.91080   0.82657   0.89028   0.00000  Uiso   1.00
O176   O     0.61550   0.82721   0.24804   0.00000  Uiso   1.00
O177   O     0.12100   0.79316   0.30451   0.00000  Uiso   1.00
O178   O     0.92237   0.92544   0.84470   0.00000  Uiso   1.00
N179   N     0.69492   0.87674   0.22708   0.00000  Uiso   1.00
N180   N     0.05514   0.85247   0.26733   0.00000  Uiso   1.00
N181   N     0.91361   0.94674   0.93967   0.00000  Uiso   1.00
N182   N     0.69170   0.79000   0.20250   0.00000  Uiso   1.00
N183   N     0.05193   0.76573   0.24276   0.00000  Uiso   1.00
N184   N     0.91040   0.85999   0.91510   0.00000  Uiso   1.00
C185   C     0.89962   0.88814   0.35316   0.00000  Uiso   1.00
C186   C     0.87212   0.83410   0.33706   0.00000  Uiso   1.00
C187   C     0.89731   0.79046   0.30983   0.00000  Uiso   1.00
C188   C     0.86510   0.74463   0.29883   0.00000  Uiso   1.00
C189   C     0.83082   0.66104   0.27142   0.00000  Uiso   1.00
C190   C     0.86543   0.93338   0.32595   0.00000  Uiso   1.00
C191   C     0.88500   0.97321   0.28939   0.00000  Uiso   1.00
C192   C     0.84715   0.01095   0.26906   0.00000  Uiso   1.00
C193   C     0.80249   0.08152   0.22444   0.00000  Uiso   1.00
C194   C     0.89141   0.89436   0.41625   0.00000  Uiso   1.00
C195   C     0.93282   0.90140   0.45562   0.00000  Uiso   1.00
C196   C     0.91685   0.90632   0.51132   0.00000  Uiso   1.00
C197   C     0.91252   0.91630   0.60691   0.00000  Uiso   1.00
C198   C     0.79761   0.88437   0.38205   0.00000  Uiso   1.00
C199   C     0.81671   0.83205   0.35275   0.00000  Uiso   1.00
C200   C     0.78445   0.78628   0.34180   0.00000  Uiso   1.00
C201   C     0.80959   0.74257   0.31456   0.00000  Uiso   1.00
C202   C     0.81002   0.93133   0.34165   0.00000  Uiso   1.00
C203   C     0.77214   0.96903   0.32136   0.00000  Uiso   1.00
C204   C     0.79164   0.00890   0.28478   0.00000  Uiso   1.00
C205   C     0.83600   0.89231   0.43195   0.00000  Uiso   1.00
C206   C     0.81996   0.89722   0.48759   0.00000  Uiso   1.00
C207   C     0.86134   0.90426   0.52704   0.00000  Uiso   1.00
H208   H     0.94276   0.88974   0.34093   0.00000  Uiso   1.00
H209   H     0.94019   0.79206   0.29768   0.00000  Uiso   1.00
H210   H     0.92788   0.97478   0.27726   0.00000  Uiso   1.00
H211   H     0.97569   0.90299   0.44346   0.00000  Uiso   1.00
H212   H     0.91291   0.68287   0.25663   0.00000  Uiso   1.00
H213   H     0.88695   0.06816   0.21358   0.00000  Uiso   1.00
H214   H     0.98778   0.91677   0.56405   0.00000  Uiso   1.00
H215   H     0.75447   0.88277   0.39427   0.00000  Uiso   1.00
H216   H     0.74157   0.78471   0.35395   0.00000  Uiso   1.00
H217   H     0.72926   0.96743   0.33352   0.00000  Uiso   1.00
H218   H     0.77708   0.89564   0.49973   0.00000  Uiso   1.00
H219   H     0.75170   0.67690   0.30230   0.00000  Uiso   1.00
H220   H     0.72575   0.06220   0.25925   0.00000  Uiso   1.00
H221   H     0.82657   0.91080   0.60972   0.00000  Uiso   1.00
O222   O     0.82721   0.61550   0.25196   0.00000  Uiso   1.00
O223   O     0.79316   0.12100   0.19549   0.00000  Uiso   1.00
O224   O     0.92544   0.92237   0.65530   0.00000  Uiso   1.00
N225   N     0.87674   0.69492   0.27292   0.00000  Uiso   1.00
N226   N     0.85247   0.05514   0.23267   0.00000  Uiso   1.00
N227   N     0.94674   0.91361   0.56033   0.00000  Uiso   1.00
N228   N     0.79000   0.69170   0.29750   0.00000  Uiso   1.00
N229   N     0.76573   0.05193   0.25724   0.00000  Uiso   1.00
N230   N     0.85999   0.91040   0.58490   0.00000  Uiso   1.00
C231   C     0.10038   0.11186   0.35316   0.00000  Uiso   1.00
C232   C     0.12788   0.16590   0.33706   0.00000  Uiso   1.00
C233   C     0.10269   0.20954   0.30983   0.00000  Uiso   1.00
C234   C     0.13490   0.25537   0.29883   0.00000  Uiso   1.00
C235   C     0.16918   0.33896   0.27142   0.00000  Uiso   1.00
C236   C     0.13457   0.06662   0.32595   0.00000  Uiso   1.00
C237   C     0.11500   0.02679   0.28939   0.00000  Uiso   1.00
C238   C     0.15285   0.98905   0.26906   0.00000  Uiso   1.00
C239   C     0.19751   0.91848   0.22444   0.00000  Uiso   1.00
C240   C     0.10859   0.10564   0.41625   0.00000  Uiso   1.00
C241   C     0.06718   0.09860   0.45562   0.00000  Uiso   1.00
C242   C     0.08315   0.09368   0.51132   0.00000  Uiso   1.00
C243   C     0.08748   0.08370   0.60691   0.00000  Uiso   1.00
C244   C     0.20239   0.11563   0.38205   0.00000  Uiso   1.00
C245   C     0.18329   0.16795   0.35275   0.00000  Uiso   1.00
C246   C     0.21555   0.21372   0.34180   0.00000  Uiso   1.00
C247   C     0.19041   0.25743   0.31456   0.00000  Uiso   1.00
C248   C     0.18998   0.06867   0.34165   0.00000  Uiso   1.00
C249   C     0.22786   0.03097   0.32136   0.00000  Uiso   1.00
C250   C     0.20836   0.99110   0.28478   0.00000  Uiso   1.00
C251   C     0.16400   0.10769   0.43195   0.00000  Uiso   1.00
C252   C     0.18004   0.10278   0.48759   0.00000  Uiso   1.00
C253   C     0.13866   0.09574   0.52704   0.00000  Uiso   1.00
H254   H     0.05724   0.11026   0.34093   0.00000  Uiso   1.00
H255   H     0.05981   0.20794   0.29768   0.00000  Uiso   1.00
H256   H     0.07212   0.02522   0.27726   0.00000  Uiso   1.00
H257   H     0.02431   0.09701   0.44346   0.00000  Uiso   1.00
H258   H     0.08709   0.31713   0.25663   0.00000  Uiso   1.00
H259   H     0.11305   0.93184   0.21358   0.00000  Uiso   1.00
H260   H     0.01222   0.08323   0.56405   0.00000  Uiso   1.00
H261   H     0.24553   0.11723   0.39427   0.00000  Uiso   1.00
H262   H     0.25843   0.21529   0.35395   0.00000  Uiso   1.00
H263   H     0.27074   0.03257   0.33352   0.00000  Uiso   1.00
H264   H     0.22292   0.10436   0.49973   0.00000  Uiso   1.00
H265   H     0.24830   0.32310   0.30230   0.00000  Uiso   1.00
H266   H     0.27425   0.93780   0.25925   0.00000  Uiso   1.00
H267   H     0.17343   0.08920   0.60972   0.00000  Uiso   1.00
O268   O     0.17279   0.38450   0.25196   0.00000  Uiso   1.00
O269   O     0.20684   0.87900   0.19549   0.00000  Uiso   1.00
O270   O     0.07456   0.07763   0.65530   0.00000  Uiso   1.00
N271   N     0.12326   0.30508   0.27292   0.00000  Uiso   1.00
N272   N     0.14753   0.94486   0.23267   0.00000  Uiso   1.00
N273   N     0.05326   0.08639   0.56033   0.00000  Uiso   1.00
N274   N     0.21000   0.30830   0.29750   0.00000  Uiso   1.00
N275   N     0.23427   0.94807   0.25724   0.00000  Uiso   1.00
N276   N     0.14001   0.08960   0.58490   0.00000  Uiso   1.00
C277   C     0.38814   0.60038   0.35316   0.00000  Uiso   1.00
C278   C     0.33410   0.62788   0.33706   0.00000  Uiso   1.00
C279   C     0.29046   0.60269   0.30983   0.00000  Uiso   1.00
C280   C     0.24463   0.63490   0.29883   0.00000  Uiso   1.00
C281   C     0.16104   0.66918   0.27142   0.00000  Uiso   1.00
C282   C     0.43338   0.63457   0.32595   0.00000  Uiso   1.00
C283   C     0.47321   0.61500   0.28939   0.00000  Uiso   1.00
C284   C     0.51095   0.65285   0.26906   0.00000  Uiso   1.00
C285   C     0.58152   0.69751   0.22444   0.00000  Uiso   1.00
C286   C     0.39436   0.60859   0.41625   0.00000  Uiso   1.00
C287   C     0.40140   0.56718   0.45562   0.00000  Uiso   1.00
C288   C     0.40632   0.58315   0.51132   0.00000  Uiso   1.00
C289   C     0.41630   0.58748   0.60691   0.00000  Uiso   1.00
C290   C     0.38437   0.70239   0.38205   0.00000  Uiso   1.00
C291   C     0.33205   0.68329   0.35275   0.00000  Uiso   1.00
C292   C     0.28628   0.71555   0.34180   0.00000  Uiso   1.00
C293   C     0.24257   0.69041   0.31456   0.00000  Uiso   1.00
C294   C     0.43133   0.68998   0.34165   0.00000  Uiso   1.00
C295   C     0.46903   0.72786   0.32136   0.00000  Uiso   1.00
C296   C     0.50890   0.70836   0.28478   0.00000  Uiso   1.00
C297   C     0.39231   0.66400   0.43195   0.00000  Uiso   1.00
C298   C     0.39722   0.68004   0.48759   0.00000  Uiso   1.00
C299   C     0.40426   0.63866   0.52704   0.00000  Uiso   1.00
H300   H     0.38974   0.55724   0.34093   0.00000  Uiso   1.00
H301   H     0.29206   0.55981   0.29768   0.00000  Uiso   1.00
H302   H     0.47478   0.57212   0.27726   0.00000  Uiso   1.00
H303   H     0.40299   0.52431   0.44346   0.00000  Uiso   1.00
H304   H     0.18287   0.58709   0.25663   0.00000  Uiso   1.00
H305   H     0.56816   0.61305   0.21358   0.00000  Uiso   1.00
H306   H     0.41677   0.51222   0.56405   0.00000  Uiso   1.00
H307   H     0.38277   0.74553   0.39427   0.00000  Uiso   1.00
H308   H     0.28471   0.75843   0.35395   0.00000  Uiso   1.00
H309   H     0.46743   0.77074   0.33352   0.00000  Uiso   1.00
H310   H     0.39564   0.72292   0.49973   0.00000  Uiso   1.00
H311   H     0.17690   0.74830   0.30230   0.00000  Uiso   1.00
H312   H     0.56220   0.77425   0.25925   0.00000  Uiso   1.00
H313   H     0.41080   0.67343   0.60972   0.00000  Uiso   1.00
O314   O     0.11550   0.67279   0.25196   0.00000  Uiso   1.00
O315   O     0.62100   0.70684   0.19549   0.00000  Uiso   1.00
O316   O     0.42237   0.57456   0.65530   0.00000  Uiso   1.00
N317   N     0.19492   0.62326   0.27292   0.00000  Uiso   1.00
N318   N     0.55514   0.64753   0.23267   0.00000  Uiso   1.00
N319   N     0.41361   0.55326   0.56033   0.00000  Uiso   1.00
N320   N     0.19170   0.71000   0.29750   0.00000  Uiso   1.00
N321   N     0.55193   0.73427   0.25724   0.00000  Uiso   1.00
N322   N     0.41040   0.64001   0.58490   0.00000  Uiso   1.00
C323   C     0.61186   0.39962   0.35316   0.00000  Uiso   1.00
C324   C     0.66590   0.37212   0.33706   0.00000  Uiso   1.00
C325   C     0.70954   0.39731   0.30983   0.00000  Uiso   1.00
C326   C     0.75537   0.36510   0.29883   0.00000  Uiso   1.00
C327   C     0.83896   0.33082   0.27142   0.00000  Uiso   1.00
C328   C     0.56662   0.36543   0.32595   0.00000  Uiso   1.00
C329   C     0.52679   0.38500   0.28939   0.00000  Uiso   1.00
C330   C     0.48905   0.34715   0.26906   0.00000  Uiso   1.00
C331   C     0.41848   0.30249   0.22444   0.00000  Uiso   1.00
C332   C     0.60564   0.39141   0.41625   0.00000  Uiso   1.00
C333   C     0.59860   0.43282   0.45562   0.00000  Uiso   1.00
C334   C     0.59368   0.41685   0.51132   0.00000  Uiso   1.00
C335   C     0.58370   0.41252   0.60691   0.00000  Uiso   1.00
C336   C     0.61563   0.29761   0.38205   0.00000  Uiso   1.00
C337   C     0.66795   0.31671   0.35275   0.00000  Uiso   1.00
C338   C     0.71372   0.28445   0.34180   0.00000  Uiso   1.00
C339   C     0.75743   0.30959   0.31456   0.00000  Uiso   1.00
C340   C     0.56867   0.31002   0.34165   0.00000  Uiso   1.00
C341   C     0.53097   0.27214   0.32136   0.00000  Uiso   1.00
C342   C     0.49110   0.29164   0.28478   0.00000  Uiso   1.00
C343   C     0.60769   0.33600   0.43195   0.00000  Uiso   1.00
C344   C     0.60278   0.31996   0.48759   0.00000  Uiso   1.00
C345   C     0.59574   0.36134   0.52704   0.00000  Uiso   1.00
H346   H     0.61026   0.44276   0.34093   0.00000  Uiso   1.00
H347   H     0.70794   0.44019   0.29768   0.00000  Uiso   1.00
H348   H     0.52522   0.42788   0.27726   0.00000  Uiso   1.00
H349   H     0.59701   0.47569   0.44346   0.00000  Uiso   1.00
H350   H     0.81713   0.41291   0.25663   0.00000  Uiso   1.00
H351   H     0.43184   0.38695   0.21358   0.00000  Uiso   1.00
H352   H     0.58323   0.48778   0.56405   0.00000  Uiso   1.00
H353   H     0.61723   0.25447   0.39427   0.00000  Uiso   1.00
H354   H     0.71529   0.24157   0.35395   0.00000  Uiso   1.00
H355   H     0.53257   0.22926   0.33352   0.00000  Uiso   1.00
H356   H     0.60436   0.27708   0.49973   0.00000  Uiso   1.00
H357   H     0.82310   0.25170   0.30230   0.00000  Uiso   1.00
H358   H     0.43780   0.22575   0.25925   0.00000  Uiso   1.00
H359   H     0.58920   0.32657   0.60972   0.00000  Uiso   1.00
O360   O     0.88450   0.32721   0.25196   0.00000  Uiso   1.00
O361   O     0.37900   0.29316   0.19549   0.00000  Uiso   1.00
O362   O     0.57763   0.42544   0.65530   0.00000  Uiso   1.00
N363   N     0.80508   0.37674   0.27292   0.00000  Uiso   1.00
N364   N     0.44486   0.35247   0.23267   0.00000  Uiso   1.00
N365   N     0.58639   0.44674   0.56033   0.00000  Uiso   1.00
N366   N     0.80830   0.29000   0.29750   0.00000  Uiso   1.00
N367   N     0.44807   0.26573   0.25724   0.00000  Uiso   1.00
N368   N     0.58960   0.35999   0.58490   0.00000  Uiso   1.00
C369   C     0.89962   0.11186   0.85316   0.00000  Uiso   1.00
C370   C     0.87212   0.16590   0.83706   0.00000  Uiso   1.00
C371   C     0.89731   0.20954   0.80983   0.00000  Uiso   1.00
C372   C     0.86510   0.25537   0.79883   0.00000  Uiso   1.00
C373   C     0.83082   0.33896   0.77142   0.00000  Uiso   1.00
C374   C     0.86543   0.06662   0.82595   0.00000  Uiso   1.00
C375   C     0.88500   0.02679   0.78939   0.00000  Uiso   1.00
C376   C     0.84715   0.98905   0.76906   0.00000  Uiso   1.00
C377   C     0.80249   0.91848   0.72444   0.00000  Uiso   1.00
C378   C     0.89141   0.10564   0.91625   0.00000  Uiso   1.00
C379   C     0.93282   0.09860   0.95562   0.00000  Uiso   1.00
C380   C     0.91685   0.09368   0.01132   0.00000  Uiso   1.00
C381   C     0.91252   0.08370   0.10691   0.00000  Uiso   1.00
C382   C     0.79761   0.11563   0.88205   0.00000  Uiso   1.00
C383   C     0.81671   0.16795   0.85275   0.00000  Uiso   1.00
C384   C     0.78445   0.21372   0.84180   0.00000  Uiso   1.00
C385   C     0.80959   0.25743   0.81456   0.00000  Uiso   1.00
C386   C     0.81002   0.06867   0.84165   0.00000  Uiso   1.00
C387   C     0.77214   0.03097   0.82136   0.00000  Uiso   1.00
C388   C     0.79164   0.99110   0.78478   0.00000  Uiso   1.00
C389   C     0.83600   0.10769   0.93195   0.00000  Uiso   1.00
C390   C     0.81996   0.10278   0.98759   0.00000  Uiso   1.00
C391   C     0.86134   0.09574   0.02704   0.00000  Uiso   1.00
H392   H     0.94276   0.11026   0.84093   0.00000  Uiso   1.00
H393   H     0.94019   0.20794   0.79768   0.00000  Uiso   1.00
H394   H     0.92788   0.02522   0.77726   0.00000  Uiso   1.00
H395   H     0.97569   0.09701   0.94346   0.00000  Uiso   1.00
H396   H     0.91291   0.31713   0.75663   0.00000  Uiso   1.00
H397   H     0.88695   0.93184   0.71358   0.00000  Uiso   1.00
H398   H     0.98778   0.08323   0.06405   0.00000  Uiso   1.00
H399   H     0.75447   0.11723   0.89427   0.00000  Uiso   1.00
H400   H     0.74157   0.21529   0.85395   0.00000  Uiso   1.00
H401   H     0.72926   0.03257   0.83352   0.00000  Uiso   1.00
H402   H     0.77708   0.10436   0.99973   0.00000  Uiso   1.00
H403   H     0.75170   0.32310   0.80230   0.00000  Uiso   1.00
H404   H     0.72575   0.93780   0.75925   0.00000  Uiso   1.00
H405   H     0.82657   0.08920   0.10972   0.00000  Uiso   1.00
O406   O     0.82721   0.38450   0.75196   0.00000  Uiso   1.00
O407   O     0.79316   0.87900   0.69549   0.00000  Uiso   1.00
O408   O     0.92544   0.07763   0.15530   0.00000  Uiso   1.00
N409   N     0.87674   0.30508   0.77292   0.00000  Uiso   1.00
N410   N     0.85247   0.94486   0.73267   0.00000  Uiso   1.00
N411   N     0.94674   0.08639   0.06033   0.00000  Uiso   1.00
N412   N     0.79000   0.30830   0.79750   0.00000  Uiso   1.00
N413   N     0.76573   0.94807   0.75724   0.00000  Uiso   1.00
N414   N     0.85999   0.08960   0.08490   0.00000  Uiso   1.00
C415   C     0.10038   0.88814   0.85316   0.00000  Uiso   1.00
C416   C     0.12788   0.83410   0.83706   0.00000  Uiso   1.00
C417   C     0.10269   0.79046   0.80983   0.00000  Uiso   1.00
C418   C     0.13490   0.74463   0.79883   0.00000  Uiso   1.00
C419   C     0.16918   0.66104   0.77142   0.00000  Uiso   1.00
C420   C     0.13457   0.93338   0.82595   0.00000  Uiso   1.00
C421   C     0.11500   0.97321   0.78939   0.00000  Uiso   1.00
C422   C     0.15285   0.01095   0.76906   0.00000  Uiso   1.00
C423   C     0.19751   0.08152   0.72444   0.00000  Uiso   1.00
C424   C     0.10859   0.89436   0.91625   0.00000  Uiso   1.00
C425   C     0.06718   0.90140   0.95562   0.00000  Uiso   1.00
C426   C     0.08315   0.90632   0.01132   0.00000  Uiso   1.00
C427   C     0.08748   0.91630   0.10691   0.00000  Uiso   1.00
C428   C     0.20239   0.88437   0.88205   0.00000  Uiso   1.00
C429   C     0.18329   0.83205   0.85275   0.00000  Uiso   1.00
C430   C     0.21555   0.78628   0.84180   0.00000  Uiso   1.00
C431   C     0.19041   0.74257   0.81456   0.00000  Uiso   1.00
C432   C     0.18998   0.93133   0.84165   0.00000  Uiso   1.00
C433   C     0.22786   0.96903   0.82136   0.00000  Uiso   1.00
C434   C     0.20836   0.00890   0.78478   0.00000  Uiso   1.00
C435   C     0.16400   0.89231   0.93195   0.00000  Uiso   1.00
C436   C     0.18004   0.89722   0.98759   0.00000  Uiso   1.00
C437   C     0.13866   0.90426   0.02704   0.00000  Uiso   1.00
H438   H     0.05724   0.88974   0.84093   0.00000  Uiso   1.00
H439   H     0.05981   0.79206   0.79768   0.00000  Uiso   1.00
H440   H     0.07212   0.97478   0.77726   0.00000  Uiso   1.00
H441   H     0.02431   0.90299   0.94346   0.00000  Uiso   1.00
H442   H     0.08709   0.68287   0.75663   0.00000  Uiso   1.00
H443   H     0.11305   0.06816   0.71358   0.00000  Uiso   1.00
H444   H     0.01222   0.91677   0.06405   0.00000  Uiso   1.00
H445   H     0.24553   0.88277   0.89427   0.00000  Uiso   1.00
H446   H     0.25843   0.78471   0.85395   0.00000  Uiso   1.00
H447   H     0.27074   0.96743   0.83352   0.00000  Uiso   1.00
H448   H     0.22292   0.89564   0.99973   0.00000  Uiso   1.00
H449   H     0.24830   0.67690   0.80230   0.00000  Uiso   1.00
H450   H     0.27425   0.06220   0.75925   0.00000  Uiso   1.00
H451   H     0.17343   0.91080   0.10972   0.00000  Uiso   1.00
O452   O     0.17279   0.61550   0.75196   0.00000  Uiso   1.00
O453   O     0.20684   0.12100   0.69549   0.00000  Uiso   1.00
O454   O     0.07456   0.92237   0.15530   0.00000  Uiso   1.00
N455   N     0.12326   0.69492   0.77292   0.00000  Uiso   1.00
N456   N     0.14753   0.05514   0.73267   0.00000  Uiso   1.00
N457   N     0.05326   0.91361   0.06033   0.00000  Uiso   1.00
N458   N     0.21000   0.69170   0.79750   0.00000  Uiso   1.00
N459   N     0.23427   0.05193   0.75724   0.00000  Uiso   1.00
N460   N     0.14001   0.91040   0.08490   0.00000  Uiso   1.00
C461   C     0.38814   0.39962   0.85316   0.00000  Uiso   1.00
C462   C     0.33410   0.37212   0.83706   0.00000  Uiso   1.00
C463   C     0.29046   0.39731   0.80983   0.00000  Uiso   1.00
C464   C     0.24463   0.36510   0.79883   0.00000  Uiso   1.00
C465   C     0.16104   0.33082   0.77142   0.00000  Uiso   1.00
C466   C     0.43338   0.36543   0.82595   0.00000  Uiso   1.00
C467   C     0.47321   0.38500   0.78939   0.00000  Uiso   1.00
C468   C     0.51095   0.34715   0.76906   0.00000  Uiso   1.00
C469   C     0.58152   0.30249   0.72444   0.00000  Uiso   1.00
C470   C     0.39436   0.39141   0.91625   0.00000  Uiso   1.00
C471   C     0.40140   0.43282   0.95562   0.00000  Uiso   1.00
C472   C     0.40632   0.41685   0.01132   0.00000  Uiso   1.00
C473   C     0.41630   0.41252   0.10691   0.00000  Uiso   1.00
C474   C     0.38437   0.29761   0.88205   0.00000  Uiso   1.00
C475   C     0.33205   0.31671   0.85275   0.00000  Uiso   1.00
C476   C     0.28628   0.28445   0.84180   0.00000  Uiso   1.00
C477   C     0.24257   0.30959   0.81456   0.00000  Uiso   1.00
C478   C     0.43133   0.31002   0.84165   0.00000  Uiso   1.00
C479   C     0.46903   0.27214   0.82136   0.00000  Uiso   1.00
C480   C     0.50890   0.29164   0.78478   0.00000  Uiso   1.00
C481   C     0.39231   0.33600   0.93195   0.00000  Uiso   1.00
C482   C     0.39722   0.31996   0.98759   0.00000  Uiso   1.00
C483   C     0.40426   0.36134   0.02704   0.00000  Uiso   1.00
H484   H     0.38974   0.44276   0.84093   0.00000  Uiso   1.00
H485   H     0.29206   0.44019   0.79768   0.00000  Uiso   1.00
H486   H     0.47478   0.42788   0.77726   0.00000  Uiso   1.00
H487   H     0.40299   0.47569   0.94346   0.00000  Uiso   1.00
H488   H     0.18287   0.41291   0.75663   0.00000  Uiso   1.00
H489   H     0.56816   0.38695   0.71358   0.00000  Uiso   1.00
H490   H     0.41677   0.48778   0.06405   0.00000  Uiso   1.00
H491   H     0.38277   0.25447   0.89427   0.00000  Uiso   1.00
H492   H     0.28471   0.24157   0.85395   0.00000  Uiso   1.00
H493   H     0.46743   0.22926   0.83352   0.00000  Uiso   1.00
H494   H     0.39564   0.27708   0.99973   0.00000  Uiso   1.00
H495   H     0.17690   0.25170   0.80230   0.00000  Uiso   1.00
H496   H     0.56220   0.22575   0.75925   0.00000  Uiso   1.00
H497   H     0.41080   0.32657   0.10972   0.00000  Uiso   1.00
O498   O     0.11550   0.32721   0.75196   0.00000  Uiso   1.00
O499   O     0.62100   0.29316   0.69549   0.00000  Uiso   1.00
O500   O     0.42237   0.42544   0.15530   0.00000  Uiso   1.00
N501   N     0.19492   0.37674   0.77292   0.00000  Uiso   1.00
N502   N     0.55514   0.35247   0.73267   0.00000  Uiso   1.00
N503   N     0.41361   0.44674   0.06033   0.00000  Uiso   1.00
N504   N     0.19170   0.29000   0.79750   0.00000  Uiso   1.00
N505   N     0.55193   0.26573   0.75724   0.00000  Uiso   1.00
N506   N     0.41040   0.35999   0.08490   0.00000  Uiso   1.00
C507   C     0.61186   0.60038   0.85316   0.00000  Uiso   1.00
C508   C     0.66590   0.62788   0.83706   0.00000  Uiso   1.00
C509   C     0.70954   0.60269   0.80983   0.00000  Uiso   1.00
C510   C     0.75537   0.63490   0.79883   0.00000  Uiso   1.00
C511   C     0.83896   0.66918   0.77142   0.00000  Uiso   1.00
C512   C     0.56662   0.63457   0.82595   0.00000  Uiso   1.00
C513   C     0.52679   0.61500   0.78939   0.00000  Uiso   1.00
C514   C     0.48905   0.65285   0.76906   0.00000  Uiso   1.00
C515   C     0.41848   0.69751   0.72444   0.00000  Uiso   1.00
C516   C     0.60564   0.60859   0.91625   0.00000  Uiso   1.00
C517   C     0.59860   0.56718   0.95562   0.00000  Uiso   1.00
C518   C     0.59368   0.58315   0.01132   0.00000  Uiso   1.00
C519   C     0.58370   0.58748   0.10691   0.00000  Uiso   1.00
C520   C     0.61563   0.70239   0.88205   0.00000  Uiso   1.00
C521   C     0.66795   0.68329   0.85275   0.00000  Uiso   1.00
C522   C     0.71372   0.71555   0.84180   0.00000  Uiso   1.00
C523   C     0.75743   0.69041   0.81456   0.00000  Uiso   1.00
C524   C     0.56867   0.68998   0.84165   0.00000  Uiso   1.00
C525   C     0.53097   0.72786   0.82136   0.00000  Uiso   1.00
C526   C     0.49110   0.70836   0.78478   0.00000  Uiso   1.00
C527   C     0.60769   0.66400   0.93195   0.00000  Uiso   1.00
C528   C     0.60278   0.68004   0.98759   0.00000  Uiso   1.00
C529   C     0.59574   0.63866   0.02704   0.00000  Uiso   1.00
H530   H     0.61026   0.55724   0.84093   0.00000  Uiso   1.00
H531   H     0.70794   0.55981   0.79768   0.00000  Uiso   1.00
H532   H     0.52522   0.57212   0.77726   0.00000  Uiso   1.00
H533   H     0.59701   0.52431   0.94346   0.00000  Uiso   1.00
H534   H     0.81713   0.58709   0.75663   0.00000  Uiso   1.00
H535   H     0.43184   0.61305   0.71358   0.00000  Uiso   1.00
H536   H     0.58323   0.51222   0.06405   0.00000  Uiso   1.00
H537   H     0.61723   0.74553   0.89427   0.00000  Uiso   1.00
H538   H     0.71529   0.75843   0.85395   0.00000  Uiso   1.00
H539   H     0.53257   0.77074   0.83352   0.00000  Uiso   1.00
H540   H     0.60436   0.72292   0.99973   0.00000  Uiso   1.00
H541   H     0.82310   0.74830   0.80230   0.00000  Uiso   1.00
H542   H     0.43780   0.77425   0.75925   0.00000  Uiso   1.00
H543   H     0.58920   0.67343   0.10972   0.00000  Uiso   1.00
O544   O     0.88450   0.67279   0.75196   0.00000  Uiso   1.00
O545   O     0.37900   0.70684   0.69549   0.00000  Uiso   1.00
O546   O     0.57763   0.57456   0.15530   0.00000  Uiso   1.00
N547   N     0.80508   0.62326   0.77292   0.00000  Uiso   1.00
N548   N     0.44486   0.64753   0.73267   0.00000  Uiso   1.00
N549   N     0.58639   0.55326   0.06033   0.00000  Uiso   1.00
N550   N     0.80830   0.71000   0.79750   0.00000  Uiso   1.00
N551   N     0.44807   0.73427   0.75724   0.00000  Uiso   1.00
N552   N     0.58960   0.64001   0.08490   0.00000  Uiso   1.00
C553   C     0.60038   0.61186   0.64684   0.00000  Uiso   1.00
C554   C     0.62788   0.66590   0.66294   0.00000  Uiso   1.00
C555   C     0.60269   0.70954   0.69017   0.00000  Uiso   1.00
C556   C     0.63490   0.75537   0.70117   0.00000  Uiso   1.00
C557   C     0.66918   0.83896   0.72858   0.00000  Uiso   1.00
C558   C     0.63457   0.56662   0.67405   0.00000  Uiso   1.00
C559   C     0.61500   0.52679   0.71061   0.00000  Uiso   1.00
C560   C     0.65285   0.48905   0.73094   0.00000  Uiso   1.00
C561   C     0.69751   0.41848   0.77556   0.00000  Uiso   1.00
C562   C     0.60859   0.60564   0.58375   0.00000  Uiso   1.00
C563   C     0.56718   0.59860   0.54438   0.00000  Uiso   1.00
C564   C     0.58315   0.59368   0.48868   0.00000  Uiso   1.00
C565   C     0.58748   0.58370   0.39309   0.00000  Uiso   1.00
C566   C     0.70239   0.61563   0.61795   0.00000  Uiso   1.00
C567   C     0.68329   0.66795   0.64725   0.00000  Uiso   1.00
C568   C     0.71555   0.71372   0.65820   0.00000  Uiso   1.00
C569   C     0.69041   0.75743   0.68544   0.00000  Uiso   1.00
C570   C     0.68998   0.56867   0.65835   0.00000  Uiso   1.00
C571   C     0.72786   0.53097   0.67864   0.00000  Uiso   1.00
C572   C     0.70836   0.49110   0.71522   0.00000  Uiso   1.00
C573   C     0.66400   0.60769   0.56805   0.00000  Uiso   1.00
C574   C     0.68004   0.60278   0.51241   0.00000  Uiso   1.00
C575   C     0.63866   0.59574   0.47296   0.00000  Uiso   1.00
H576   H     0.55724   0.61026   0.65907   0.00000  Uiso   1.00
H577   H     0.55981   0.70794   0.70232   0.00000  Uiso   1.00
H578   H     0.57212   0.52522   0.72274   0.00000  Uiso   1.00
H579   H     0.52431   0.59701   0.55654   0.00000  Uiso   1.00
H580   H     0.58709   0.81713   0.74337   0.00000  Uiso   1.00
H581   H     0.61305   0.43184   0.78642   0.00000  Uiso   1.00
H582   H     0.51222   0.58323   0.43595   0.00000  Uiso   1.00
H583   H     0.74553   0.61723   0.60573   0.00000  Uiso   1.00
H584   H     0.75843   0.71529   0.64605   0.00000  Uiso   1.00
H585   H     0.77074   0.53257   0.66648   0.00000  Uiso   1.00
H586   H     0.72292   0.60436   0.50027   0.00000  Uiso   1.00
H587   H     0.74830   0.82310   0.69770   0.00000  Uiso   1.00
H588   H     0.77425   0.43780   0.74075   0.00000  Uiso   1.00
H589   H     0.67343   0.58920   0.39028   0.00000  Uiso   1.00
O590   O     0.67279   0.88450   0.74804   0.00000  Uiso   1.00
O591   O     0.70684   0.37900   0.80451   0.00000  Uiso   1.00
O592   O     0.57456   0.57763   0.34470   0.00000  Uiso   1.00
N593   N     0.62326   0.80508   0.72708   0.00000  Uiso   1.00
N594   N     0.64753   0.44486   0.76733   0.00000  Uiso   1.00
N595   N     0.55326   0.58639   0.43967   0.00000  Uiso   1.00
N596   N     0.71000   0.80830   0.70250   0.00000  Uiso   1.00
N597   N     0.73427   0.44807   0.74276   0.00000  Uiso   1.00
N598   N     0.64001   0.58960   0.41510   0.00000  Uiso   1.00
C599   C     0.39962   0.38814   0.64684   0.00000  Uiso   1.00
C600   C     0.37212   0.33410   0.66294   0.00000  Uiso   1.00
C601   C     0.39731   0.29046   0.69017   0.00000  Uiso   1.00
C602   C     0.36510   0.24463   0.70117   0.00000  Uiso   1.00
C603   C     0.33082   0.16104   0.72858   0.00000  Uiso   1.00
C604   C     0.36543   0.43338   0.67405   0.00000  Uiso   1.00
C605   C     0.38500   0.47321   0.71061   0.00000  Uiso   1.00
C606   C     0.34715   0.51095   0.73094   0.00000  Uiso   1.00
C607   C     0.30249   0.58152   0.77556   0.00000  Uiso   1.00
C608   C     0.39141   0.39436   0.58375   0.00000  Uiso   1.00
C609   C     0.43282   0.40140   0.54438   0.00000  Uiso   1.00
C610   C     0.41685   0.40632   0.48868   0.00000  Uiso   1.00
C611   C     0.41252   0.41630   0.39309   0.00000  Uiso   1.00
C612   C     0.29761   0.38437   0.61795   0.00000  Uiso   1.00
C613   C     0.31671   0.33205   0.64725   0.00000  Uiso   1.00
C614   C     0.28445   0.28628   0.65820   0.00000  Uiso   1.00
C615   C     0.30959   0.24257   0.68544   0.00000  Uiso   1.00
C616   C     0.31002   0.43133   0.65835   0.00000  Uiso   1.00
C617   C     0.27214   0.46903   0.67864   0.00000  Uiso   1.00
C618   C     0.29164   0.50890   0.71522   0.00000  Uiso   1.00
C619   C     0.33600   0.39231   0.56805   0.00000  Uiso   1.00
C620   C     0.31996   0.39722   0.51241   0.00000  Uiso   1.00
C621   C     0.36134   0.40426   0.47296   0.00000  Uiso   1.00
H622   H     0.44276   0.38974   0.65907   0.00000  Uiso   1.00
H623   H     0.44019   0.29206   0.70232   0.00000  Uiso   1.00
H624   H     0.42788   0.47478   0.72274   0.00000  Uiso   1.00
H625   H     0.47569   0.40299   0.55654   0.00000  Uiso   1.00
H626   H     0.41291   0.18287   0.74337   0.00000  Uiso   1.00
H627   H     0.38695   0.56816   0.78642   0.00000  Uiso   1.00
H628   H     0.48778   0.41677   0.43595   0.00000  Uiso   1.00
H629   H     0.25447   0.38277   0.60573   0.00000  Uiso   1.00
H630   H     0.24157   0.28471   0.64605   0.00000  Uiso   1.00
H631   H     0.22926   0.46743   0.66648   0.00000  Uiso   1.00
H632   H     0.27708   0.39564   0.50027   0.00000  Uiso   1.00
H633   H     0.25170   0.17690   0.69770   0.00000  Uiso   1.00
H634   H     0.22575   0.56220   0.74075   0.00000  Uiso   1.00
H635   H     0.32657   0.41080   0.39028   0.00000  Uiso   1.00
O636   O     0.32721   0.11550   0.74804   0.00000  Uiso   1.00
O637   O     0.29316   0.62100   0.80451   0.00000  Uiso   1.00
O638   O     0.42544   0.42237   0.34470   0.00000  Uiso   1.00
N639   N     0.37674   0.19492   0.72708   0.00000  Uiso   1.00
N640   N     0.35247   0.55514   0.76733   0.00000  Uiso   1.00
N641   N     0.44674   0.41361   0.43967   0.00000  Uiso   1.00
N642   N     0.29000   0.19170   0.70250   0.00000  Uiso   1.00
N643   N     0.26573   0.55193   0.74276   0.00000  Uiso   1.00
N644   N     0.35999   0.41040   0.41510   0.00000  Uiso   1.00
C645   C     0.11186   0.89962   0.64684   0.00000  Uiso   1.00
C646   C     0.16590   0.87212   0.66294   0.00000  Uiso   1.00
C647   C     0.20954   0.89731   0.69017   0.00000  Uiso   1.00
C648   C     0.25537   0.86510   0.70117   0.00000  Uiso   1.00
C649   C     0.33896   0.83082   0.72858   0.00000  Uiso   1.00
C650   C     0.06662   0.86543   0.67405   0.00000  Uiso   1.00
C651   C     0.02679   0.88500   0.71061   0.00000  Uiso   1.00
C652   C     0.98905   0.84715   0.73094   0.00000  Uiso   1.00
C653   C     0.91848   0.80249   0.77556   0.00000  Uiso   1.00
C654   C     0.10564   0.89141   0.58375   0.00000  Uiso   1.00
C655   C     0.09860   0.93282   0.54438   0.00000  Uiso   1.00
C656   C     0.09368   0.91685   0.48868   0.00000  Uiso   1.00
C657   C     0.08370   0.91252   0.39309   0.00000  Uiso   1.00
C658   C     0.11563   0.79761   0.61795   0.00000  Uiso   1.00
C659   C     0.16795   0.81671   0.64725   0.00000  Uiso   1.00
C660   C     0.21372   0.78445   0.65820   0.00000  Uiso   1.00
C661   C     0.25743   0.80959   0.68544   0.00000  Uiso   1.00
C662   C     0.06867   0.81002   0.65835   0.00000  Uiso   1.00
C663   C     0.03097   0.77214   0.67864   0.00000  Uiso   1.00
C664   C     0.99110   0.79164   0.71522   0.00000  Uiso   1.00
C665   C     0.10769   0.83600   0.56805   0.00000  Uiso   1.00
C666   C     0.10278   0.81996   0.51241   0.00000  Uiso   1.00
C667   C     0.09574   0.86134   0.47296   0.00000  Uiso   1.00
H668   H     0.11026   0.94276   0.65907   0.00000  Uiso   1.00
H669   H     0.20794   0.94019   0.70232   0.00000  Uiso   1.00
H670   H     0.02522   0.92788   0.72274   0.00000  Uiso   1.00
H671   H     0.09701   0.97569   0.55654   0.00000  Uiso   1.00
H672   H     0.31713   0.91291   0.74337   0.00000  Uiso   1.00
H673   H     0.93184   0.88695   0.78642   0.00000  Uiso   1.00
H674   H     0.08323   0.98778   0.43595   0.00000  Uiso   1.00
H675   H     0.11723   0.75447   0.60573   0.00000  Uiso   1.00
H676   H     0.21529   0.74157   0.64605   0.00000  Uiso   1.00
H677   H     0.03257   0.72926   0.66648   0.00000  Uiso   1.00
H678   H     0.10436   0.77708   0.50027   0.00000  Uiso   1.00
H679   H     0.32310   0.75170   0.69770   0.00000  Uiso   1.00
H680   H     0.93780   0.72575   0.74075   0.00000  Uiso   1.00
H681   H     0.08920   0.82657   0.39028   0.00000  Uiso   1.00
O682   O     0.38450   0.82721   0.74804   0.00000  Uiso   1.00
O683   O     0.87900   0.79316   0.80451   0.00000  Uiso   1.00
O684   O     0.07763   0.92544   0.34470   0.00000  Uiso   1.00
N685   N     0.30508   0.87674   0.72708   0.00000  Uiso   1.00
N686   N     0.94486   0.85247   0.76733   0.00000  Uiso   1.00
N687   N     0.08639   0.94674   0.43967   0.00000  Uiso   1.00
N688   N     0.30830   0.79000   0.70250   0.00000  Uiso   1.00
N689   N     0.94807   0.76573   0.74276   0.00000  Uiso   1.00
N690   N     0.08960   0.85999   0.41510   0.00000  Uiso   1.00
C691   C     0.88814   0.10038   0.64684   0.00000  Uiso   1.00
C692   C     0.83410   0.12788   0.66294   0.00000  Uiso   1.00
C693   C     0.79046   0.10269   0.69017   0.00000  Uiso   1.00
C694   C     0.74463   0.13490   0.70117   0.00000  Uiso   1.00
C695   C     0.66104   0.16918   0.72858   0.00000  Uiso   1.00
C696   C     0.93338   0.13457   0.67405   0.00000  Uiso   1.00
C697   C     0.97321   0.11500   0.71061   0.00000  Uiso   1.00
C698   C     0.01095   0.15285   0.73094   0.00000  Uiso   1.00
C699   C     0.08152   0.19751   0.77556   0.00000  Uiso   1.00
C700   C     0.89436   0.10859   0.58375   0.00000  Uiso   1.00
C701   C     0.90140   0.06718   0.54438   0.00000  Uiso   1.00
C702   C     0.90632   0.08315   0.48868   0.00000  Uiso   1.00
C703   C     0.91630   0.08748   0.39309   0.00000  Uiso   1.00
C704   C     0.88437   0.20239   0.61795   0.00000  Uiso   1.00
C705   C     0.83205   0.18329   0.64725   0.00000  Uiso   1.00
C706   C     0.78628   0.21555   0.65820   0.00000  Uiso   1.00
C707   C     0.74257   0.19041   0.68544   0.00000  Uiso   1.00
C708   C     0.93133   0.18998   0.65835   0.00000  Uiso   1.00
C709   C     0.96903   0.22786   0.67864   0.00000  Uiso   1.00
C710   C     0.00890   0.20836   0.71522   0.00000  Uiso   1.00
C711   C     0.89231   0.16400   0.56805   0.00000  Uiso   1.00
C712   C     0.89722   0.18004   0.51241   0.00000  Uiso   1.00
C713   C     0.90426   0.13866   0.47296   0.00000  Uiso   1.00
H714   H     0.88974   0.05724   0.65907   0.00000  Uiso   1.00
H715   H     0.79206   0.05981   0.70232   0.00000  Uiso   1.00
H716   H     0.97478   0.07212   0.72274   0.00000  Uiso   1.00
H717   H     0.90299   0.02431   0.55654   0.00000  Uiso   1.00
H718   H     0.68287   0.08709   0.74337   0.00000  Uiso   1.00
H719   H     0.06816   0.11305   0.78642   0.00000  Uiso   1.00
H720   H     0.91677   0.01222   0.43595   0.00000  Uiso   1.00
H721   H     0.88277   0.24553   0.60573   0.00000  Uiso   1.00
H722   H     0.78471   0.25843   0.64605   0.00000  Uiso   1.00
H723   H     0.96743   0.27074   0.66648   0.00000  Uiso   1.00
H724   H     0.89564   0.22292   0.50027   0.00000  Uiso   1.00
H725   H     0.67690   0.24830   0.69770   0.00000  Uiso   1.00
H726   H     0.06220   0.27425   0.74075   0.00000  Uiso   1.00
H727   H     0.91080   0.17343   0.39028   0.00000  Uiso   1.00
O728   O     0.61550   0.17279   0.74804   0.00000  Uiso   1.00
O729   O     0.12100   0.20684   0.80451   0.00000  Uiso   1.00
O730   O     0.92237   0.07456   0.34470   0.00000  Uiso   1.00
N731   N     0.69492   0.12326   0.72708   0.00000  Uiso   1.00
N732   N     0.05514   0.14753   0.76733   0.00000  Uiso   1.00
N733   N     0.91361   0.05326   0.43967   0.00000  Uiso   1.00
N734   N     0.69170   0.21000   0.70250   0.00000  Uiso   1.00
N735   N     0.05193   0.23427   0.74276   0.00000  Uiso   1.00
N736   N     0.91040   0.14001   0.41510   0.00000  Uiso   1.00
