data_job_02450
_audit_creation_date              2018-12-19
_audit_creation_method            'Materials Studio'
_symmetry_space_group_name_H-M    'P1'
_symmetry_Int_Tables_number       1
_symmetry_cell_setting            triclinic
loop_
_symmetry_equiv_pos_as_xyz
  x,y,z
_cell_length_a                    21.9692
_cell_length_b                    32.9226
_cell_length_c                    18.0809
_cell_angle_alpha                 90.0000
_cell_angle_beta                  90.0000
_cell_angle_gamma                 90.0000
loop_
_atom_site_label
_atom_site_type_symbol
_atom_site_fract_x
_atom_site_fract_y
_atom_site_fract_z
_atom_site_U_iso_or_equiv
_atom_site_adp_type
_atom_site_occupancy
C1     C     0.06119   0.16302   0.00304   0.00000  Uiso   1.00
C2     C     0.08623   0.13029   0.95171   0.00000  Uiso   1.00
C3     C     0.10480   0.13611   0.87911   0.00000  Uiso   1.00
C4     C     0.12633   0.10230   0.84141   0.00000  Uiso   1.00
C5     C     0.16475   0.05729   0.75656   0.00000  Uiso   1.00
C6     C     0.99907   0.14787   0.02861   0.00000  Uiso   1.00
C7     C     0.94435   0.16848   0.02068   0.00000  Uiso   1.00
C8     C     0.89251   0.14948   0.04773   0.00000  Uiso   1.00
C9     C     0.79561   0.13177   0.08232   0.00000  Uiso   1.00
C10    C     0.10186   0.16266   0.07138   0.00000  Uiso   1.00
C11    C     0.13356   0.19571   0.09943   0.00000  Uiso   1.00
C12    C     0.16826   0.18916   0.16250   0.00000  Uiso   1.00
C13    C     0.23096   0.19442   0.26349   0.00000  Uiso   1.00
C14    C     0.06643   0.09262   0.06517   0.00000  Uiso   1.00
C15    C     0.08907   0.09205   0.98546   0.00000  Uiso   1.00
C16    C     0.11059   0.05822   0.94785   0.00000  Uiso   1.00
C17    C     0.12918   0.06400   0.87522   0.00000  Uiso   1.00
C18    C     0.00191   0.10963   0.06236   0.00000  Uiso   1.00
C19    C     0.95014   0.09059   0.08943   0.00000  Uiso   1.00
C20    C     0.89536   0.11117   0.08154   0.00000  Uiso   1.00
C21    C     0.10471   0.12442   0.10513   0.00000  Uiso   1.00
C22    C     0.13936   0.11782   0.16817   0.00000  Uiso   1.00
C23    C     0.17111   0.15085   0.19631   0.00000  Uiso   1.00
H24    H     0.05898   0.19280   0.97677   0.00000  Uiso   1.00
H25    H     0.10258   0.16571   0.85301   0.00000  Uiso   1.00
H26    H     0.94216   0.19808   0.99457   0.00000  Uiso   1.00
H27    H     0.13135   0.22530   0.07330   0.00000  Uiso   1.00
H28    H     0.15216   0.11882   0.73068   0.00000  Uiso   1.00
H29    H     0.81391   0.18707   0.02919   0.00000  Uiso   1.00
H30    H     0.21285   0.24447   0.19520   0.00000  Uiso   1.00
H31    H     0.06864   0.06285   0.09145   0.00000  Uiso   1.00
H32    H     0.11278   0.02863   0.97399   0.00000  Uiso   1.00
H33    H     0.95236   0.06100   0.11554   0.00000  Uiso   1.00
H34    H     0.14155   0.08822   0.19427   0.00000  Uiso   1.00
H35    H     0.16044   0.00756   0.82887   0.00000  Uiso   1.00
H36    H     0.82218   0.07581   0.12737   0.00000  Uiso   1.00
H37    H     0.22112   0.13321   0.29339   0.00000  Uiso   1.00
O38    O     0.18514   0.04302   0.70043   0.00000  Uiso   1.00
O39    O     0.74137   0.13257   0.09207   0.00000  Uiso   1.00
O40    O     0.26477   0.20788   0.30987   0.00000  Uiso   1.00
N41    N     0.14806   0.09733   0.76992   0.00000  Uiso   1.00
N42    N     0.83182   0.16114   0.04899   0.00000  Uiso   1.00
N43    N     0.20478   0.21481   0.20421   0.00000  Uiso   1.00
N44    N     0.15252   0.03746   0.82275   0.00000  Uiso   1.00
N45    N     0.83627   0.10127   0.10182   0.00000  Uiso   1.00
N46    N     0.20923   0.15494   0.25704   0.00000  Uiso   1.00
C47    C     0.56119   0.66302   0.50304   0.00000  Uiso   1.00
C48    C     0.58623   0.63029   0.45171   0.00000  Uiso   1.00
C49    C     0.60480   0.63611   0.37911   0.00000  Uiso   1.00
C50    C     0.62633   0.60230   0.34141   0.00000  Uiso   1.00
C51    C     0.66475   0.55729   0.25656   0.00000  Uiso   1.00
C52    C     0.49907   0.64787   0.52861   0.00000  Uiso   1.00
C53    C     0.44435   0.66848   0.52068   0.00000  Uiso   1.00
C54    C     0.39251   0.64948   0.54773   0.00000  Uiso   1.00
C55    C     0.29561   0.63177   0.58232   0.00000  Uiso   1.00
C56    C     0.60186   0.66266   0.57138   0.00000  Uiso   1.00
C57    C     0.63356   0.69571   0.59943   0.00000  Uiso   1.00
C58    C     0.66826   0.68916   0.66250   0.00000  Uiso   1.00
C59    C     0.73096   0.69442   0.76349   0.00000  Uiso   1.00
C60    C     0.56643   0.59262   0.56517   0.00000  Uiso   1.00
C61    C     0.58907   0.59205   0.48546   0.00000  Uiso   1.00
C62    C     0.61059   0.55822   0.44785   0.00000  Uiso   1.00
C63    C     0.62918   0.56400   0.37522   0.00000  Uiso   1.00
C64    C     0.50191   0.60963   0.56236   0.00000  Uiso   1.00
C65    C     0.45014   0.59059   0.58943   0.00000  Uiso   1.00
C66    C     0.39536   0.61117   0.58154   0.00000  Uiso   1.00
C67    C     0.60471   0.62442   0.60513   0.00000  Uiso   1.00
C68    C     0.63936   0.61782   0.66817   0.00000  Uiso   1.00
C69    C     0.67111   0.65085   0.69631   0.00000  Uiso   1.00
H70    H     0.55898   0.69280   0.47677   0.00000  Uiso   1.00
H71    H     0.60258   0.66571   0.35301   0.00000  Uiso   1.00
H72    H     0.44216   0.69808   0.49457   0.00000  Uiso   1.00
H73    H     0.63135   0.72530   0.57330   0.00000  Uiso   1.00
H74    H     0.65216   0.61882   0.23068   0.00000  Uiso   1.00
H75    H     0.31391   0.68707   0.52919   0.00000  Uiso   1.00
H76    H     0.71285   0.74447   0.69520   0.00000  Uiso   1.00
H77    H     0.56864   0.56285   0.59145   0.00000  Uiso   1.00
H78    H     0.61278   0.52863   0.47399   0.00000  Uiso   1.00
H79    H     0.45236   0.56100   0.61554   0.00000  Uiso   1.00
H80    H     0.64155   0.58822   0.69427   0.00000  Uiso   1.00
H81    H     0.66044   0.50756   0.32887   0.00000  Uiso   1.00
H82    H     0.32218   0.57581   0.62737   0.00000  Uiso   1.00
H83    H     0.72112   0.63321   0.79339   0.00000  Uiso   1.00
O84    O     0.68514   0.54302   0.20043   0.00000  Uiso   1.00
O85    O     0.24137   0.63257   0.59207   0.00000  Uiso   1.00
O86    O     0.76477   0.70788   0.80987   0.00000  Uiso   1.00
N87    N     0.64806   0.59733   0.26992   0.00000  Uiso   1.00
N88    N     0.33182   0.66114   0.54899   0.00000  Uiso   1.00
N89    N     0.70478   0.71481   0.70421   0.00000  Uiso   1.00
N90    N     0.65252   0.53746   0.32275   0.00000  Uiso   1.00
N91    N     0.33627   0.60127   0.60182   0.00000  Uiso   1.00
N92    N     0.70923   0.65494   0.75704   0.00000  Uiso   1.00
C93    C     0.43881   0.83698   0.50304   0.00000  Uiso   1.00
C94    C     0.41377   0.86971   0.45171   0.00000  Uiso   1.00
C95    C     0.39520   0.86389   0.37911   0.00000  Uiso   1.00
C96    C     0.37367   0.89770   0.34141   0.00000  Uiso   1.00
C97    C     0.33525   0.94271   0.25656   0.00000  Uiso   1.00
C98    C     0.50093   0.85213   0.52861   0.00000  Uiso   1.00
C99    C     0.55565   0.83152   0.52068   0.00000  Uiso   1.00
C100   C     0.60749   0.85052   0.54773   0.00000  Uiso   1.00
C101   C     0.70439   0.86823   0.58232   0.00000  Uiso   1.00
C102   C     0.39814   0.83734   0.57138   0.00000  Uiso   1.00
C103   C     0.36644   0.80429   0.59943   0.00000  Uiso   1.00
C104   C     0.33174   0.81084   0.66250   0.00000  Uiso   1.00
C105   C     0.26904   0.80558   0.76349   0.00000  Uiso   1.00
C106   C     0.43357   0.90738   0.56517   0.00000  Uiso   1.00
C107   C     0.41093   0.90795   0.48546   0.00000  Uiso   1.00
C108   C     0.38941   0.94178   0.44785   0.00000  Uiso   1.00
C109   C     0.37082   0.93600   0.37522   0.00000  Uiso   1.00
C110   C     0.49809   0.89037   0.56236   0.00000  Uiso   1.00
C111   C     0.54986   0.90941   0.58943   0.00000  Uiso   1.00
C112   C     0.60464   0.88883   0.58154   0.00000  Uiso   1.00
C113   C     0.39529   0.87558   0.60513   0.00000  Uiso   1.00
C114   C     0.36064   0.88218   0.66817   0.00000  Uiso   1.00
C115   C     0.32889   0.84915   0.69631   0.00000  Uiso   1.00
H116   H     0.44102   0.80720   0.47677   0.00000  Uiso   1.00
H117   H     0.39742   0.83429   0.35301   0.00000  Uiso   1.00
H118   H     0.55784   0.80192   0.49457   0.00000  Uiso   1.00
H119   H     0.36865   0.77470   0.57330   0.00000  Uiso   1.00
H120   H     0.34784   0.88118   0.23068   0.00000  Uiso   1.00
H121   H     0.68609   0.81293   0.52919   0.00000  Uiso   1.00
H122   H     0.28715   0.75553   0.69520   0.00000  Uiso   1.00
H123   H     0.43136   0.93715   0.59145   0.00000  Uiso   1.00
H124   H     0.38722   0.97137   0.47399   0.00000  Uiso   1.00
H125   H     0.54764   0.93900   0.61554   0.00000  Uiso   1.00
H126   H     0.35845   0.91178   0.69427   0.00000  Uiso   1.00
H127   H     0.33956   0.99244   0.32887   0.00000  Uiso   1.00
H128   H     0.67782   0.92419   0.62737   0.00000  Uiso   1.00
H129   H     0.27888   0.86679   0.79339   0.00000  Uiso   1.00
O130   O     0.31486   0.95698   0.20043   0.00000  Uiso   1.00
O131   O     0.75863   0.86743   0.59207   0.00000  Uiso   1.00
O132   O     0.23523   0.79212   0.80987   0.00000  Uiso   1.00
N133   N     0.35194   0.90267   0.26992   0.00000  Uiso   1.00
N134   N     0.66818   0.83886   0.54899   0.00000  Uiso   1.00
N135   N     0.29522   0.78519   0.70421   0.00000  Uiso   1.00
N136   N     0.34748   0.96254   0.32275   0.00000  Uiso   1.00
N137   N     0.66373   0.89873   0.60182   0.00000  Uiso   1.00
N138   N     0.29077   0.84506   0.75704   0.00000  Uiso   1.00
C139   C     0.93881   0.33698   0.00304   0.00000  Uiso   1.00
C140   C     0.91377   0.36971   0.95171   0.00000  Uiso   1.00
C141   C     0.89520   0.36389   0.87911   0.00000  Uiso   1.00
C142   C     0.87367   0.39770   0.84141   0.00000  Uiso   1.00
C143   C     0.83525   0.44271   0.75656   0.00000  Uiso   1.00
C144   C     0.00093   0.35213   0.02861   0.00000  Uiso   1.00
C145   C     0.05565   0.33152   0.02068   0.00000  Uiso   1.00
C146   C     0.10749   0.35052   0.04773   0.00000  Uiso   1.00
C147   C     0.20439   0.36823   0.08232   0.00000  Uiso   1.00
C148   C     0.89814   0.33734   0.07138   0.00000  Uiso   1.00
C149   C     0.86644   0.30429   0.09943   0.00000  Uiso   1.00
C150   C     0.83174   0.31084   0.16250   0.00000  Uiso   1.00
C151   C     0.76904   0.30558   0.26349   0.00000  Uiso   1.00
C152   C     0.93357   0.40738   0.06517   0.00000  Uiso   1.00
C153   C     0.91093   0.40795   0.98546   0.00000  Uiso   1.00
C154   C     0.88941   0.44178   0.94785   0.00000  Uiso   1.00
C155   C     0.87082   0.43600   0.87522   0.00000  Uiso   1.00
C156   C     0.99809   0.39037   0.06236   0.00000  Uiso   1.00
C157   C     0.04986   0.40941   0.08943   0.00000  Uiso   1.00
C158   C     0.10464   0.38883   0.08154   0.00000  Uiso   1.00
C159   C     0.89529   0.37558   0.10513   0.00000  Uiso   1.00
C160   C     0.86064   0.38218   0.16817   0.00000  Uiso   1.00
C161   C     0.82889   0.34915   0.19631   0.00000  Uiso   1.00
H162   H     0.94102   0.30720   0.97677   0.00000  Uiso   1.00
H163   H     0.89742   0.33429   0.85301   0.00000  Uiso   1.00
H164   H     0.05784   0.30192   0.99457   0.00000  Uiso   1.00
H165   H     0.86865   0.27470   0.07330   0.00000  Uiso   1.00
H166   H     0.84784   0.38118   0.73068   0.00000  Uiso   1.00
H167   H     0.18609   0.31293   0.02919   0.00000  Uiso   1.00
H168   H     0.78715   0.25553   0.19520   0.00000  Uiso   1.00
H169   H     0.93136   0.43715   0.09145   0.00000  Uiso   1.00
H170   H     0.88722   0.47137   0.97399   0.00000  Uiso   1.00
H171   H     0.04764   0.43900   0.11554   0.00000  Uiso   1.00
H172   H     0.85845   0.41178   0.19427   0.00000  Uiso   1.00
H173   H     0.83956   0.49244   0.82887   0.00000  Uiso   1.00
H174   H     0.17782   0.42419   0.12737   0.00000  Uiso   1.00
H175   H     0.77888   0.36679   0.29339   0.00000  Uiso   1.00
O176   O     0.81486   0.45698   0.70043   0.00000  Uiso   1.00
O177   O     0.25863   0.36743   0.09207   0.00000  Uiso   1.00
O178   O     0.73523   0.29212   0.30987   0.00000  Uiso   1.00
N179   N     0.85194   0.40267   0.76992   0.00000  Uiso   1.00
N180   N     0.16818   0.33886   0.04899   0.00000  Uiso   1.00
N181   N     0.79522   0.28519   0.20421   0.00000  Uiso   1.00
N182   N     0.84748   0.46254   0.82275   0.00000  Uiso   1.00
N183   N     0.16373   0.39873   0.10182   0.00000  Uiso   1.00
N184   N     0.79077   0.34506   0.25704   0.00000  Uiso   1.00
C185   C     0.93881   0.66302   0.49696   0.00000  Uiso   1.00
C186   C     0.91377   0.63029   0.54829   0.00000  Uiso   1.00
C187   C     0.89520   0.63611   0.62089   0.00000  Uiso   1.00
C188   C     0.87367   0.60230   0.65859   0.00000  Uiso   1.00
C189   C     0.83525   0.55729   0.74344   0.00000  Uiso   1.00
C190   C     0.00093   0.64787   0.47139   0.00000  Uiso   1.00
C191   C     0.05565   0.66848   0.47932   0.00000  Uiso   1.00
C192   C     0.10749   0.64948   0.45227   0.00000  Uiso   1.00
C193   C     0.20439   0.63177   0.41768   0.00000  Uiso   1.00
C194   C     0.89814   0.66266   0.42862   0.00000  Uiso   1.00
C195   C     0.86644   0.69571   0.40057   0.00000  Uiso   1.00
C196   C     0.83174   0.68916   0.33750   0.00000  Uiso   1.00
C197   C     0.76904   0.69442   0.23651   0.00000  Uiso   1.00
C198   C     0.93357   0.59262   0.43483   0.00000  Uiso   1.00
C199   C     0.91093   0.59205   0.51454   0.00000  Uiso   1.00
C200   C     0.88941   0.55822   0.55215   0.00000  Uiso   1.00
C201   C     0.87082   0.56400   0.62478   0.00000  Uiso   1.00
C202   C     0.99809   0.60963   0.43764   0.00000  Uiso   1.00
C203   C     0.04986   0.59059   0.41057   0.00000  Uiso   1.00
C204   C     0.10464   0.61117   0.41846   0.00000  Uiso   1.00
C205   C     0.89529   0.62442   0.39487   0.00000  Uiso   1.00
C206   C     0.86064   0.61782   0.33183   0.00000  Uiso   1.00
C207   C     0.82889   0.65085   0.30369   0.00000  Uiso   1.00
H208   H     0.94102   0.69280   0.52323   0.00000  Uiso   1.00
H209   H     0.89742   0.66571   0.64699   0.00000  Uiso   1.00
H210   H     0.05784   0.69808   0.50543   0.00000  Uiso   1.00
H211   H     0.86865   0.72530   0.42670   0.00000  Uiso   1.00
H212   H     0.84784   0.61882   0.76932   0.00000  Uiso   1.00
H213   H     0.18609   0.68707   0.47081   0.00000  Uiso   1.00
H214   H     0.78715   0.74447   0.30480   0.00000  Uiso   1.00
H215   H     0.93136   0.56285   0.40855   0.00000  Uiso   1.00
H216   H     0.88722   0.52863   0.52601   0.00000  Uiso   1.00
H217   H     0.04764   0.56100   0.38446   0.00000  Uiso   1.00
H218   H     0.85845   0.58822   0.30573   0.00000  Uiso   1.00
H219   H     0.83956   0.50756   0.67113   0.00000  Uiso   1.00
H220   H     0.17782   0.57581   0.37263   0.00000  Uiso   1.00
H221   H     0.77888   0.63321   0.20661   0.00000  Uiso   1.00
O222   O     0.81486   0.54302   0.79957   0.00000  Uiso   1.00
O223   O     0.25863   0.63257   0.40793   0.00000  Uiso   1.00
O224   O     0.73523   0.70788   0.19013   0.00000  Uiso   1.00
N225   N     0.85194   0.59733   0.73008   0.00000  Uiso   1.00
N226   N     0.16818   0.66114   0.45101   0.00000  Uiso   1.00
N227   N     0.79522   0.71481   0.29579   0.00000  Uiso   1.00
N228   N     0.84748   0.53746   0.67725   0.00000  Uiso   1.00
N229   N     0.16373   0.60127   0.39818   0.00000  Uiso   1.00
N230   N     0.79077   0.65494   0.24296   0.00000  Uiso   1.00
C231   C     0.43881   0.16302   0.99696   0.00000  Uiso   1.00
C232   C     0.41377   0.13029   0.04829   0.00000  Uiso   1.00
C233   C     0.39520   0.13611   0.12089   0.00000  Uiso   1.00
C234   C     0.37367   0.10230   0.15859   0.00000  Uiso   1.00
C235   C     0.33525   0.05729   0.24344   0.00000  Uiso   1.00
C236   C     0.50093   0.14787   0.97139   0.00000  Uiso   1.00
C237   C     0.55565   0.16848   0.97932   0.00000  Uiso   1.00
C238   C     0.60749   0.14948   0.95227   0.00000  Uiso   1.00
C239   C     0.70439   0.13177   0.91768   0.00000  Uiso   1.00
C240   C     0.39814   0.16266   0.92862   0.00000  Uiso   1.00
C241   C     0.36644   0.19571   0.90057   0.00000  Uiso   1.00
C242   C     0.33174   0.18916   0.83750   0.00000  Uiso   1.00
C243   C     0.26904   0.19442   0.73651   0.00000  Uiso   1.00
C244   C     0.43357   0.09262   0.93483   0.00000  Uiso   1.00
C245   C     0.41093   0.09205   0.01454   0.00000  Uiso   1.00
C246   C     0.38941   0.05822   0.05215   0.00000  Uiso   1.00
C247   C     0.37082   0.06400   0.12478   0.00000  Uiso   1.00
C248   C     0.49809   0.10963   0.93764   0.00000  Uiso   1.00
C249   C     0.54986   0.09059   0.91057   0.00000  Uiso   1.00
C250   C     0.60464   0.11117   0.91846   0.00000  Uiso   1.00
C251   C     0.39529   0.12442   0.89487   0.00000  Uiso   1.00
C252   C     0.36064   0.11782   0.83183   0.00000  Uiso   1.00
C253   C     0.32889   0.15085   0.80369   0.00000  Uiso   1.00
H254   H     0.44102   0.19280   0.02323   0.00000  Uiso   1.00
H255   H     0.39742   0.16571   0.14699   0.00000  Uiso   1.00
H256   H     0.55784   0.19808   0.00543   0.00000  Uiso   1.00
H257   H     0.36865   0.22530   0.92670   0.00000  Uiso   1.00
H258   H     0.34784   0.11882   0.26932   0.00000  Uiso   1.00
H259   H     0.68609   0.18707   0.97081   0.00000  Uiso   1.00
H260   H     0.28715   0.24447   0.80480   0.00000  Uiso   1.00
H261   H     0.43136   0.06285   0.90855   0.00000  Uiso   1.00
H262   H     0.38722   0.02863   0.02601   0.00000  Uiso   1.00
H263   H     0.54764   0.06100   0.88446   0.00000  Uiso   1.00
H264   H     0.35845   0.08822   0.80573   0.00000  Uiso   1.00
H265   H     0.33956   0.00756   0.17113   0.00000  Uiso   1.00
H266   H     0.67782   0.07581   0.87263   0.00000  Uiso   1.00
H267   H     0.27888   0.13321   0.70661   0.00000  Uiso   1.00
O268   O     0.31486   0.04302   0.29957   0.00000  Uiso   1.00
O269   O     0.75863   0.13257   0.90793   0.00000  Uiso   1.00
O270   O     0.23523   0.20788   0.69013   0.00000  Uiso   1.00
N271   N     0.35194   0.09733   0.23008   0.00000  Uiso   1.00
N272   N     0.66818   0.16114   0.95101   0.00000  Uiso   1.00
N273   N     0.29522   0.21481   0.79579   0.00000  Uiso   1.00
N274   N     0.34748   0.03746   0.17725   0.00000  Uiso   1.00
N275   N     0.66373   0.10127   0.89818   0.00000  Uiso   1.00
N276   N     0.29077   0.15494   0.74296   0.00000  Uiso   1.00
C277   C     0.56119   0.33698   0.99696   0.00000  Uiso   1.00
C278   C     0.58623   0.36971   0.04829   0.00000  Uiso   1.00
C279   C     0.60480   0.36389   0.12089   0.00000  Uiso   1.00
C280   C     0.62633   0.39770   0.15859   0.00000  Uiso   1.00
C281   C     0.66475   0.44271   0.24344   0.00000  Uiso   1.00
C282   C     0.49907   0.35213   0.97139   0.00000  Uiso   1.00
C283   C     0.44435   0.33152   0.97932   0.00000  Uiso   1.00
C284   C     0.39251   0.35052   0.95227   0.00000  Uiso   1.00
C285   C     0.29561   0.36823   0.91768   0.00000  Uiso   1.00
C286   C     0.60186   0.33734   0.92862   0.00000  Uiso   1.00
C287   C     0.63356   0.30429   0.90057   0.00000  Uiso   1.00
C288   C     0.66826   0.31084   0.83750   0.00000  Uiso   1.00
C289   C     0.73096   0.30558   0.73651   0.00000  Uiso   1.00
C290   C     0.56643   0.40738   0.93483   0.00000  Uiso   1.00
C291   C     0.58907   0.40795   0.01454   0.00000  Uiso   1.00
C292   C     0.61059   0.44178   0.05215   0.00000  Uiso   1.00
C293   C     0.62918   0.43600   0.12478   0.00000  Uiso   1.00
C294   C     0.50191   0.39037   0.93764   0.00000  Uiso   1.00
C295   C     0.45014   0.40941   0.91057   0.00000  Uiso   1.00
C296   C     0.39536   0.38883   0.91846   0.00000  Uiso   1.00
C297   C     0.60471   0.37558   0.89487   0.00000  Uiso   1.00
C298   C     0.63936   0.38218   0.83183   0.00000  Uiso   1.00
C299   C     0.67111   0.34915   0.80369   0.00000  Uiso   1.00
H300   H     0.55898   0.30720   0.02323   0.00000  Uiso   1.00
H301   H     0.60258   0.33429   0.14699   0.00000  Uiso   1.00
H302   H     0.44216   0.30192   0.00543   0.00000  Uiso   1.00
H303   H     0.63135   0.27470   0.92670   0.00000  Uiso   1.00
H304   H     0.65216   0.38118   0.26932   0.00000  Uiso   1.00
H305   H     0.31391   0.31293   0.97081   0.00000  Uiso   1.00
H306   H     0.71285   0.25553   0.80480   0.00000  Uiso   1.00
H307   H     0.56864   0.43715   0.90855   0.00000  Uiso   1.00
H308   H     0.61278   0.47137   0.02601   0.00000  Uiso   1.00
H309   H     0.45236   0.43900   0.88446   0.00000  Uiso   1.00
H310   H     0.64155   0.41178   0.80573   0.00000  Uiso   1.00
H311   H     0.66044   0.49244   0.17113   0.00000  Uiso   1.00
H312   H     0.32218   0.42419   0.87263   0.00000  Uiso   1.00
H313   H     0.72112   0.36679   0.70661   0.00000  Uiso   1.00
O314   O     0.68514   0.45698   0.29957   0.00000  Uiso   1.00
O315   O     0.24137   0.36743   0.90793   0.00000  Uiso   1.00
O316   O     0.76477   0.29212   0.69013   0.00000  Uiso   1.00
N317   N     0.64806   0.40267   0.23008   0.00000  Uiso   1.00
N318   N     0.33182   0.33886   0.95101   0.00000  Uiso   1.00
N319   N     0.70478   0.28519   0.79579   0.00000  Uiso   1.00
N320   N     0.65252   0.46254   0.17725   0.00000  Uiso   1.00
N321   N     0.33627   0.39873   0.89818   0.00000  Uiso   1.00
N322   N     0.70923   0.34506   0.74296   0.00000  Uiso   1.00
C323   C     0.06119   0.83698   0.49696   0.00000  Uiso   1.00
C324   C     0.08623   0.86971   0.54829   0.00000  Uiso   1.00
C325   C     0.10480   0.86389   0.62089   0.00000  Uiso   1.00
C326   C     0.12633   0.89770   0.65859   0.00000  Uiso   1.00
C327   C     0.16475   0.94271   0.74344   0.00000  Uiso   1.00
C328   C     0.99907   0.85213   0.47139   0.00000  Uiso   1.00
C329   C     0.94435   0.83152   0.47932   0.00000  Uiso   1.00
C330   C     0.89251   0.85052   0.45227   0.00000  Uiso   1.00
C331   C     0.79561   0.86823   0.41768   0.00000  Uiso   1.00
C332   C     0.10186   0.83734   0.42862   0.00000  Uiso   1.00
C333   C     0.13356   0.80429   0.40057   0.00000  Uiso   1.00
C334   C     0.16826   0.81084   0.33750   0.00000  Uiso   1.00
C335   C     0.23096   0.80558   0.23651   0.00000  Uiso   1.00
C336   C     0.06643   0.90738   0.43483   0.00000  Uiso   1.00
C337   C     0.08907   0.90795   0.51454   0.00000  Uiso   1.00
C338   C     0.11059   0.94178   0.55215   0.00000  Uiso   1.00
C339   C     0.12918   0.93600   0.62478   0.00000  Uiso   1.00
C340   C     0.00191   0.89037   0.43764   0.00000  Uiso   1.00
C341   C     0.95014   0.90941   0.41057   0.00000  Uiso   1.00
C342   C     0.89536   0.88883   0.41846   0.00000  Uiso   1.00
C343   C     0.10471   0.87558   0.39487   0.00000  Uiso   1.00
C344   C     0.13936   0.88218   0.33183   0.00000  Uiso   1.00
C345   C     0.17111   0.84915   0.30369   0.00000  Uiso   1.00
H346   H     0.05898   0.80720   0.52323   0.00000  Uiso   1.00
H347   H     0.10258   0.83429   0.64699   0.00000  Uiso   1.00
H348   H     0.94216   0.80192   0.50543   0.00000  Uiso   1.00
H349   H     0.13135   0.77470   0.42670   0.00000  Uiso   1.00
H350   H     0.15216   0.88118   0.76932   0.00000  Uiso   1.00
H351   H     0.81391   0.81293   0.47081   0.00000  Uiso   1.00
H352   H     0.21285   0.75553   0.30480   0.00000  Uiso   1.00
H353   H     0.06864   0.93715   0.40855   0.00000  Uiso   1.00
H354   H     0.11278   0.97137   0.52601   0.00000  Uiso   1.00
H355   H     0.95236   0.93900   0.38446   0.00000  Uiso   1.00
H356   H     0.14155   0.91178   0.30573   0.00000  Uiso   1.00
H357   H     0.16044   0.99244   0.67113   0.00000  Uiso   1.00
H358   H     0.82218   0.92419   0.37263   0.00000  Uiso   1.00
H359   H     0.22112   0.86679   0.20661   0.00000  Uiso   1.00
O360   O     0.18514   0.95698   0.79957   0.00000  Uiso   1.00
O361   O     0.74137   0.86743   0.40793   0.00000  Uiso   1.00
O362   O     0.26477   0.79212   0.19013   0.00000  Uiso   1.00
N363   N     0.14806   0.90267   0.73008   0.00000  Uiso   1.00
N364   N     0.83182   0.83886   0.45101   0.00000  Uiso   1.00
N365   N     0.20478   0.78519   0.29579   0.00000  Uiso   1.00
N366   N     0.15252   0.96254   0.67725   0.00000  Uiso   1.00
N367   N     0.83627   0.89873   0.39818   0.00000  Uiso   1.00
N368   N     0.20923   0.84506   0.24296   0.00000  Uiso   1.00
C369   C     0.93881   0.83698   0.99696   0.00000  Uiso   1.00
C370   C     0.91377   0.86971   0.04829   0.00000  Uiso   1.00
C371   C     0.89520   0.86389   0.12089   0.00000  Uiso   1.00
C372   C     0.87367   0.89770   0.15859   0.00000  Uiso   1.00
C373   C     0.83525   0.94271   0.24344   0.00000  Uiso   1.00
C374   C     0.00093   0.85213   0.97139   0.00000  Uiso   1.00
C375   C     0.05565   0.83152   0.97932   0.00000  Uiso   1.00
C376   C     0.10749   0.85052   0.95227   0.00000  Uiso   1.00
C377   C     0.20439   0.86823   0.91768   0.00000  Uiso   1.00
C378   C     0.89814   0.83734   0.92862   0.00000  Uiso   1.00
C379   C     0.86644   0.80429   0.90057   0.00000  Uiso   1.00
C380   C     0.83174   0.81084   0.83750   0.00000  Uiso   1.00
C381   C     0.76904   0.80558   0.73651   0.00000  Uiso   1.00
C382   C     0.93357   0.90738   0.93483   0.00000  Uiso   1.00
C383   C     0.91093   0.90795   0.01454   0.00000  Uiso   1.00
C384   C     0.88941   0.94178   0.05215   0.00000  Uiso   1.00
C385   C     0.87082   0.93600   0.12478   0.00000  Uiso   1.00
C386   C     0.99809   0.89037   0.93764   0.00000  Uiso   1.00
C387   C     0.04986   0.90941   0.91057   0.00000  Uiso   1.00
C388   C     0.10464   0.88883   0.91846   0.00000  Uiso   1.00
C389   C     0.89529   0.87558   0.89487   0.00000  Uiso   1.00
C390   C     0.86064   0.88218   0.83183   0.00000  Uiso   1.00
C391   C     0.82889   0.84915   0.80369   0.00000  Uiso   1.00
H392   H     0.94102   0.80720   0.02323   0.00000  Uiso   1.00
H393   H     0.89742   0.83429   0.14699   0.00000  Uiso   1.00
H394   H     0.05784   0.80192   0.00543   0.00000  Uiso   1.00
H395   H     0.86865   0.77470   0.92670   0.00000  Uiso   1.00
H396   H     0.84784   0.88118   0.26932   0.00000  Uiso   1.00
H397   H     0.18609   0.81293   0.97081   0.00000  Uiso   1.00
H398   H     0.78715   0.75553   0.80480   0.00000  Uiso   1.00
H399   H     0.93136   0.93715   0.90855   0.00000  Uiso   1.00
H400   H     0.88722   0.97137   0.02601   0.00000  Uiso   1.00
H401   H     0.04764   0.93900   0.88446   0.00000  Uiso   1.00
H402   H     0.85845   0.91178   0.80573   0.00000  Uiso   1.00
H403   H     0.83956   0.99244   0.17113   0.00000  Uiso   1.00
H404   H     0.17782   0.92419   0.87263   0.00000  Uiso   1.00
H405   H     0.77888   0.86679   0.70661   0.00000  Uiso   1.00
O406   O     0.81486   0.95698   0.29957   0.00000  Uiso   1.00
O407   O     0.25863   0.86743   0.90793   0.00000  Uiso   1.00
O408   O     0.73523   0.79212   0.69013   0.00000  Uiso   1.00
N409   N     0.85194   0.90267   0.23008   0.00000  Uiso   1.00
N410   N     0.16818   0.83886   0.95101   0.00000  Uiso   1.00
N411   N     0.79522   0.78519   0.79579   0.00000  Uiso   1.00
N412   N     0.84748   0.96254   0.17725   0.00000  Uiso   1.00
N413   N     0.16373   0.89873   0.89818   0.00000  Uiso   1.00
N414   N     0.79077   0.84506   0.74296   0.00000  Uiso   1.00
C415   C     0.43881   0.33698   0.49696   0.00000  Uiso   1.00
C416   C     0.41377   0.36971   0.54829   0.00000  Uiso   1.00
C417   C     0.39520   0.36389   0.62089   0.00000  Uiso   1.00
C418   C     0.37367   0.39770   0.65859   0.00000  Uiso   1.00
C419   C     0.33525   0.44271   0.74344   0.00000  Uiso   1.00
C420   C     0.50093   0.35213   0.47139   0.00000  Uiso   1.00
C421   C     0.55565   0.33152   0.47932   0.00000  Uiso   1.00
C422   C     0.60749   0.35052   0.45227   0.00000  Uiso   1.00
C423   C     0.70439   0.36823   0.41768   0.00000  Uiso   1.00
C424   C     0.39814   0.33734   0.42862   0.00000  Uiso   1.00
C425   C     0.36644   0.30429   0.40057   0.00000  Uiso   1.00
C426   C     0.33174   0.31084   0.33750   0.00000  Uiso   1.00
C427   C     0.26904   0.30558   0.23651   0.00000  Uiso   1.00
C428   C     0.43357   0.40738   0.43483   0.00000  Uiso   1.00
C429   C     0.41093   0.40795   0.51454   0.00000  Uiso   1.00
C430   C     0.38941   0.44178   0.55215   0.00000  Uiso   1.00
C431   C     0.37082   0.43600   0.62478   0.00000  Uiso   1.00
C432   C     0.49809   0.39037   0.43764   0.00000  Uiso   1.00
C433   C     0.54986   0.40941   0.41057   0.00000  Uiso   1.00
C434   C     0.60464   0.38883   0.41846   0.00000  Uiso   1.00
C435   C     0.39529   0.37558   0.39487   0.00000  Uiso   1.00
C436   C     0.36064   0.38218   0.33183   0.00000  Uiso   1.00
C437   C     0.32889   0.34915   0.30369   0.00000  Uiso   1.00
H438   H     0.44102   0.30720   0.52323   0.00000  Uiso   1.00
H439   H     0.39742   0.33429   0.64699   0.00000  Uiso   1.00
H440   H     0.55784   0.30192   0.50543   0.00000  Uiso   1.00
H441   H     0.36865   0.27470   0.42670   0.00000  Uiso   1.00
H442   H     0.34784   0.38118   0.76932   0.00000  Uiso   1.00
H443   H     0.68609   0.31293   0.47081   0.00000  Uiso   1.00
H444   H     0.28715   0.25553   0.30480   0.00000  Uiso   1.00
H445   H     0.43136   0.43715   0.40855   0.00000  Uiso   1.00
H446   H     0.38722   0.47137   0.52601   0.00000  Uiso   1.00
H447   H     0.54764   0.43900   0.38446   0.00000  Uiso   1.00
H448   H     0.35845   0.41178   0.30573   0.00000  Uiso   1.00
H449   H     0.33956   0.49244   0.67113   0.00000  Uiso   1.00
H450   H     0.67782   0.42419   0.37263   0.00000  Uiso   1.00
H451   H     0.27888   0.36679   0.20661   0.00000  Uiso   1.00
O452   O     0.31486   0.45698   0.79957   0.00000  Uiso   1.00
O453   O     0.75863   0.36743   0.40793   0.00000  Uiso   1.00
O454   O     0.23523   0.29212   0.19013   0.00000  Uiso   1.00
N455   N     0.35194   0.40267   0.73008   0.00000  Uiso   1.00
N456   N     0.66818   0.33886   0.45101   0.00000  Uiso   1.00
N457   N     0.29522   0.28519   0.29579   0.00000  Uiso   1.00
N458   N     0.34748   0.46254   0.67725   0.00000  Uiso   1.00
N459   N     0.66373   0.39873   0.39818   0.00000  Uiso   1.00
N460   N     0.29077   0.34506   0.24296   0.00000  Uiso   1.00
C461   C     0.56119   0.16302   0.49696   0.00000  Uiso   1.00
C462   C     0.58623   0.13029   0.54829   0.00000  Uiso   1.00
C463   C     0.60480   0.13611   0.62089   0.00000  Uiso   1.00
C464   C     0.62633   0.10230   0.65859   0.00000  Uiso   1.00
C465   C     0.66475   0.05729   0.74344   0.00000  Uiso   1.00
C466   C     0.49907   0.14787   0.47139   0.00000  Uiso   1.00
C467   C     0.44435   0.16848   0.47932   0.00000  Uiso   1.00
C468   C     0.39251   0.14948   0.45227   0.00000  Uiso   1.00
C469   C     0.29561   0.13177   0.41768   0.00000  Uiso   1.00
C470   C     0.60186   0.16266   0.42862   0.00000  Uiso   1.00
C471   C     0.63356   0.19571   0.40057   0.00000  Uiso   1.00
C472   C     0.66826   0.18916   0.33750   0.00000  Uiso   1.00
C473   C     0.73096   0.19442   0.23651   0.00000  Uiso   1.00
C474   C     0.56643   0.09262   0.43483   0.00000  Uiso   1.00
C475   C     0.58907   0.09205   0.51454   0.00000  Uiso   1.00
C476   C     0.61059   0.05822   0.55215   0.00000  Uiso   1.00
C477   C     0.62918   0.06400   0.62478   0.00000  Uiso   1.00
C478   C     0.50191   0.10963   0.43764   0.00000  Uiso   1.00
C479   C     0.45014   0.09059   0.41057   0.00000  Uiso   1.00
C480   C     0.39536   0.11117   0.41846   0.00000  Uiso   1.00
C481   C     0.60471   0.12442   0.39487   0.00000  Uiso   1.00
C482   C     0.63936   0.11782   0.33183   0.00000  Uiso   1.00
C483   C     0.67111   0.15085   0.30369   0.00000  Uiso   1.00
H484   H     0.55898   0.19280   0.52323   0.00000  Uiso   1.00
H485   H     0.60258   0.16571   0.64699   0.00000  Uiso   1.00
H486   H     0.44216   0.19808   0.50543   0.00000  Uiso   1.00
H487   H     0.63135   0.22530   0.42670   0.00000  Uiso   1.00
H488   H     0.65216   0.11882   0.76932   0.00000  Uiso   1.00
H489   H     0.31391   0.18707   0.47081   0.00000  Uiso   1.00
H490   H     0.71285   0.24447   0.30480   0.00000  Uiso   1.00
H491   H     0.56864   0.06285   0.40855   0.00000  Uiso   1.00
H492   H     0.61278   0.02863   0.52601   0.00000  Uiso   1.00
H493   H     0.45236   0.06100   0.38446   0.00000  Uiso   1.00
H494   H     0.64155   0.08822   0.30573   0.00000  Uiso   1.00
H495   H     0.66044   0.00756   0.67113   0.00000  Uiso   1.00
H496   H     0.32218   0.07581   0.37263   0.00000  Uiso   1.00
H497   H     0.72112   0.13321   0.20661   0.00000  Uiso   1.00
O498   O     0.68514   0.04302   0.79957   0.00000  Uiso   1.00
O499   O     0.24137   0.13257   0.40793   0.00000  Uiso   1.00
O500   O     0.76477   0.20788   0.19013   0.00000  Uiso   1.00
N501   N     0.64806   0.09733   0.73008   0.00000  Uiso   1.00
N502   N     0.33182   0.16114   0.45101   0.00000  Uiso   1.00
N503   N     0.70478   0.21481   0.29579   0.00000  Uiso   1.00
N504   N     0.65252   0.03746   0.67725   0.00000  Uiso   1.00
N505   N     0.33627   0.10127   0.39818   0.00000  Uiso   1.00
N506   N     0.70923   0.15494   0.24296   0.00000  Uiso   1.00
C507   C     0.06119   0.66302   0.99696   0.00000  Uiso   1.00
C508   C     0.08623   0.63029   0.04829   0.00000  Uiso   1.00
C509   C     0.10480   0.63611   0.12089   0.00000  Uiso   1.00
C510   C     0.12633   0.60230   0.15859   0.00000  Uiso   1.00
C511   C     0.16475   0.55729   0.24344   0.00000  Uiso   1.00
C512   C     0.99907   0.64787   0.97139   0.00000  Uiso   1.00
C513   C     0.94435   0.66848   0.97932   0.00000  Uiso   1.00
C514   C     0.89251   0.64948   0.95227   0.00000  Uiso   1.00
C515   C     0.79561   0.63177   0.91768   0.00000  Uiso   1.00
C516   C     0.10186   0.66266   0.92862   0.00000  Uiso   1.00
C517   C     0.13356   0.69571   0.90057   0.00000  Uiso   1.00
C518   C     0.16826   0.68916   0.83750   0.00000  Uiso   1.00
C519   C     0.23096   0.69442   0.73651   0.00000  Uiso   1.00
C520   C     0.06643   0.59262   0.93483   0.00000  Uiso   1.00
C521   C     0.08907   0.59205   0.01454   0.00000  Uiso   1.00
C522   C     0.11059   0.55822   0.05215   0.00000  Uiso   1.00
C523   C     0.12918   0.56400   0.12478   0.00000  Uiso   1.00
C524   C     0.00191   0.60963   0.93764   0.00000  Uiso   1.00
C525   C     0.95014   0.59059   0.91057   0.00000  Uiso   1.00
C526   C     0.89536   0.61117   0.91846   0.00000  Uiso   1.00
C527   C     0.10471   0.62442   0.89487   0.00000  Uiso   1.00
C528   C     0.13936   0.61782   0.83183   0.00000  Uiso   1.00
C529   C     0.17111   0.65085   0.80369   0.00000  Uiso   1.00
H530   H     0.05898   0.69280   0.02323   0.00000  Uiso   1.00
H531   H     0.10258   0.66571   0.14699   0.00000  Uiso   1.00
H532   H     0.94216   0.69808   0.00543   0.00000  Uiso   1.00
H533   H     0.13135   0.72530   0.92670   0.00000  Uiso   1.00
H534   H     0.15216   0.61882   0.26932   0.00000  Uiso   1.00
H535   H     0.81391   0.68707   0.97081   0.00000  Uiso   1.00
H536   H     0.21285   0.74447   0.80480   0.00000  Uiso   1.00
H537   H     0.06864   0.56285   0.90855   0.00000  Uiso   1.00
H538   H     0.11278   0.52863   0.02601   0.00000  Uiso   1.00
H539   H     0.95236   0.56100   0.88446   0.00000  Uiso   1.00
H540   H     0.14155   0.58822   0.80573   0.00000  Uiso   1.00
H541   H     0.16044   0.50756   0.17113   0.00000  Uiso   1.00
H542   H     0.82218   0.57581   0.87263   0.00000  Uiso   1.00
H543   H     0.22112   0.63321   0.70661   0.00000  Uiso   1.00
O544   O     0.18514   0.54302   0.29957   0.00000  Uiso   1.00
O545   O     0.74137   0.63257   0.90793   0.00000  Uiso   1.00
O546   O     0.26477   0.70788   0.69013   0.00000  Uiso   1.00
N547   N     0.14806   0.59733   0.23008   0.00000  Uiso   1.00
N548   N     0.83182   0.66114   0.95101   0.00000  Uiso   1.00
N549   N     0.20478   0.71481   0.79579   0.00000  Uiso   1.00
N550   N     0.15252   0.53746   0.17725   0.00000  Uiso   1.00
N551   N     0.83627   0.60127   0.89818   0.00000  Uiso   1.00
N552   N     0.20923   0.65494   0.74296   0.00000  Uiso   1.00
C553   C     0.06119   0.33698   0.50304   0.00000  Uiso   1.00
C554   C     0.08623   0.36971   0.45171   0.00000  Uiso   1.00
C555   C     0.10480   0.36389   0.37911   0.00000  Uiso   1.00
C556   C     0.12633   0.39770   0.34141   0.00000  Uiso   1.00
C557   C     0.16475   0.44271   0.25656   0.00000  Uiso   1.00
C558   C     0.99907   0.35213   0.52861   0.00000  Uiso   1.00
C559   C     0.94435   0.33152   0.52068   0.00000  Uiso   1.00
C560   C     0.89251   0.35052   0.54773   0.00000  Uiso   1.00
C561   C     0.79561   0.36823   0.58232   0.00000  Uiso   1.00
C562   C     0.10186   0.33734   0.57138   0.00000  Uiso   1.00
C563   C     0.13356   0.30429   0.59943   0.00000  Uiso   1.00
C564   C     0.16826   0.31084   0.66250   0.00000  Uiso   1.00
C565   C     0.23096   0.30558   0.76349   0.00000  Uiso   1.00
C566   C     0.06643   0.40738   0.56517   0.00000  Uiso   1.00
C567   C     0.08907   0.40795   0.48546   0.00000  Uiso   1.00
C568   C     0.11059   0.44178   0.44785   0.00000  Uiso   1.00
C569   C     0.12918   0.43600   0.37522   0.00000  Uiso   1.00
C570   C     0.00191   0.39037   0.56236   0.00000  Uiso   1.00
C571   C     0.95014   0.40941   0.58943   0.00000  Uiso   1.00
C572   C     0.89536   0.38883   0.58154   0.00000  Uiso   1.00
C573   C     0.10471   0.37558   0.60513   0.00000  Uiso   1.00
C574   C     0.13936   0.38218   0.66817   0.00000  Uiso   1.00
C575   C     0.17111   0.34915   0.69631   0.00000  Uiso   1.00
H576   H     0.05898   0.30720   0.47677   0.00000  Uiso   1.00
H577   H     0.10258   0.33429   0.35301   0.00000  Uiso   1.00
H578   H     0.94216   0.30192   0.49457   0.00000  Uiso   1.00
H579   H     0.13135   0.27470   0.57330   0.00000  Uiso   1.00
H580   H     0.15216   0.38118   0.23068   0.00000  Uiso   1.00
H581   H     0.81391   0.31293   0.52919   0.00000  Uiso   1.00
H582   H     0.21285   0.25553   0.69520   0.00000  Uiso   1.00
H583   H     0.06864   0.43715   0.59145   0.00000  Uiso   1.00
H584   H     0.11278   0.47137   0.47399   0.00000  Uiso   1.00
H585   H     0.95236   0.43900   0.61554   0.00000  Uiso   1.00
H586   H     0.14155   0.41178   0.69427   0.00000  Uiso   1.00
H587   H     0.16044   0.49244   0.32887   0.00000  Uiso   1.00
H588   H     0.82218   0.42419   0.62737   0.00000  Uiso   1.00
H589   H     0.22112   0.36679   0.79339   0.00000  Uiso   1.00
O590   O     0.18514   0.45698   0.20043   0.00000  Uiso   1.00
O591   O     0.74137   0.36743   0.59207   0.00000  Uiso   1.00
O592   O     0.26477   0.29212   0.80987   0.00000  Uiso   1.00
N593   N     0.14806   0.40267   0.26992   0.00000  Uiso   1.00
N594   N     0.83182   0.33886   0.54899   0.00000  Uiso   1.00
N595   N     0.20478   0.28519   0.70421   0.00000  Uiso   1.00
N596   N     0.15252   0.46254   0.32275   0.00000  Uiso   1.00
N597   N     0.83627   0.39873   0.60182   0.00000  Uiso   1.00
N598   N     0.20923   0.34506   0.75704   0.00000  Uiso   1.00
C599   C     0.56119   0.83698   0.00304   0.00000  Uiso   1.00
C600   C     0.58623   0.86971   0.95171   0.00000  Uiso   1.00
C601   C     0.60480   0.86389   0.87911   0.00000  Uiso   1.00
C602   C     0.62633   0.89770   0.84141   0.00000  Uiso   1.00
C603   C     0.66475   0.94271   0.75656   0.00000  Uiso   1.00
C604   C     0.49907   0.85213   0.02861   0.00000  Uiso   1.00
C605   C     0.44435   0.83152   0.02068   0.00000  Uiso   1.00
C606   C     0.39251   0.85052   0.04773   0.00000  Uiso   1.00
C607   C     0.29561   0.86823   0.08232   0.00000  Uiso   1.00
C608   C     0.60186   0.83734   0.07138   0.00000  Uiso   1.00
C609   C     0.63356   0.80429   0.09943   0.00000  Uiso   1.00
C610   C     0.66826   0.81084   0.16250   0.00000  Uiso   1.00
C611   C     0.73096   0.80558   0.26349   0.00000  Uiso   1.00
C612   C     0.56643   0.90738   0.06517   0.00000  Uiso   1.00
C613   C     0.58907   0.90795   0.98546   0.00000  Uiso   1.00
C614   C     0.61059   0.94178   0.94785   0.00000  Uiso   1.00
C615   C     0.62918   0.93600   0.87522   0.00000  Uiso   1.00
C616   C     0.50191   0.89037   0.06236   0.00000  Uiso   1.00
C617   C     0.45014   0.90941   0.08943   0.00000  Uiso   1.00
C618   C     0.39536   0.88883   0.08154   0.00000  Uiso   1.00
C619   C     0.60471   0.87558   0.10513   0.00000  Uiso   1.00
C620   C     0.63936   0.88218   0.16817   0.00000  Uiso   1.00
C621   C     0.67111   0.84915   0.19631   0.00000  Uiso   1.00
H622   H     0.55898   0.80720   0.97677   0.00000  Uiso   1.00
H623   H     0.60258   0.83429   0.85301   0.00000  Uiso   1.00
H624   H     0.44216   0.80192   0.99457   0.00000  Uiso   1.00
H625   H     0.63135   0.77470   0.07330   0.00000  Uiso   1.00
H626   H     0.65216   0.88118   0.73068   0.00000  Uiso   1.00
H627   H     0.31391   0.81293   0.02919   0.00000  Uiso   1.00
H628   H     0.71285   0.75553   0.19520   0.00000  Uiso   1.00
H629   H     0.56864   0.93715   0.09145   0.00000  Uiso   1.00
H630   H     0.61278   0.97137   0.97399   0.00000  Uiso   1.00
H631   H     0.45236   0.93900   0.11554   0.00000  Uiso   1.00
H632   H     0.64155   0.91178   0.19427   0.00000  Uiso   1.00
H633   H     0.66044   0.99244   0.82887   0.00000  Uiso   1.00
H634   H     0.32218   0.92419   0.12737   0.00000  Uiso   1.00
H635   H     0.72112   0.86679   0.29339   0.00000  Uiso   1.00
O636   O     0.68514   0.95698   0.70043   0.00000  Uiso   1.00
O637   O     0.24137   0.86743   0.09207   0.00000  Uiso   1.00
O638   O     0.76477   0.79212   0.30987   0.00000  Uiso   1.00
N639   N     0.64806   0.90267   0.76992   0.00000  Uiso   1.00
N640   N     0.33182   0.83886   0.04899   0.00000  Uiso   1.00
N641   N     0.70478   0.78519   0.20421   0.00000  Uiso   1.00
N642   N     0.65252   0.96254   0.82275   0.00000  Uiso   1.00
N643   N     0.33627   0.89873   0.10182   0.00000  Uiso   1.00
N644   N     0.70923   0.84506   0.25704   0.00000  Uiso   1.00
C645   C     0.43881   0.66302   0.00304   0.00000  Uiso   1.00
C646   C     0.41377   0.63029   0.95171   0.00000  Uiso   1.00
C647   C     0.39520   0.63611   0.87911   0.00000  Uiso   1.00
C648   C     0.37367   0.60230   0.84141   0.00000  Uiso   1.00
C649   C     0.33525   0.55729   0.75656   0.00000  Uiso   1.00
C650   C     0.50093   0.64787   0.02861   0.00000  Uiso   1.00
C651   C     0.55565   0.66848   0.02068   0.00000  Uiso   1.00
C652   C     0.60749   0.64948   0.04773   0.00000  Uiso   1.00
C653   C     0.70439   0.63177   0.08232   0.00000  Uiso   1.00
C654   C     0.39814   0.66266   0.07138   0.00000  Uiso   1.00
C655   C     0.36644   0.69571   0.09943   0.00000  Uiso   1.00
C656   C     0.33174   0.68916   0.16250   0.00000  Uiso   1.00
C657   C     0.26904   0.69442   0.26349   0.00000  Uiso   1.00
C658   C     0.43357   0.59262   0.06517   0.00000  Uiso   1.00
C659   C     0.41093   0.59205   0.98546   0.00000  Uiso   1.00
C660   C     0.38941   0.55822   0.94785   0.00000  Uiso   1.00
C661   C     0.37082   0.56400   0.87522   0.00000  Uiso   1.00
C662   C     0.49809   0.60963   0.06236   0.00000  Uiso   1.00
C663   C     0.54986   0.59059   0.08943   0.00000  Uiso   1.00
C664   C     0.60464   0.61117   0.08154   0.00000  Uiso   1.00
C665   C     0.39529   0.62442   0.10513   0.00000  Uiso   1.00
C666   C     0.36064   0.61782   0.16817   0.00000  Uiso   1.00
C667   C     0.32889   0.65085   0.19631   0.00000  Uiso   1.00
H668   H     0.44102   0.69280   0.97677   0.00000  Uiso   1.00
H669   H     0.39742   0.66571   0.85301   0.00000  Uiso   1.00
H670   H     0.55784   0.69808   0.99457   0.00000  Uiso   1.00
H671   H     0.36865   0.72530   0.07330   0.00000  Uiso   1.00
H672   H     0.34784   0.61882   0.73068   0.00000  Uiso   1.00
H673   H     0.68609   0.68707   0.02919   0.00000  Uiso   1.00
H674   H     0.28715   0.74447   0.19520   0.00000  Uiso   1.00
H675   H     0.43136   0.56285   0.09145   0.00000  Uiso   1.00
H676   H     0.38722   0.52863   0.97399   0.00000  Uiso   1.00
H677   H     0.54764   0.56100   0.11554   0.00000  Uiso   1.00
H678   H     0.35845   0.58822   0.19427   0.00000  Uiso   1.00
H679   H     0.33956   0.50756   0.82887   0.00000  Uiso   1.00
H680   H     0.67782   0.57581   0.12737   0.00000  Uiso   1.00
H681   H     0.27888   0.63321   0.29339   0.00000  Uiso   1.00
O682   O     0.31486   0.54302   0.70043   0.00000  Uiso   1.00
O683   O     0.75863   0.63257   0.09207   0.00000  Uiso   1.00
O684   O     0.23523   0.70788   0.30987   0.00000  Uiso   1.00
N685   N     0.35194   0.59733   0.76992   0.00000  Uiso   1.00
N686   N     0.66818   0.66114   0.04899   0.00000  Uiso   1.00
N687   N     0.29522   0.71481   0.20421   0.00000  Uiso   1.00
N688   N     0.34748   0.53746   0.82275   0.00000  Uiso   1.00
N689   N     0.66373   0.60127   0.10182   0.00000  Uiso   1.00
N690   N     0.29077   0.65494   0.25704   0.00000  Uiso   1.00
C691   C     0.93881   0.16302   0.50304   0.00000  Uiso   1.00
C692   C     0.91377   0.13029   0.45171   0.00000  Uiso   1.00
C693   C     0.89520   0.13611   0.37911   0.00000  Uiso   1.00
C694   C     0.87367   0.10230   0.34141   0.00000  Uiso   1.00
C695   C     0.83525   0.05729   0.25656   0.00000  Uiso   1.00
C696   C     0.00093   0.14787   0.52861   0.00000  Uiso   1.00
C697   C     0.05565   0.16848   0.52068   0.00000  Uiso   1.00
C698   C     0.10749   0.14948   0.54773   0.00000  Uiso   1.00
C699   C     0.20439   0.13177   0.58232   0.00000  Uiso   1.00
C700   C     0.89814   0.16266   0.57138   0.00000  Uiso   1.00
C701   C     0.86644   0.19571   0.59943   0.00000  Uiso   1.00
C702   C     0.83174   0.18916   0.66250   0.00000  Uiso   1.00
C703   C     0.76904   0.19442   0.76349   0.00000  Uiso   1.00
C704   C     0.93357   0.09262   0.56517   0.00000  Uiso   1.00
C705   C     0.91093   0.09205   0.48546   0.00000  Uiso   1.00
C706   C     0.88941   0.05822   0.44785   0.00000  Uiso   1.00
C707   C     0.87082   0.06400   0.37522   0.00000  Uiso   1.00
C708   C     0.99809   0.10963   0.56236   0.00000  Uiso   1.00
C709   C     0.04986   0.09059   0.58943   0.00000  Uiso   1.00
C710   C     0.10464   0.11117   0.58154   0.00000  Uiso   1.00
C711   C     0.89529   0.12442   0.60513   0.00000  Uiso   1.00
C712   C     0.86064   0.11782   0.66817   0.00000  Uiso   1.00
C713   C     0.82889   0.15085   0.69631   0.00000  Uiso   1.00
H714   H     0.94102   0.19280   0.47677   0.00000  Uiso   1.00
H715   H     0.89742   0.16571   0.35301   0.00000  Uiso   1.00
H716   H     0.05784   0.19808   0.49457   0.00000  Uiso   1.00
H717   H     0.86865   0.22530   0.57330   0.00000  Uiso   1.00
H718   H     0.84784   0.11882   0.23068   0.00000  Uiso   1.00
H719   H     0.18609   0.18707   0.52919   0.00000  Uiso   1.00
H720   H     0.78715   0.24447   0.69520   0.00000  Uiso   1.00
H721   H     0.93136   0.06285   0.59145   0.00000  Uiso   1.00
H722   H     0.88722   0.02863   0.47399   0.00000  Uiso   1.00
H723   H     0.04764   0.06100   0.61554   0.00000  Uiso   1.00
H724   H     0.85845   0.08822   0.69427   0.00000  Uiso   1.00
H725   H     0.83956   0.00756   0.32887   0.00000  Uiso   1.00
H726   H     0.17782   0.07581   0.62737   0.00000  Uiso   1.00
H727   H     0.77888   0.13321   0.79339   0.00000  Uiso   1.00
O728   O     0.81486   0.04302   0.20043   0.00000  Uiso   1.00
O729   O     0.25863   0.13257   0.59207   0.00000  Uiso   1.00
O730   O     0.73523   0.20788   0.80987   0.00000  Uiso   1.00
N731   N     0.85194   0.09733   0.26992   0.00000  Uiso   1.00
N732   N     0.16818   0.16114   0.54899   0.00000  Uiso   1.00
N733   N     0.79522   0.21481   0.70421   0.00000  Uiso   1.00
N734   N     0.84748   0.03746   0.32275   0.00000  Uiso   1.00
N735   N     0.16373   0.10127   0.60182   0.00000  Uiso   1.00
N736   N     0.79077   0.15494   0.75704   0.00000  Uiso   1.00
