data_job_02886
_audit_creation_date              2018-12-19
_audit_creation_method            'Materials Studio'
_symmetry_space_group_name_H-M    'P1'
_symmetry_Int_Tables_number       1
_symmetry_cell_setting            triclinic
loop_
_symmetry_equiv_pos_as_xyz
  x,y,z
_cell_length_a                    24.2199
_cell_length_b                    24.2199
_cell_length_c                    25.5228
_cell_angle_alpha                 90.0000
_cell_angle_beta                  90.0000
_cell_angle_gamma                 90.0000
loop_
_atom_site_label
_atom_site_type_symbol
_atom_site_fract_x
_atom_site_fract_y
_atom_site_fract_z
_atom_site_U_iso_or_equiv
_atom_site_adp_type
_atom_site_occupancy
C1     C     0.68350   0.37746   0.62012   0.00000  Uiso   1.00
C2     C     0.62344   0.36350   0.63223   0.00000  Uiso   1.00
C3     C     0.58564   0.34141   0.59716   0.00000  Uiso   1.00
C4     C     0.53270   0.33161   0.61583   0.00000  Uiso   1.00
C5     C     0.44166   0.30815   0.62673   0.00000  Uiso   1.00
C6     C     0.69063   0.43834   0.63377   0.00000  Uiso   1.00
C7     C     0.70933   0.47917   0.59999   0.00000  Uiso   1.00
C8     C     0.71296   0.53237   0.61997   0.00000  Uiso   1.00
C9     C     0.72627   0.62509   0.63326   0.00000  Uiso   1.00
C10    C     0.71805   0.34554   0.65984   0.00000  Uiso   1.00
C11    C     0.75981   0.30835   0.64798   0.00000  Uiso   1.00
C12    C     0.78653   0.28343   0.68990   0.00000  Uiso   1.00
C13    C     0.84240   0.23207   0.74367   0.00000  Uiso   1.00
C14    C     0.65670   0.39935   0.71566   0.00000  Uiso   1.00
C15    C     0.60889   0.37539   0.68412   0.00000  Uiso   1.00
C16    C     0.55599   0.36562   0.70285   0.00000  Uiso   1.00
C17    C     0.51812   0.34352   0.66781   0.00000  Uiso   1.00
C18    C     0.67608   0.45023   0.68566   0.00000  Uiso   1.00
C19    C     0.67968   0.50338   0.70569   0.00000  Uiso   1.00
C20    C     0.69838   0.54428   0.67195   0.00000  Uiso   1.00
C21    C     0.70349   0.35743   0.71173   0.00000  Uiso   1.00
C22    C     0.73015   0.33256   0.75368   0.00000  Uiso   1.00
C23    C     0.77194   0.29534   0.74188   0.00000  Uiso   1.00
H24    H     0.69483   0.36821   0.57972   0.00000  Uiso   1.00
H25    H     0.59692   0.33222   0.55700   0.00000  Uiso   1.00
H26    H     0.72060   0.46996   0.55984   0.00000  Uiso   1.00
H27    H     0.77106   0.29917   0.60782   0.00000  Uiso   1.00
H28    H     0.48195   0.29758   0.55469   0.00000  Uiso   1.00
H29    H     0.74275   0.58800   0.56067   0.00000  Uiso   1.00
H30    H     0.84916   0.22785   0.66185   0.00000  Uiso   1.00
H31    H     0.64536   0.40860   0.75606   0.00000  Uiso   1.00
H32    H     0.54473   0.37483   0.74301   0.00000  Uiso   1.00
H33    H     0.66841   0.51256   0.74585   0.00000  Uiso   1.00
H34    H     0.71888   0.34177   0.79383   0.00000  Uiso   1.00
H35    H     0.43959   0.33216   0.70566   0.00000  Uiso   1.00
H36    H     0.70039   0.62258   0.71165   0.00000  Uiso   1.00
H37    H     0.80680   0.26244   0.81282   0.00000  Uiso   1.00
O38    O     0.39546   0.29194   0.61840   0.00000  Uiso   1.00
O39    O     0.73763   0.67296   0.62626   0.00000  Uiso   1.00
O40    O     0.87724   0.20045   0.75900   0.00000  Uiso   1.00
N41    N     0.48579   0.31034   0.59201   0.00000  Uiso   1.00
N42    N     0.72962   0.58187   0.59761   0.00000  Uiso   1.00
N43    N     0.82911   0.24518   0.69219   0.00000  Uiso   1.00
N44    N     0.46300   0.32895   0.67325   0.00000  Uiso   1.00
N45    N     0.70682   0.60048   0.67884   0.00000  Uiso   1.00
N46    N     0.80632   0.26378   0.77343   0.00000  Uiso   1.00
C47    C     0.18350   0.87746   0.12012   0.00000  Uiso   1.00
C48    C     0.12344   0.86350   0.13223   0.00000  Uiso   1.00
C49    C     0.08564   0.84141   0.09716   0.00000  Uiso   1.00
C50    C     0.03270   0.83161   0.11583   0.00000  Uiso   1.00
C51    C     0.94166   0.80815   0.12673   0.00000  Uiso   1.00
C52    C     0.19063   0.93834   0.13377   0.00000  Uiso   1.00
C53    C     0.20933   0.97917   0.09999   0.00000  Uiso   1.00
C54    C     0.21296   0.03237   0.11997   0.00000  Uiso   1.00
C55    C     0.22627   0.12509   0.13326   0.00000  Uiso   1.00
C56    C     0.21805   0.84554   0.15984   0.00000  Uiso   1.00
C57    C     0.25981   0.80835   0.14798   0.00000  Uiso   1.00
C58    C     0.28653   0.78343   0.18990   0.00000  Uiso   1.00
C59    C     0.34240   0.73207   0.24367   0.00000  Uiso   1.00
C60    C     0.15670   0.89935   0.21566   0.00000  Uiso   1.00
C61    C     0.10889   0.87539   0.18412   0.00000  Uiso   1.00
C62    C     0.05599   0.86562   0.20285   0.00000  Uiso   1.00
C63    C     0.01812   0.84352   0.16781   0.00000  Uiso   1.00
C64    C     0.17608   0.95023   0.18566   0.00000  Uiso   1.00
C65    C     0.17968   0.00338   0.20569   0.00000  Uiso   1.00
C66    C     0.19838   0.04428   0.17195   0.00000  Uiso   1.00
C67    C     0.20349   0.85743   0.21173   0.00000  Uiso   1.00
C68    C     0.23015   0.83256   0.25368   0.00000  Uiso   1.00
C69    C     0.27194   0.79534   0.24188   0.00000  Uiso   1.00
H70    H     0.19483   0.86821   0.07972   0.00000  Uiso   1.00
H71    H     0.09692   0.83222   0.05700   0.00000  Uiso   1.00
H72    H     0.22060   0.96996   0.05984   0.00000  Uiso   1.00
H73    H     0.27106   0.79917   0.10782   0.00000  Uiso   1.00
H74    H     0.98195   0.79758   0.05469   0.00000  Uiso   1.00
H75    H     0.24275   0.08800   0.06067   0.00000  Uiso   1.00
H76    H     0.34916   0.72785   0.16185   0.00000  Uiso   1.00
H77    H     0.14536   0.90860   0.25606   0.00000  Uiso   1.00
H78    H     0.04473   0.87483   0.24301   0.00000  Uiso   1.00
H79    H     0.16841   0.01256   0.24585   0.00000  Uiso   1.00
H80    H     0.21888   0.84177   0.29383   0.00000  Uiso   1.00
H81    H     0.93959   0.83216   0.20566   0.00000  Uiso   1.00
H82    H     0.20039   0.12258   0.21165   0.00000  Uiso   1.00
H83    H     0.30680   0.76244   0.31282   0.00000  Uiso   1.00
O84    O     0.89546   0.79194   0.11840   0.00000  Uiso   1.00
O85    O     0.23763   0.17296   0.12626   0.00000  Uiso   1.00
O86    O     0.37724   0.70045   0.25900   0.00000  Uiso   1.00
N87    N     0.98579   0.81034   0.09201   0.00000  Uiso   1.00
N88    N     0.22962   0.08187   0.09761   0.00000  Uiso   1.00
N89    N     0.32911   0.74518   0.19219   0.00000  Uiso   1.00
N90    N     0.96300   0.82895   0.17325   0.00000  Uiso   1.00
N91    N     0.20682   0.10048   0.17884   0.00000  Uiso   1.00
N92    N     0.30632   0.76378   0.27343   0.00000  Uiso   1.00
C93    C     0.81650   0.12254   0.12012   0.00000  Uiso   1.00
C94    C     0.87656   0.13650   0.13223   0.00000  Uiso   1.00
C95    C     0.91436   0.15859   0.09716   0.00000  Uiso   1.00
C96    C     0.96730   0.16839   0.11583   0.00000  Uiso   1.00
C97    C     0.05834   0.19185   0.12673   0.00000  Uiso   1.00
C98    C     0.80937   0.06166   0.13377   0.00000  Uiso   1.00
C99    C     0.79067   0.02083   0.09999   0.00000  Uiso   1.00
C100   C     0.78704   0.96763   0.11997   0.00000  Uiso   1.00
C101   C     0.77373   0.87491   0.13326   0.00000  Uiso   1.00
C102   C     0.78195   0.15446   0.15984   0.00000  Uiso   1.00
C103   C     0.74019   0.19165   0.14798   0.00000  Uiso   1.00
C104   C     0.71347   0.21657   0.18990   0.00000  Uiso   1.00
C105   C     0.65760   0.26793   0.24367   0.00000  Uiso   1.00
C106   C     0.84330   0.10065   0.21566   0.00000  Uiso   1.00
C107   C     0.89111   0.12461   0.18412   0.00000  Uiso   1.00
C108   C     0.94401   0.13438   0.20285   0.00000  Uiso   1.00
C109   C     0.98188   0.15648   0.16781   0.00000  Uiso   1.00
C110   C     0.82392   0.04977   0.18566   0.00000  Uiso   1.00
C111   C     0.82032   0.99662   0.20569   0.00000  Uiso   1.00
C112   C     0.80162   0.95572   0.17195   0.00000  Uiso   1.00
C113   C     0.79651   0.14257   0.21173   0.00000  Uiso   1.00
C114   C     0.76985   0.16744   0.25368   0.00000  Uiso   1.00
C115   C     0.72806   0.20466   0.24188   0.00000  Uiso   1.00
H116   H     0.80517   0.13179   0.07972   0.00000  Uiso   1.00
H117   H     0.90308   0.16778   0.05700   0.00000  Uiso   1.00
H118   H     0.77940   0.03004   0.05984   0.00000  Uiso   1.00
H119   H     0.72894   0.20083   0.10782   0.00000  Uiso   1.00
H120   H     0.01805   0.20242   0.05469   0.00000  Uiso   1.00
H121   H     0.75725   0.91200   0.06067   0.00000  Uiso   1.00
H122   H     0.65084   0.27215   0.16185   0.00000  Uiso   1.00
H123   H     0.85464   0.09140   0.25606   0.00000  Uiso   1.00
H124   H     0.95527   0.12517   0.24301   0.00000  Uiso   1.00
H125   H     0.83159   0.98744   0.24585   0.00000  Uiso   1.00
H126   H     0.78112   0.15823   0.29383   0.00000  Uiso   1.00
H127   H     0.06041   0.16784   0.20566   0.00000  Uiso   1.00
H128   H     0.79961   0.87742   0.21165   0.00000  Uiso   1.00
H129   H     0.69320   0.23756   0.31282   0.00000  Uiso   1.00
O130   O     0.10454   0.20806   0.11840   0.00000  Uiso   1.00
O131   O     0.76237   0.82704   0.12626   0.00000  Uiso   1.00
O132   O     0.62276   0.29955   0.25900   0.00000  Uiso   1.00
N133   N     0.01421   0.18966   0.09201   0.00000  Uiso   1.00
N134   N     0.77038   0.91813   0.09761   0.00000  Uiso   1.00
N135   N     0.67089   0.25482   0.19219   0.00000  Uiso   1.00
N136   N     0.03700   0.17105   0.17325   0.00000  Uiso   1.00
N137   N     0.79318   0.89952   0.17884   0.00000  Uiso   1.00
N138   N     0.69368   0.23622   0.27343   0.00000  Uiso   1.00
C139   C     0.31650   0.62254   0.62012   0.00000  Uiso   1.00
C140   C     0.37656   0.63650   0.63223   0.00000  Uiso   1.00
C141   C     0.41436   0.65859   0.59716   0.00000  Uiso   1.00
C142   C     0.46730   0.66839   0.61583   0.00000  Uiso   1.00
C143   C     0.55834   0.69185   0.62673   0.00000  Uiso   1.00
C144   C     0.30937   0.56166   0.63377   0.00000  Uiso   1.00
C145   C     0.29067   0.52083   0.59999   0.00000  Uiso   1.00
C146   C     0.28704   0.46763   0.61997   0.00000  Uiso   1.00
C147   C     0.27373   0.37491   0.63326   0.00000  Uiso   1.00
C148   C     0.28195   0.65446   0.65984   0.00000  Uiso   1.00
C149   C     0.24019   0.69165   0.64798   0.00000  Uiso   1.00
C150   C     0.21347   0.71657   0.68990   0.00000  Uiso   1.00
C151   C     0.15760   0.76793   0.74367   0.00000  Uiso   1.00
C152   C     0.34330   0.60065   0.71566   0.00000  Uiso   1.00
C153   C     0.39111   0.62461   0.68412   0.00000  Uiso   1.00
C154   C     0.44401   0.63438   0.70285   0.00000  Uiso   1.00
C155   C     0.48188   0.65648   0.66781   0.00000  Uiso   1.00
C156   C     0.32392   0.54977   0.68566   0.00000  Uiso   1.00
C157   C     0.32032   0.49662   0.70569   0.00000  Uiso   1.00
C158   C     0.30162   0.45572   0.67195   0.00000  Uiso   1.00
C159   C     0.29651   0.64257   0.71173   0.00000  Uiso   1.00
C160   C     0.26985   0.66744   0.75368   0.00000  Uiso   1.00
C161   C     0.22806   0.70466   0.74188   0.00000  Uiso   1.00
H162   H     0.30517   0.63179   0.57972   0.00000  Uiso   1.00
H163   H     0.40308   0.66778   0.55700   0.00000  Uiso   1.00
H164   H     0.27940   0.53004   0.55984   0.00000  Uiso   1.00
H165   H     0.22894   0.70083   0.60782   0.00000  Uiso   1.00
H166   H     0.51805   0.70242   0.55469   0.00000  Uiso   1.00
H167   H     0.25725   0.41200   0.56067   0.00000  Uiso   1.00
H168   H     0.15084   0.77215   0.66185   0.00000  Uiso   1.00
H169   H     0.35464   0.59140   0.75606   0.00000  Uiso   1.00
H170   H     0.45527   0.62517   0.74301   0.00000  Uiso   1.00
H171   H     0.33159   0.48744   0.74585   0.00000  Uiso   1.00
H172   H     0.28112   0.65823   0.79383   0.00000  Uiso   1.00
H173   H     0.56041   0.66784   0.70566   0.00000  Uiso   1.00
H174   H     0.29961   0.37742   0.71165   0.00000  Uiso   1.00
H175   H     0.19320   0.73756   0.81282   0.00000  Uiso   1.00
O176   O     0.60454   0.70806   0.61840   0.00000  Uiso   1.00
O177   O     0.26237   0.32704   0.62626   0.00000  Uiso   1.00
O178   O     0.12276   0.79955   0.75900   0.00000  Uiso   1.00
N179   N     0.51421   0.68966   0.59201   0.00000  Uiso   1.00
N180   N     0.27038   0.41813   0.59761   0.00000  Uiso   1.00
N181   N     0.17089   0.75482   0.69219   0.00000  Uiso   1.00
N182   N     0.53700   0.67105   0.67325   0.00000  Uiso   1.00
N183   N     0.29318   0.39952   0.67884   0.00000  Uiso   1.00
N184   N     0.19368   0.73622   0.77343   0.00000  Uiso   1.00
C185   C     0.62254   0.18350   0.87012   0.00000  Uiso   1.00
C186   C     0.63650   0.12344   0.88223   0.00000  Uiso   1.00
C187   C     0.65859   0.08564   0.84716   0.00000  Uiso   1.00
C188   C     0.66839   0.03270   0.86583   0.00000  Uiso   1.00
C189   C     0.69185   0.94166   0.87673   0.00000  Uiso   1.00
C190   C     0.56166   0.19063   0.88377   0.00000  Uiso   1.00
C191   C     0.52083   0.20933   0.84999   0.00000  Uiso   1.00
C192   C     0.46763   0.21296   0.86997   0.00000  Uiso   1.00
C193   C     0.37491   0.22627   0.88326   0.00000  Uiso   1.00
C194   C     0.65446   0.21805   0.90984   0.00000  Uiso   1.00
C195   C     0.69165   0.25981   0.89798   0.00000  Uiso   1.00
C196   C     0.71657   0.28653   0.93990   0.00000  Uiso   1.00
C197   C     0.76793   0.34240   0.99367   0.00000  Uiso   1.00
C198   C     0.60065   0.15670   0.96566   0.00000  Uiso   1.00
C199   C     0.62461   0.10889   0.93412   0.00000  Uiso   1.00
C200   C     0.63438   0.05599   0.95285   0.00000  Uiso   1.00
C201   C     0.65648   0.01812   0.91781   0.00000  Uiso   1.00
C202   C     0.54977   0.17608   0.93566   0.00000  Uiso   1.00
C203   C     0.49662   0.17968   0.95569   0.00000  Uiso   1.00
C204   C     0.45572   0.19838   0.92195   0.00000  Uiso   1.00
C205   C     0.64257   0.20349   0.96173   0.00000  Uiso   1.00
C206   C     0.66744   0.23015   0.00368   0.00000  Uiso   1.00
C207   C     0.70466   0.27194   0.99188   0.00000  Uiso   1.00
H208   H     0.63179   0.19483   0.82972   0.00000  Uiso   1.00
H209   H     0.66778   0.09692   0.80700   0.00000  Uiso   1.00
H210   H     0.53004   0.22060   0.80984   0.00000  Uiso   1.00
H211   H     0.70083   0.27106   0.85782   0.00000  Uiso   1.00
H212   H     0.70242   0.98195   0.80469   0.00000  Uiso   1.00
H213   H     0.41200   0.24275   0.81067   0.00000  Uiso   1.00
H214   H     0.77215   0.34916   0.91185   0.00000  Uiso   1.00
H215   H     0.59140   0.14536   0.00606   0.00000  Uiso   1.00
H216   H     0.62517   0.04473   0.99301   0.00000  Uiso   1.00
H217   H     0.48744   0.16841   0.99585   0.00000  Uiso   1.00
H218   H     0.65823   0.21888   0.04383   0.00000  Uiso   1.00
H219   H     0.66784   0.93959   0.95566   0.00000  Uiso   1.00
H220   H     0.37742   0.20039   0.96165   0.00000  Uiso   1.00
H221   H     0.73756   0.30680   0.06282   0.00000  Uiso   1.00
O222   O     0.70806   0.89546   0.86840   0.00000  Uiso   1.00
O223   O     0.32704   0.23763   0.87626   0.00000  Uiso   1.00
O224   O     0.79955   0.37724   0.00900   0.00000  Uiso   1.00
N225   N     0.68966   0.98579   0.84201   0.00000  Uiso   1.00
N226   N     0.41813   0.22962   0.84761   0.00000  Uiso   1.00
N227   N     0.75482   0.32911   0.94219   0.00000  Uiso   1.00
N228   N     0.67105   0.96300   0.92325   0.00000  Uiso   1.00
N229   N     0.39952   0.20682   0.92884   0.00000  Uiso   1.00
N230   N     0.73622   0.30632   0.02343   0.00000  Uiso   1.00
C231   C     0.12254   0.68350   0.37012   0.00000  Uiso   1.00
C232   C     0.13650   0.62344   0.38223   0.00000  Uiso   1.00
C233   C     0.15859   0.58564   0.34716   0.00000  Uiso   1.00
C234   C     0.16839   0.53270   0.36583   0.00000  Uiso   1.00
C235   C     0.19185   0.44166   0.37673   0.00000  Uiso   1.00
C236   C     0.06166   0.69063   0.38377   0.00000  Uiso   1.00
C237   C     0.02083   0.70933   0.34999   0.00000  Uiso   1.00
C238   C     0.96763   0.71296   0.36997   0.00000  Uiso   1.00
C239   C     0.87491   0.72627   0.38326   0.00000  Uiso   1.00
C240   C     0.15446   0.71805   0.40984   0.00000  Uiso   1.00
C241   C     0.19165   0.75981   0.39798   0.00000  Uiso   1.00
C242   C     0.21657   0.78653   0.43990   0.00000  Uiso   1.00
C243   C     0.26793   0.84240   0.49367   0.00000  Uiso   1.00
C244   C     0.10065   0.65670   0.46566   0.00000  Uiso   1.00
C245   C     0.12461   0.60889   0.43412   0.00000  Uiso   1.00
C246   C     0.13438   0.55599   0.45285   0.00000  Uiso   1.00
C247   C     0.15648   0.51812   0.41781   0.00000  Uiso   1.00
C248   C     0.04977   0.67608   0.43566   0.00000  Uiso   1.00
C249   C     0.99662   0.67968   0.45569   0.00000  Uiso   1.00
C250   C     0.95572   0.69838   0.42195   0.00000  Uiso   1.00
C251   C     0.14257   0.70349   0.46173   0.00000  Uiso   1.00
C252   C     0.16744   0.73015   0.50368   0.00000  Uiso   1.00
C253   C     0.20466   0.77194   0.49188   0.00000  Uiso   1.00
H254   H     0.13179   0.69483   0.32972   0.00000  Uiso   1.00
H255   H     0.16778   0.59692   0.30700   0.00000  Uiso   1.00
H256   H     0.03004   0.72060   0.30984   0.00000  Uiso   1.00
H257   H     0.20083   0.77106   0.35782   0.00000  Uiso   1.00
H258   H     0.20242   0.48195   0.30469   0.00000  Uiso   1.00
H259   H     0.91200   0.74275   0.31067   0.00000  Uiso   1.00
H260   H     0.27215   0.84916   0.41185   0.00000  Uiso   1.00
H261   H     0.09140   0.64536   0.50606   0.00000  Uiso   1.00
H262   H     0.12517   0.54473   0.49301   0.00000  Uiso   1.00
H263   H     0.98744   0.66841   0.49585   0.00000  Uiso   1.00
H264   H     0.15823   0.71888   0.54383   0.00000  Uiso   1.00
H265   H     0.16784   0.43959   0.45566   0.00000  Uiso   1.00
H266   H     0.87742   0.70039   0.46165   0.00000  Uiso   1.00
H267   H     0.23756   0.80680   0.56282   0.00000  Uiso   1.00
O268   O     0.20806   0.39546   0.36840   0.00000  Uiso   1.00
O269   O     0.82704   0.73763   0.37626   0.00000  Uiso   1.00
O270   O     0.29955   0.87724   0.50900   0.00000  Uiso   1.00
N271   N     0.18966   0.48579   0.34201   0.00000  Uiso   1.00
N272   N     0.91813   0.72962   0.34761   0.00000  Uiso   1.00
N273   N     0.25482   0.82911   0.44219   0.00000  Uiso   1.00
N274   N     0.17105   0.46300   0.42325   0.00000  Uiso   1.00
N275   N     0.89952   0.70682   0.42884   0.00000  Uiso   1.00
N276   N     0.23622   0.80632   0.52343   0.00000  Uiso   1.00
C277   C     0.87746   0.31650   0.37012   0.00000  Uiso   1.00
C278   C     0.86350   0.37656   0.38223   0.00000  Uiso   1.00
C279   C     0.84141   0.41436   0.34716   0.00000  Uiso   1.00
C280   C     0.83161   0.46730   0.36583   0.00000  Uiso   1.00
C281   C     0.80815   0.55834   0.37673   0.00000  Uiso   1.00
C282   C     0.93834   0.30937   0.38377   0.00000  Uiso   1.00
C283   C     0.97917   0.29067   0.34999   0.00000  Uiso   1.00
C284   C     0.03237   0.28704   0.36997   0.00000  Uiso   1.00
C285   C     0.12509   0.27373   0.38326   0.00000  Uiso   1.00
C286   C     0.84554   0.28195   0.40984   0.00000  Uiso   1.00
C287   C     0.80835   0.24019   0.39798   0.00000  Uiso   1.00
C288   C     0.78343   0.21347   0.43990   0.00000  Uiso   1.00
C289   C     0.73207   0.15760   0.49367   0.00000  Uiso   1.00
C290   C     0.89935   0.34330   0.46566   0.00000  Uiso   1.00
C291   C     0.87539   0.39111   0.43412   0.00000  Uiso   1.00
C292   C     0.86562   0.44401   0.45285   0.00000  Uiso   1.00
C293   C     0.84352   0.48188   0.41781   0.00000  Uiso   1.00
C294   C     0.95023   0.32392   0.43566   0.00000  Uiso   1.00
C295   C     0.00338   0.32032   0.45569   0.00000  Uiso   1.00
C296   C     0.04428   0.30162   0.42195   0.00000  Uiso   1.00
C297   C     0.85743   0.29651   0.46173   0.00000  Uiso   1.00
C298   C     0.83256   0.26985   0.50368   0.00000  Uiso   1.00
C299   C     0.79534   0.22806   0.49188   0.00000  Uiso   1.00
H300   H     0.86821   0.30517   0.32972   0.00000  Uiso   1.00
H301   H     0.83222   0.40308   0.30700   0.00000  Uiso   1.00
H302   H     0.96996   0.27940   0.30984   0.00000  Uiso   1.00
H303   H     0.79917   0.22894   0.35782   0.00000  Uiso   1.00
H304   H     0.79758   0.51805   0.30469   0.00000  Uiso   1.00
H305   H     0.08800   0.25725   0.31067   0.00000  Uiso   1.00
H306   H     0.72785   0.15084   0.41185   0.00000  Uiso   1.00
H307   H     0.90860   0.35464   0.50606   0.00000  Uiso   1.00
H308   H     0.87483   0.45527   0.49301   0.00000  Uiso   1.00
H309   H     0.01256   0.33159   0.49585   0.00000  Uiso   1.00
H310   H     0.84177   0.28112   0.54383   0.00000  Uiso   1.00
H311   H     0.83216   0.56041   0.45566   0.00000  Uiso   1.00
H312   H     0.12258   0.29961   0.46165   0.00000  Uiso   1.00
H313   H     0.76244   0.19320   0.56282   0.00000  Uiso   1.00
O314   O     0.79194   0.60454   0.36840   0.00000  Uiso   1.00
O315   O     0.17296   0.26237   0.37626   0.00000  Uiso   1.00
O316   O     0.70045   0.12276   0.50900   0.00000  Uiso   1.00
N317   N     0.81034   0.51421   0.34201   0.00000  Uiso   1.00
N318   N     0.08187   0.27038   0.34761   0.00000  Uiso   1.00
N319   N     0.74518   0.17089   0.44219   0.00000  Uiso   1.00
N320   N     0.82895   0.53700   0.42325   0.00000  Uiso   1.00
N321   N     0.10048   0.29318   0.42884   0.00000  Uiso   1.00
N322   N     0.76378   0.19368   0.52343   0.00000  Uiso   1.00
C323   C     0.37746   0.81650   0.87012   0.00000  Uiso   1.00
C324   C     0.36350   0.87656   0.88223   0.00000  Uiso   1.00
C325   C     0.34141   0.91436   0.84716   0.00000  Uiso   1.00
C326   C     0.33161   0.96730   0.86583   0.00000  Uiso   1.00
C327   C     0.30815   0.05834   0.87673   0.00000  Uiso   1.00
C328   C     0.43834   0.80937   0.88377   0.00000  Uiso   1.00
C329   C     0.47917   0.79067   0.84999   0.00000  Uiso   1.00
C330   C     0.53237   0.78704   0.86997   0.00000  Uiso   1.00
C331   C     0.62509   0.77373   0.88326   0.00000  Uiso   1.00
C332   C     0.34554   0.78195   0.90984   0.00000  Uiso   1.00
C333   C     0.30835   0.74019   0.89798   0.00000  Uiso   1.00
C334   C     0.28343   0.71347   0.93990   0.00000  Uiso   1.00
C335   C     0.23207   0.65760   0.99367   0.00000  Uiso   1.00
C336   C     0.39935   0.84330   0.96566   0.00000  Uiso   1.00
C337   C     0.37539   0.89111   0.93412   0.00000  Uiso   1.00
C338   C     0.36562   0.94401   0.95285   0.00000  Uiso   1.00
C339   C     0.34352   0.98188   0.91781   0.00000  Uiso   1.00
C340   C     0.45023   0.82392   0.93566   0.00000  Uiso   1.00
C341   C     0.50338   0.82032   0.95569   0.00000  Uiso   1.00
C342   C     0.54428   0.80162   0.92195   0.00000  Uiso   1.00
C343   C     0.35743   0.79651   0.96173   0.00000  Uiso   1.00
C344   C     0.33256   0.76985   0.00368   0.00000  Uiso   1.00
C345   C     0.29534   0.72806   0.99188   0.00000  Uiso   1.00
H346   H     0.36821   0.80517   0.82972   0.00000  Uiso   1.00
H347   H     0.33222   0.90308   0.80700   0.00000  Uiso   1.00
H348   H     0.46996   0.77940   0.80984   0.00000  Uiso   1.00
H349   H     0.29917   0.72894   0.85782   0.00000  Uiso   1.00
H350   H     0.29758   0.01805   0.80469   0.00000  Uiso   1.00
H351   H     0.58800   0.75725   0.81067   0.00000  Uiso   1.00
H352   H     0.22785   0.65084   0.91185   0.00000  Uiso   1.00
H353   H     0.40860   0.85464   0.00606   0.00000  Uiso   1.00
H354   H     0.37483   0.95527   0.99301   0.00000  Uiso   1.00
H355   H     0.51256   0.83159   0.99585   0.00000  Uiso   1.00
H356   H     0.34177   0.78112   0.04383   0.00000  Uiso   1.00
H357   H     0.33216   0.06041   0.95566   0.00000  Uiso   1.00
H358   H     0.62258   0.79961   0.96165   0.00000  Uiso   1.00
H359   H     0.26244   0.69320   0.06282   0.00000  Uiso   1.00
O360   O     0.29194   0.10454   0.86840   0.00000  Uiso   1.00
O361   O     0.67296   0.76237   0.87626   0.00000  Uiso   1.00
O362   O     0.20045   0.62276   0.00900   0.00000  Uiso   1.00
N363   N     0.31034   0.01421   0.84201   0.00000  Uiso   1.00
N364   N     0.58187   0.77038   0.84761   0.00000  Uiso   1.00
N365   N     0.24518   0.67089   0.94219   0.00000  Uiso   1.00
N366   N     0.32895   0.03700   0.92325   0.00000  Uiso   1.00
N367   N     0.60048   0.79318   0.92884   0.00000  Uiso   1.00
N368   N     0.26378   0.69368   0.02343   0.00000  Uiso   1.00
C369   C     0.68350   0.62254   0.12012   0.00000  Uiso   1.00
C370   C     0.62344   0.63650   0.13223   0.00000  Uiso   1.00
C371   C     0.58564   0.65859   0.09716   0.00000  Uiso   1.00
C372   C     0.53270   0.66839   0.11583   0.00000  Uiso   1.00
C373   C     0.44166   0.69185   0.12673   0.00000  Uiso   1.00
C374   C     0.69063   0.56166   0.13377   0.00000  Uiso   1.00
C375   C     0.70933   0.52083   0.09999   0.00000  Uiso   1.00
C376   C     0.71296   0.46763   0.11997   0.00000  Uiso   1.00
C377   C     0.72627   0.37491   0.13326   0.00000  Uiso   1.00
C378   C     0.71805   0.65446   0.15984   0.00000  Uiso   1.00
C379   C     0.75981   0.69165   0.14798   0.00000  Uiso   1.00
C380   C     0.78653   0.71657   0.18990   0.00000  Uiso   1.00
C381   C     0.84240   0.76793   0.24367   0.00000  Uiso   1.00
C382   C     0.65670   0.60065   0.21566   0.00000  Uiso   1.00
C383   C     0.60889   0.62461   0.18412   0.00000  Uiso   1.00
C384   C     0.55599   0.63438   0.20285   0.00000  Uiso   1.00
C385   C     0.51812   0.65648   0.16781   0.00000  Uiso   1.00
C386   C     0.67608   0.54977   0.18566   0.00000  Uiso   1.00
C387   C     0.67968   0.49662   0.20569   0.00000  Uiso   1.00
C388   C     0.69838   0.45572   0.17195   0.00000  Uiso   1.00
C389   C     0.70349   0.64257   0.21173   0.00000  Uiso   1.00
C390   C     0.73015   0.66744   0.25368   0.00000  Uiso   1.00
C391   C     0.77194   0.70466   0.24188   0.00000  Uiso   1.00
H392   H     0.69483   0.63179   0.07972   0.00000  Uiso   1.00
H393   H     0.59692   0.66778   0.05700   0.00000  Uiso   1.00
H394   H     0.72060   0.53004   0.05984   0.00000  Uiso   1.00
H395   H     0.77106   0.70083   0.10782   0.00000  Uiso   1.00
H396   H     0.48195   0.70242   0.05469   0.00000  Uiso   1.00
H397   H     0.74275   0.41200   0.06067   0.00000  Uiso   1.00
H398   H     0.84916   0.77215   0.16185   0.00000  Uiso   1.00
H399   H     0.64536   0.59140   0.25606   0.00000  Uiso   1.00
H400   H     0.54473   0.62517   0.24301   0.00000  Uiso   1.00
H401   H     0.66841   0.48744   0.24585   0.00000  Uiso   1.00
H402   H     0.71888   0.65823   0.29383   0.00000  Uiso   1.00
H403   H     0.43959   0.66784   0.20566   0.00000  Uiso   1.00
H404   H     0.70039   0.37742   0.21165   0.00000  Uiso   1.00
H405   H     0.80680   0.73756   0.31282   0.00000  Uiso   1.00
O406   O     0.39546   0.70806   0.11840   0.00000  Uiso   1.00
O407   O     0.73763   0.32704   0.12626   0.00000  Uiso   1.00
O408   O     0.87724   0.79955   0.25900   0.00000  Uiso   1.00
N409   N     0.48579   0.68966   0.09201   0.00000  Uiso   1.00
N410   N     0.72962   0.41813   0.09761   0.00000  Uiso   1.00
N411   N     0.82911   0.75482   0.19219   0.00000  Uiso   1.00
N412   N     0.46300   0.67105   0.17325   0.00000  Uiso   1.00
N413   N     0.70682   0.39952   0.17884   0.00000  Uiso   1.00
N414   N     0.80632   0.73622   0.27343   0.00000  Uiso   1.00
C415   C     0.18350   0.12254   0.62012   0.00000  Uiso   1.00
C416   C     0.12344   0.13650   0.63223   0.00000  Uiso   1.00
C417   C     0.08564   0.15859   0.59716   0.00000  Uiso   1.00
C418   C     0.03270   0.16839   0.61583   0.00000  Uiso   1.00
C419   C     0.94166   0.19185   0.62673   0.00000  Uiso   1.00
C420   C     0.19063   0.06166   0.63377   0.00000  Uiso   1.00
C421   C     0.20933   0.02083   0.59999   0.00000  Uiso   1.00
C422   C     0.21296   0.96763   0.61997   0.00000  Uiso   1.00
C423   C     0.22627   0.87491   0.63326   0.00000  Uiso   1.00
C424   C     0.21805   0.15446   0.65984   0.00000  Uiso   1.00
C425   C     0.25981   0.19165   0.64798   0.00000  Uiso   1.00
C426   C     0.28653   0.21657   0.68990   0.00000  Uiso   1.00
C427   C     0.34240   0.26793   0.74367   0.00000  Uiso   1.00
C428   C     0.15670   0.10065   0.71566   0.00000  Uiso   1.00
C429   C     0.10889   0.12461   0.68412   0.00000  Uiso   1.00
C430   C     0.05599   0.13438   0.70285   0.00000  Uiso   1.00
C431   C     0.01812   0.15648   0.66781   0.00000  Uiso   1.00
C432   C     0.17608   0.04977   0.68566   0.00000  Uiso   1.00
C433   C     0.17968   0.99662   0.70569   0.00000  Uiso   1.00
C434   C     0.19838   0.95572   0.67195   0.00000  Uiso   1.00
C435   C     0.20349   0.14257   0.71173   0.00000  Uiso   1.00
C436   C     0.23015   0.16744   0.75368   0.00000  Uiso   1.00
C437   C     0.27194   0.20466   0.74188   0.00000  Uiso   1.00
H438   H     0.19483   0.13179   0.57972   0.00000  Uiso   1.00
H439   H     0.09692   0.16778   0.55700   0.00000  Uiso   1.00
H440   H     0.22060   0.03004   0.55984   0.00000  Uiso   1.00
H441   H     0.27106   0.20083   0.60782   0.00000  Uiso   1.00
H442   H     0.98195   0.20242   0.55469   0.00000  Uiso   1.00
H443   H     0.24275   0.91200   0.56067   0.00000  Uiso   1.00
H444   H     0.34916   0.27215   0.66185   0.00000  Uiso   1.00
H445   H     0.14536   0.09140   0.75606   0.00000  Uiso   1.00
H446   H     0.04473   0.12517   0.74301   0.00000  Uiso   1.00
H447   H     0.16841   0.98744   0.74585   0.00000  Uiso   1.00
H448   H     0.21888   0.15823   0.79383   0.00000  Uiso   1.00
H449   H     0.93959   0.16784   0.70566   0.00000  Uiso   1.00
H450   H     0.20039   0.87742   0.71165   0.00000  Uiso   1.00
H451   H     0.30680   0.23756   0.81282   0.00000  Uiso   1.00
O452   O     0.89546   0.20806   0.61840   0.00000  Uiso   1.00
O453   O     0.23763   0.82704   0.62626   0.00000  Uiso   1.00
O454   O     0.37724   0.29955   0.75900   0.00000  Uiso   1.00
N455   N     0.98579   0.18966   0.59201   0.00000  Uiso   1.00
N456   N     0.22962   0.91813   0.59761   0.00000  Uiso   1.00
N457   N     0.32911   0.25482   0.69219   0.00000  Uiso   1.00
N458   N     0.96300   0.17105   0.67325   0.00000  Uiso   1.00
N459   N     0.20682   0.89952   0.67884   0.00000  Uiso   1.00
N460   N     0.30632   0.23622   0.77343   0.00000  Uiso   1.00
C461   C     0.81650   0.87746   0.62012   0.00000  Uiso   1.00
C462   C     0.87656   0.86350   0.63223   0.00000  Uiso   1.00
C463   C     0.91436   0.84141   0.59716   0.00000  Uiso   1.00
C464   C     0.96730   0.83161   0.61583   0.00000  Uiso   1.00
C465   C     0.05834   0.80815   0.62673   0.00000  Uiso   1.00
C466   C     0.80937   0.93834   0.63377   0.00000  Uiso   1.00
C467   C     0.79067   0.97917   0.59999   0.00000  Uiso   1.00
C468   C     0.78704   0.03237   0.61997   0.00000  Uiso   1.00
C469   C     0.77373   0.12509   0.63326   0.00000  Uiso   1.00
C470   C     0.78195   0.84554   0.65984   0.00000  Uiso   1.00
C471   C     0.74019   0.80835   0.64798   0.00000  Uiso   1.00
C472   C     0.71347   0.78343   0.68990   0.00000  Uiso   1.00
C473   C     0.65760   0.73207   0.74367   0.00000  Uiso   1.00
C474   C     0.84330   0.89935   0.71566   0.00000  Uiso   1.00
C475   C     0.89111   0.87539   0.68412   0.00000  Uiso   1.00
C476   C     0.94401   0.86562   0.70285   0.00000  Uiso   1.00
C477   C     0.98188   0.84352   0.66781   0.00000  Uiso   1.00
C478   C     0.82392   0.95023   0.68566   0.00000  Uiso   1.00
C479   C     0.82032   0.00338   0.70569   0.00000  Uiso   1.00
C480   C     0.80162   0.04428   0.67195   0.00000  Uiso   1.00
C481   C     0.79651   0.85743   0.71173   0.00000  Uiso   1.00
C482   C     0.76985   0.83256   0.75368   0.00000  Uiso   1.00
C483   C     0.72806   0.79534   0.74188   0.00000  Uiso   1.00
H484   H     0.80517   0.86821   0.57972   0.00000  Uiso   1.00
H485   H     0.90308   0.83222   0.55700   0.00000  Uiso   1.00
H486   H     0.77940   0.96996   0.55984   0.00000  Uiso   1.00
H487   H     0.72894   0.79917   0.60782   0.00000  Uiso   1.00
H488   H     0.01805   0.79758   0.55469   0.00000  Uiso   1.00
H489   H     0.75725   0.08800   0.56067   0.00000  Uiso   1.00
H490   H     0.65084   0.72785   0.66185   0.00000  Uiso   1.00
H491   H     0.85464   0.90860   0.75606   0.00000  Uiso   1.00
H492   H     0.95527   0.87483   0.74301   0.00000  Uiso   1.00
H493   H     0.83159   0.01256   0.74585   0.00000  Uiso   1.00
H494   H     0.78112   0.84177   0.79383   0.00000  Uiso   1.00
H495   H     0.06041   0.83216   0.70566   0.00000  Uiso   1.00
H496   H     0.79961   0.12258   0.71165   0.00000  Uiso   1.00
H497   H     0.69320   0.76244   0.81282   0.00000  Uiso   1.00
O498   O     0.10454   0.79194   0.61840   0.00000  Uiso   1.00
O499   O     0.76237   0.17296   0.62626   0.00000  Uiso   1.00
O500   O     0.62276   0.70045   0.75900   0.00000  Uiso   1.00
N501   N     0.01421   0.81034   0.59201   0.00000  Uiso   1.00
N502   N     0.77038   0.08187   0.59761   0.00000  Uiso   1.00
N503   N     0.67089   0.74518   0.69219   0.00000  Uiso   1.00
N504   N     0.03700   0.82895   0.67325   0.00000  Uiso   1.00
N505   N     0.79318   0.10048   0.67884   0.00000  Uiso   1.00
N506   N     0.69368   0.76378   0.77343   0.00000  Uiso   1.00
C507   C     0.31650   0.37746   0.12012   0.00000  Uiso   1.00
C508   C     0.37656   0.36350   0.13223   0.00000  Uiso   1.00
C509   C     0.41436   0.34141   0.09716   0.00000  Uiso   1.00
C510   C     0.46730   0.33161   0.11583   0.00000  Uiso   1.00
C511   C     0.55834   0.30815   0.12673   0.00000  Uiso   1.00
C512   C     0.30937   0.43834   0.13377   0.00000  Uiso   1.00
C513   C     0.29067   0.47917   0.09999   0.00000  Uiso   1.00
C514   C     0.28704   0.53237   0.11997   0.00000  Uiso   1.00
C515   C     0.27373   0.62509   0.13326   0.00000  Uiso   1.00
C516   C     0.28195   0.34554   0.15984   0.00000  Uiso   1.00
C517   C     0.24019   0.30835   0.14798   0.00000  Uiso   1.00
C518   C     0.21347   0.28343   0.18990   0.00000  Uiso   1.00
C519   C     0.15760   0.23207   0.24367   0.00000  Uiso   1.00
C520   C     0.34330   0.39935   0.21566   0.00000  Uiso   1.00
C521   C     0.39111   0.37539   0.18412   0.00000  Uiso   1.00
C522   C     0.44401   0.36562   0.20285   0.00000  Uiso   1.00
C523   C     0.48188   0.34352   0.16781   0.00000  Uiso   1.00
C524   C     0.32392   0.45023   0.18566   0.00000  Uiso   1.00
C525   C     0.32032   0.50338   0.20569   0.00000  Uiso   1.00
C526   C     0.30162   0.54428   0.17195   0.00000  Uiso   1.00
C527   C     0.29651   0.35743   0.21173   0.00000  Uiso   1.00
C528   C     0.26985   0.33256   0.25368   0.00000  Uiso   1.00
C529   C     0.22806   0.29534   0.24188   0.00000  Uiso   1.00
H530   H     0.30517   0.36821   0.07972   0.00000  Uiso   1.00
H531   H     0.40308   0.33222   0.05700   0.00000  Uiso   1.00
H532   H     0.27940   0.46996   0.05984   0.00000  Uiso   1.00
H533   H     0.22894   0.29917   0.10782   0.00000  Uiso   1.00
H534   H     0.51805   0.29758   0.05469   0.00000  Uiso   1.00
H535   H     0.25725   0.58800   0.06067   0.00000  Uiso   1.00
H536   H     0.15084   0.22785   0.16185   0.00000  Uiso   1.00
H537   H     0.35464   0.40860   0.25606   0.00000  Uiso   1.00
H538   H     0.45527   0.37483   0.24301   0.00000  Uiso   1.00
H539   H     0.33159   0.51256   0.24585   0.00000  Uiso   1.00
H540   H     0.28112   0.34177   0.29383   0.00000  Uiso   1.00
H541   H     0.56041   0.33216   0.20566   0.00000  Uiso   1.00
H542   H     0.29961   0.62258   0.21165   0.00000  Uiso   1.00
H543   H     0.19320   0.26244   0.31282   0.00000  Uiso   1.00
O544   O     0.60454   0.29194   0.11840   0.00000  Uiso   1.00
O545   O     0.26237   0.67296   0.12626   0.00000  Uiso   1.00
O546   O     0.12276   0.20045   0.25900   0.00000  Uiso   1.00
N547   N     0.51421   0.31034   0.09201   0.00000  Uiso   1.00
N548   N     0.27038   0.58187   0.09761   0.00000  Uiso   1.00
N549   N     0.17089   0.24518   0.19219   0.00000  Uiso   1.00
N550   N     0.53700   0.32895   0.17325   0.00000  Uiso   1.00
N551   N     0.29318   0.60048   0.17884   0.00000  Uiso   1.00
N552   N     0.19368   0.26378   0.27343   0.00000  Uiso   1.00
C553   C     0.62254   0.81650   0.37012   0.00000  Uiso   1.00
C554   C     0.63650   0.87656   0.38223   0.00000  Uiso   1.00
C555   C     0.65859   0.91436   0.34716   0.00000  Uiso   1.00
C556   C     0.66839   0.96730   0.36583   0.00000  Uiso   1.00
C557   C     0.69185   0.05834   0.37673   0.00000  Uiso   1.00
C558   C     0.56166   0.80937   0.38377   0.00000  Uiso   1.00
C559   C     0.52083   0.79067   0.34999   0.00000  Uiso   1.00
C560   C     0.46763   0.78704   0.36997   0.00000  Uiso   1.00
C561   C     0.37491   0.77373   0.38326   0.00000  Uiso   1.00
C562   C     0.65446   0.78195   0.40984   0.00000  Uiso   1.00
C563   C     0.69165   0.74019   0.39798   0.00000  Uiso   1.00
C564   C     0.71657   0.71347   0.43990   0.00000  Uiso   1.00
C565   C     0.76793   0.65760   0.49367   0.00000  Uiso   1.00
C566   C     0.60065   0.84330   0.46566   0.00000  Uiso   1.00
C567   C     0.62461   0.89111   0.43412   0.00000  Uiso   1.00
C568   C     0.63438   0.94401   0.45285   0.00000  Uiso   1.00
C569   C     0.65648   0.98188   0.41781   0.00000  Uiso   1.00
C570   C     0.54977   0.82392   0.43566   0.00000  Uiso   1.00
C571   C     0.49662   0.82032   0.45569   0.00000  Uiso   1.00
C572   C     0.45572   0.80162   0.42195   0.00000  Uiso   1.00
C573   C     0.64257   0.79651   0.46173   0.00000  Uiso   1.00
C574   C     0.66744   0.76985   0.50368   0.00000  Uiso   1.00
C575   C     0.70466   0.72806   0.49188   0.00000  Uiso   1.00
H576   H     0.63179   0.80517   0.32972   0.00000  Uiso   1.00
H577   H     0.66778   0.90308   0.30700   0.00000  Uiso   1.00
H578   H     0.53004   0.77940   0.30984   0.00000  Uiso   1.00
H579   H     0.70083   0.72894   0.35782   0.00000  Uiso   1.00
H580   H     0.70242   0.01805   0.30469   0.00000  Uiso   1.00
H581   H     0.41200   0.75725   0.31067   0.00000  Uiso   1.00
H582   H     0.77215   0.65084   0.41185   0.00000  Uiso   1.00
H583   H     0.59140   0.85464   0.50606   0.00000  Uiso   1.00
H584   H     0.62517   0.95527   0.49301   0.00000  Uiso   1.00
H585   H     0.48744   0.83159   0.49585   0.00000  Uiso   1.00
H586   H     0.65823   0.78112   0.54383   0.00000  Uiso   1.00
H587   H     0.66784   0.06041   0.45566   0.00000  Uiso   1.00
H588   H     0.37742   0.79961   0.46165   0.00000  Uiso   1.00
H589   H     0.73756   0.69320   0.56282   0.00000  Uiso   1.00
O590   O     0.70806   0.10454   0.36840   0.00000  Uiso   1.00
O591   O     0.32704   0.76237   0.37626   0.00000  Uiso   1.00
O592   O     0.79955   0.62276   0.50900   0.00000  Uiso   1.00
N593   N     0.68966   0.01421   0.34201   0.00000  Uiso   1.00
N594   N     0.41813   0.77038   0.34761   0.00000  Uiso   1.00
N595   N     0.75482   0.67089   0.44219   0.00000  Uiso   1.00
N596   N     0.67105   0.03700   0.42325   0.00000  Uiso   1.00
N597   N     0.39952   0.79318   0.42884   0.00000  Uiso   1.00
N598   N     0.73622   0.69368   0.52343   0.00000  Uiso   1.00
C599   C     0.12254   0.31650   0.87012   0.00000  Uiso   1.00
C600   C     0.13650   0.37656   0.88223   0.00000  Uiso   1.00
C601   C     0.15859   0.41436   0.84716   0.00000  Uiso   1.00
C602   C     0.16839   0.46730   0.86583   0.00000  Uiso   1.00
C603   C     0.19185   0.55834   0.87673   0.00000  Uiso   1.00
C604   C     0.06166   0.30937   0.88377   0.00000  Uiso   1.00
C605   C     0.02083   0.29067   0.84999   0.00000  Uiso   1.00
C606   C     0.96763   0.28704   0.86997   0.00000  Uiso   1.00
C607   C     0.87491   0.27373   0.88326   0.00000  Uiso   1.00
C608   C     0.15446   0.28195   0.90984   0.00000  Uiso   1.00
C609   C     0.19165   0.24019   0.89798   0.00000  Uiso   1.00
C610   C     0.21657   0.21347   0.93990   0.00000  Uiso   1.00
C611   C     0.26793   0.15760   0.99367   0.00000  Uiso   1.00
C612   C     0.10065   0.34330   0.96566   0.00000  Uiso   1.00
C613   C     0.12461   0.39111   0.93412   0.00000  Uiso   1.00
C614   C     0.13438   0.44401   0.95285   0.00000  Uiso   1.00
C615   C     0.15648   0.48188   0.91781   0.00000  Uiso   1.00
C616   C     0.04977   0.32392   0.93566   0.00000  Uiso   1.00
C617   C     0.99662   0.32032   0.95569   0.00000  Uiso   1.00
C618   C     0.95572   0.30162   0.92195   0.00000  Uiso   1.00
C619   C     0.14257   0.29651   0.96173   0.00000  Uiso   1.00
C620   C     0.16744   0.26985   0.00368   0.00000  Uiso   1.00
C621   C     0.20466   0.22806   0.99188   0.00000  Uiso   1.00
H622   H     0.13179   0.30517   0.82972   0.00000  Uiso   1.00
H623   H     0.16778   0.40308   0.80700   0.00000  Uiso   1.00
H624   H     0.03004   0.27940   0.80984   0.00000  Uiso   1.00
H625   H     0.20083   0.22894   0.85782   0.00000  Uiso   1.00
H626   H     0.20242   0.51805   0.80469   0.00000  Uiso   1.00
H627   H     0.91200   0.25725   0.81067   0.00000  Uiso   1.00
H628   H     0.27215   0.15084   0.91185   0.00000  Uiso   1.00
H629   H     0.09140   0.35464   0.00606   0.00000  Uiso   1.00
H630   H     0.12517   0.45527   0.99301   0.00000  Uiso   1.00
H631   H     0.98744   0.33159   0.99585   0.00000  Uiso   1.00
H632   H     0.15823   0.28112   0.04383   0.00000  Uiso   1.00
H633   H     0.16784   0.56041   0.95566   0.00000  Uiso   1.00
H634   H     0.87742   0.29961   0.96165   0.00000  Uiso   1.00
H635   H     0.23756   0.19320   0.06282   0.00000  Uiso   1.00
O636   O     0.20806   0.60454   0.86840   0.00000  Uiso   1.00
O637   O     0.82704   0.26237   0.87626   0.00000  Uiso   1.00
O638   O     0.29955   0.12276   0.00900   0.00000  Uiso   1.00
N639   N     0.18966   0.51421   0.84201   0.00000  Uiso   1.00
N640   N     0.91813   0.27038   0.84761   0.00000  Uiso   1.00
N641   N     0.25482   0.17089   0.94219   0.00000  Uiso   1.00
N642   N     0.17105   0.53700   0.92325   0.00000  Uiso   1.00
N643   N     0.89952   0.29318   0.92884   0.00000  Uiso   1.00
N644   N     0.23622   0.19368   0.02343   0.00000  Uiso   1.00
C645   C     0.87746   0.68350   0.87012   0.00000  Uiso   1.00
C646   C     0.86350   0.62344   0.88223   0.00000  Uiso   1.00
C647   C     0.84141   0.58564   0.84716   0.00000  Uiso   1.00
C648   C     0.83161   0.53270   0.86583   0.00000  Uiso   1.00
C649   C     0.80815   0.44166   0.87673   0.00000  Uiso   1.00
C650   C     0.93834   0.69063   0.88377   0.00000  Uiso   1.00
C651   C     0.97917   0.70933   0.84999   0.00000  Uiso   1.00
C652   C     0.03237   0.71296   0.86997   0.00000  Uiso   1.00
C653   C     0.12509   0.72627   0.88326   0.00000  Uiso   1.00
C654   C     0.84554   0.71805   0.90984   0.00000  Uiso   1.00
C655   C     0.80835   0.75981   0.89798   0.00000  Uiso   1.00
C656   C     0.78343   0.78653   0.93990   0.00000  Uiso   1.00
C657   C     0.73207   0.84240   0.99367   0.00000  Uiso   1.00
C658   C     0.89935   0.65670   0.96566   0.00000  Uiso   1.00
C659   C     0.87539   0.60889   0.93412   0.00000  Uiso   1.00
C660   C     0.86562   0.55599   0.95285   0.00000  Uiso   1.00
C661   C     0.84352   0.51812   0.91781   0.00000  Uiso   1.00
C662   C     0.95023   0.67608   0.93566   0.00000  Uiso   1.00
C663   C     0.00338   0.67968   0.95569   0.00000  Uiso   1.00
C664   C     0.04428   0.69838   0.92195   0.00000  Uiso   1.00
C665   C     0.85743   0.70349   0.96173   0.00000  Uiso   1.00
C666   C     0.83256   0.73015   0.00368   0.00000  Uiso   1.00
C667   C     0.79534   0.77194   0.99188   0.00000  Uiso   1.00
H668   H     0.86821   0.69483   0.82972   0.00000  Uiso   1.00
H669   H     0.83222   0.59692   0.80700   0.00000  Uiso   1.00
H670   H     0.96996   0.72060   0.80984   0.00000  Uiso   1.00
H671   H     0.79917   0.77106   0.85782   0.00000  Uiso   1.00
H672   H     0.79758   0.48195   0.80469   0.00000  Uiso   1.00
H673   H     0.08800   0.74275   0.81067   0.00000  Uiso   1.00
H674   H     0.72785   0.84916   0.91185   0.00000  Uiso   1.00
H675   H     0.90860   0.64536   0.00606   0.00000  Uiso   1.00
H676   H     0.87483   0.54473   0.99301   0.00000  Uiso   1.00
H677   H     0.01256   0.66841   0.99585   0.00000  Uiso   1.00
H678   H     0.84177   0.71888   0.04383   0.00000  Uiso   1.00
H679   H     0.83216   0.43959   0.95566   0.00000  Uiso   1.00
H680   H     0.12258   0.70039   0.96165   0.00000  Uiso   1.00
H681   H     0.76244   0.80680   0.06282   0.00000  Uiso   1.00
O682   O     0.79194   0.39546   0.86840   0.00000  Uiso   1.00
O683   O     0.17296   0.73763   0.87626   0.00000  Uiso   1.00
O684   O     0.70045   0.87724   0.00900   0.00000  Uiso   1.00
N685   N     0.81034   0.48579   0.84201   0.00000  Uiso   1.00
N686   N     0.08187   0.72962   0.84761   0.00000  Uiso   1.00
N687   N     0.74518   0.82911   0.94219   0.00000  Uiso   1.00
N688   N     0.82895   0.46300   0.92325   0.00000  Uiso   1.00
N689   N     0.10048   0.70682   0.92884   0.00000  Uiso   1.00
N690   N     0.76378   0.80632   0.02343   0.00000  Uiso   1.00
C691   C     0.37746   0.18350   0.37012   0.00000  Uiso   1.00
C692   C     0.36350   0.12344   0.38223   0.00000  Uiso   1.00
C693   C     0.34141   0.08564   0.34716   0.00000  Uiso   1.00
C694   C     0.33161   0.03270   0.36583   0.00000  Uiso   1.00
C695   C     0.30815   0.94166   0.37673   0.00000  Uiso   1.00
C696   C     0.43834   0.19063   0.38377   0.00000  Uiso   1.00
C697   C     0.47917   0.20933   0.34999   0.00000  Uiso   1.00
C698   C     0.53237   0.21296   0.36997   0.00000  Uiso   1.00
C699   C     0.62509   0.22627   0.38326   0.00000  Uiso   1.00
C700   C     0.34554   0.21805   0.40984   0.00000  Uiso   1.00
C701   C     0.30835   0.25981   0.39798   0.00000  Uiso   1.00
C702   C     0.28343   0.28653   0.43990   0.00000  Uiso   1.00
C703   C     0.23207   0.34240   0.49367   0.00000  Uiso   1.00
C704   C     0.39935   0.15670   0.46566   0.00000  Uiso   1.00
C705   C     0.37539   0.10889   0.43412   0.00000  Uiso   1.00
C706   C     0.36562   0.05599   0.45285   0.00000  Uiso   1.00
C707   C     0.34352   0.01812   0.41781   0.00000  Uiso   1.00
C708   C     0.45023   0.17608   0.43566   0.00000  Uiso   1.00
C709   C     0.50338   0.17968   0.45569   0.00000  Uiso   1.00
C710   C     0.54428   0.19838   0.42195   0.00000  Uiso   1.00
C711   C     0.35743   0.20349   0.46173   0.00000  Uiso   1.00
C712   C     0.33256   0.23015   0.50368   0.00000  Uiso   1.00
C713   C     0.29534   0.27194   0.49188   0.00000  Uiso   1.00
H714   H     0.36821   0.19483   0.32972   0.00000  Uiso   1.00
H715   H     0.33222   0.09692   0.30700   0.00000  Uiso   1.00
H716   H     0.46996   0.22060   0.30984   0.00000  Uiso   1.00
H717   H     0.29917   0.27106   0.35782   0.00000  Uiso   1.00
H718   H     0.29758   0.98195   0.30469   0.00000  Uiso   1.00
H719   H     0.58800   0.24275   0.31067   0.00000  Uiso   1.00
H720   H     0.22785   0.34916   0.41185   0.00000  Uiso   1.00
H721   H     0.40860   0.14536   0.50606   0.00000  Uiso   1.00
H722   H     0.37483   0.04473   0.49301   0.00000  Uiso   1.00
H723   H     0.51256   0.16841   0.49585   0.00000  Uiso   1.00
H724   H     0.34177   0.21888   0.54383   0.00000  Uiso   1.00
H725   H     0.33216   0.93959   0.45566   0.00000  Uiso   1.00
H726   H     0.62258   0.20039   0.46165   0.00000  Uiso   1.00
H727   H     0.26244   0.30680   0.56282   0.00000  Uiso   1.00
O728   O     0.29194   0.89546   0.36840   0.00000  Uiso   1.00
O729   O     0.67296   0.23763   0.37626   0.00000  Uiso   1.00
O730   O     0.20045   0.37724   0.50900   0.00000  Uiso   1.00
N731   N     0.31034   0.98579   0.34201   0.00000  Uiso   1.00
N732   N     0.58187   0.22962   0.34761   0.00000  Uiso   1.00
N733   N     0.24518   0.32911   0.44219   0.00000  Uiso   1.00
N734   N     0.32895   0.96300   0.42325   0.00000  Uiso   1.00
N735   N     0.60048   0.20682   0.42884   0.00000  Uiso   1.00
N736   N     0.26378   0.30632   0.52343   0.00000  Uiso   1.00
