data_job_05242
_audit_creation_date              2018-12-19
_audit_creation_method            'Materials Studio'
_symmetry_space_group_name_H-M    'P1'
_symmetry_Int_Tables_number       1
_symmetry_cell_setting            triclinic
loop_
_symmetry_equiv_pos_as_xyz
  x,y,z
_cell_length_a                    22.0915
_cell_length_b                    33.9425
_cell_length_c                    17.5289
_cell_angle_alpha                 90.0000
_cell_angle_beta                  90.0000
_cell_angle_gamma                 90.0000
loop_
_atom_site_label
_atom_site_type_symbol
_atom_site_fract_x
_atom_site_fract_y
_atom_site_fract_z
_atom_site_U_iso_or_equiv
_atom_site_adp_type
_atom_site_occupancy
C1     C     0.93636   0.07893   0.12402   0.00000  Uiso   1.00
C2     C     0.90839   0.06403   0.04990   0.00000  Uiso   1.00
C3     C     0.88930   0.02576   0.03592   0.00000  Uiso   1.00
C4     C     0.86492   0.01804   0.96446   0.00000  Uiso   1.00
C5     C     0.82224   0.99043   0.85781   0.00000  Uiso   1.00
C6     C     0.89693   0.11329   0.14996   0.00000  Uiso   1.00
C7     C     0.86820   0.11643   0.22011   0.00000  Uiso   1.00
C8     C     0.83418   0.15018   0.23288   0.00000  Uiso   1.00
C9     C     0.77374   0.19904   0.28160   0.00000  Uiso   1.00
C10    C     0.99734   0.09673   0.10228   0.00000  Uiso   1.00
C11    C     0.05305   0.08595   0.13235   0.00000  Uiso   1.00
C12    C     0.10356   0.10577   0.10500   0.00000  Uiso   1.00
C13    C     0.19903   0.12892   0.07968   0.00000  Uiso   1.00
C14    C     0.92701   0.13330   0.02198   0.00000  Uiso   1.00
C15    C     0.90332   0.09357   0.99448   0.00000  Uiso   1.00
C16    C     0.87896   0.08591   0.92302   0.00000  Uiso   1.00
C17    C     0.85984   0.04763   0.90893   0.00000  Uiso   1.00
C18    C     0.89185   0.14282   0.09454   0.00000  Uiso   1.00
C19    C     0.85787   0.17658   0.10721   0.00000  Uiso   1.00
C20    C     0.82909   0.17976   0.17736   0.00000  Uiso   1.00
C21    C     0.99227   0.12626   0.04685   0.00000  Uiso   1.00
C22    C     0.04271   0.14610   0.01945   0.00000  Uiso   1.00
C23    C     0.09848   0.13536   0.04947   0.00000  Uiso   1.00
H24    H     0.94031   0.05594   0.16718   0.00000  Uiso   1.00
H25    H     0.89323   0.00291   0.07883   0.00000  Uiso   1.00
H26    H     0.87214   0.09357   0.26299   0.00000  Uiso   1.00
H27    H     0.05695   0.06310   0.17524   0.00000  Uiso   1.00
H28    H     0.83878   0.95715   0.95645   0.00000  Uiso   1.00
H29    H     0.79433   0.14831   0.34478   0.00000  Uiso   1.00
H30    H     0.18404   0.08405   0.15975   0.00000  Uiso   1.00
H31    H     0.92306   0.15629   0.97882   0.00000  Uiso   1.00
H32    H     0.87504   0.10877   0.88014   0.00000  Uiso   1.00
H33    H     0.85395   0.19942   0.06430   0.00000  Uiso   1.00
H34    H     0.03876   0.16895   0.97656   0.00000  Uiso   1.00
H35    H     0.82401   0.04306   0.79518   0.00000  Uiso   1.00
H36    H     0.77957   0.23423   0.18352   0.00000  Uiso   1.00
H37    H     0.16928   0.16997   0.99848   0.00000  Uiso   1.00
O38    O     0.80009   0.96704   0.81430   0.00000  Uiso   1.00
O39    O     0.74180   0.21783   0.32378   0.00000  Uiso   1.00
O40    O     0.25309   0.13353   0.08102   0.00000  Uiso   1.00
N41    N     0.84190   0.98389   0.93203   0.00000  Uiso   1.00
N42    N     0.80034   0.16261   0.29509   0.00000  Uiso   1.00
N43    N     0.16469   0.10254   0.12212   0.00000  Uiso   1.00
N44    N     0.83396   0.03012   0.84526   0.00000  Uiso   1.00
N45    N     0.79240   0.20884   0.20832   0.00000  Uiso   1.00
N46    N     0.15674   0.14877   0.03534   0.00000  Uiso   1.00
C47    C     0.43636   0.57893   0.62402   0.00000  Uiso   1.00
C48    C     0.40839   0.56403   0.54990   0.00000  Uiso   1.00
C49    C     0.38930   0.52576   0.53592   0.00000  Uiso   1.00
C50    C     0.36492   0.51804   0.46446   0.00000  Uiso   1.00
C51    C     0.32224   0.49043   0.35781   0.00000  Uiso   1.00
C52    C     0.39693   0.61329   0.64996   0.00000  Uiso   1.00
C53    C     0.36820   0.61643   0.72011   0.00000  Uiso   1.00
C54    C     0.33418   0.65018   0.73288   0.00000  Uiso   1.00
C55    C     0.27374   0.69904   0.78160   0.00000  Uiso   1.00
C56    C     0.49734   0.59673   0.60228   0.00000  Uiso   1.00
C57    C     0.55305   0.58595   0.63235   0.00000  Uiso   1.00
C58    C     0.60356   0.60577   0.60500   0.00000  Uiso   1.00
C59    C     0.69903   0.62892   0.57968   0.00000  Uiso   1.00
C60    C     0.42701   0.63330   0.52198   0.00000  Uiso   1.00
C61    C     0.40332   0.59357   0.49448   0.00000  Uiso   1.00
C62    C     0.37896   0.58591   0.42302   0.00000  Uiso   1.00
C63    C     0.35984   0.54763   0.40893   0.00000  Uiso   1.00
C64    C     0.39185   0.64282   0.59454   0.00000  Uiso   1.00
C65    C     0.35787   0.67658   0.60721   0.00000  Uiso   1.00
C66    C     0.32909   0.67976   0.67736   0.00000  Uiso   1.00
C67    C     0.49227   0.62626   0.54685   0.00000  Uiso   1.00
C68    C     0.54271   0.64610   0.51945   0.00000  Uiso   1.00
C69    C     0.59848   0.63536   0.54947   0.00000  Uiso   1.00
H70    H     0.44031   0.55594   0.66718   0.00000  Uiso   1.00
H71    H     0.39323   0.50291   0.57883   0.00000  Uiso   1.00
H72    H     0.37214   0.59357   0.76299   0.00000  Uiso   1.00
H73    H     0.55695   0.56310   0.67524   0.00000  Uiso   1.00
H74    H     0.33878   0.45715   0.45645   0.00000  Uiso   1.00
H75    H     0.29433   0.64831   0.84478   0.00000  Uiso   1.00
H76    H     0.68404   0.58405   0.65975   0.00000  Uiso   1.00
H77    H     0.42306   0.65629   0.47882   0.00000  Uiso   1.00
H78    H     0.37504   0.60877   0.38014   0.00000  Uiso   1.00
H79    H     0.35395   0.69942   0.56430   0.00000  Uiso   1.00
H80    H     0.53876   0.66895   0.47656   0.00000  Uiso   1.00
H81    H     0.32401   0.54306   0.29518   0.00000  Uiso   1.00
H82    H     0.27957   0.73423   0.68352   0.00000  Uiso   1.00
H83    H     0.66928   0.66997   0.49848   0.00000  Uiso   1.00
O84    O     0.30009   0.46704   0.31430   0.00000  Uiso   1.00
O85    O     0.24180   0.71783   0.82378   0.00000  Uiso   1.00
O86    O     0.75309   0.63353   0.58102   0.00000  Uiso   1.00
N87    N     0.34190   0.48389   0.43203   0.00000  Uiso   1.00
N88    N     0.30034   0.66261   0.79509   0.00000  Uiso   1.00
N89    N     0.66469   0.60254   0.62212   0.00000  Uiso   1.00
N90    N     0.33396   0.53012   0.34526   0.00000  Uiso   1.00
N91    N     0.29240   0.70884   0.70832   0.00000  Uiso   1.00
N92    N     0.65674   0.64877   0.53534   0.00000  Uiso   1.00
C93    C     0.56364   0.92107   0.62402   0.00000  Uiso   1.00
C94    C     0.59161   0.93597   0.54990   0.00000  Uiso   1.00
C95    C     0.61070   0.97424   0.53592   0.00000  Uiso   1.00
C96    C     0.63508   0.98196   0.46446   0.00000  Uiso   1.00
C97    C     0.67776   0.00957   0.35781   0.00000  Uiso   1.00
C98    C     0.60307   0.88671   0.64996   0.00000  Uiso   1.00
C99    C     0.63180   0.88357   0.72011   0.00000  Uiso   1.00
C100   C     0.66582   0.84982   0.73288   0.00000  Uiso   1.00
C101   C     0.72626   0.80096   0.78160   0.00000  Uiso   1.00
C102   C     0.50266   0.90327   0.60228   0.00000  Uiso   1.00
C103   C     0.44695   0.91405   0.63235   0.00000  Uiso   1.00
C104   C     0.39644   0.89423   0.60500   0.00000  Uiso   1.00
C105   C     0.30097   0.87108   0.57968   0.00000  Uiso   1.00
C106   C     0.57299   0.86670   0.52198   0.00000  Uiso   1.00
C107   C     0.59668   0.90643   0.49448   0.00000  Uiso   1.00
C108   C     0.62104   0.91409   0.42302   0.00000  Uiso   1.00
C109   C     0.64016   0.95237   0.40893   0.00000  Uiso   1.00
C110   C     0.60815   0.85718   0.59454   0.00000  Uiso   1.00
C111   C     0.64213   0.82342   0.60721   0.00000  Uiso   1.00
C112   C     0.67091   0.82024   0.67736   0.00000  Uiso   1.00
C113   C     0.50773   0.87374   0.54685   0.00000  Uiso   1.00
C114   C     0.45729   0.85390   0.51945   0.00000  Uiso   1.00
C115   C     0.40152   0.86464   0.54947   0.00000  Uiso   1.00
H116   H     0.55969   0.94406   0.66718   0.00000  Uiso   1.00
H117   H     0.60677   0.99709   0.57883   0.00000  Uiso   1.00
H118   H     0.62786   0.90643   0.76299   0.00000  Uiso   1.00
H119   H     0.44305   0.93690   0.67524   0.00000  Uiso   1.00
H120   H     0.66122   0.04285   0.45645   0.00000  Uiso   1.00
H121   H     0.70567   0.85169   0.84478   0.00000  Uiso   1.00
H122   H     0.31596   0.91595   0.65975   0.00000  Uiso   1.00
H123   H     0.57694   0.84371   0.47882   0.00000  Uiso   1.00
H124   H     0.62496   0.89123   0.38014   0.00000  Uiso   1.00
H125   H     0.64605   0.80058   0.56430   0.00000  Uiso   1.00
H126   H     0.46124   0.83105   0.47656   0.00000  Uiso   1.00
H127   H     0.67599   0.95694   0.29518   0.00000  Uiso   1.00
H128   H     0.72043   0.76577   0.68352   0.00000  Uiso   1.00
H129   H     0.33072   0.83003   0.49848   0.00000  Uiso   1.00
O130   O     0.69991   0.03296   0.31430   0.00000  Uiso   1.00
O131   O     0.75820   0.78217   0.82378   0.00000  Uiso   1.00
O132   O     0.24691   0.86647   0.58102   0.00000  Uiso   1.00
N133   N     0.65810   0.01611   0.43203   0.00000  Uiso   1.00
N134   N     0.69966   0.83739   0.79509   0.00000  Uiso   1.00
N135   N     0.33531   0.89746   0.62212   0.00000  Uiso   1.00
N136   N     0.66604   0.96988   0.34526   0.00000  Uiso   1.00
N137   N     0.70760   0.79116   0.70832   0.00000  Uiso   1.00
N138   N     0.34326   0.85123   0.53534   0.00000  Uiso   1.00
C139   C     0.06364   0.42107   0.12402   0.00000  Uiso   1.00
C140   C     0.09161   0.43597   0.04990   0.00000  Uiso   1.00
C141   C     0.11070   0.47424   0.03592   0.00000  Uiso   1.00
C142   C     0.13508   0.48196   0.96446   0.00000  Uiso   1.00
C143   C     0.17776   0.50957   0.85781   0.00000  Uiso   1.00
C144   C     0.10307   0.38671   0.14996   0.00000  Uiso   1.00
C145   C     0.13180   0.38357   0.22011   0.00000  Uiso   1.00
C146   C     0.16582   0.34982   0.23288   0.00000  Uiso   1.00
C147   C     0.22626   0.30096   0.28160   0.00000  Uiso   1.00
C148   C     0.00266   0.40327   0.10228   0.00000  Uiso   1.00
C149   C     0.94695   0.41405   0.13235   0.00000  Uiso   1.00
C150   C     0.89644   0.39423   0.10500   0.00000  Uiso   1.00
C151   C     0.80097   0.37108   0.07968   0.00000  Uiso   1.00
C152   C     0.07299   0.36670   0.02198   0.00000  Uiso   1.00
C153   C     0.09668   0.40643   0.99448   0.00000  Uiso   1.00
C154   C     0.12104   0.41409   0.92302   0.00000  Uiso   1.00
C155   C     0.14016   0.45237   0.90893   0.00000  Uiso   1.00
C156   C     0.10815   0.35718   0.09454   0.00000  Uiso   1.00
C157   C     0.14213   0.32342   0.10721   0.00000  Uiso   1.00
C158   C     0.17091   0.32024   0.17736   0.00000  Uiso   1.00
C159   C     0.00773   0.37374   0.04685   0.00000  Uiso   1.00
C160   C     0.95729   0.35390   0.01945   0.00000  Uiso   1.00
C161   C     0.90152   0.36464   0.04947   0.00000  Uiso   1.00
H162   H     0.05969   0.44406   0.16718   0.00000  Uiso   1.00
H163   H     0.10677   0.49709   0.07883   0.00000  Uiso   1.00
H164   H     0.12786   0.40643   0.26299   0.00000  Uiso   1.00
H165   H     0.94305   0.43690   0.17524   0.00000  Uiso   1.00
H166   H     0.16122   0.54285   0.95645   0.00000  Uiso   1.00
H167   H     0.20567   0.35169   0.34478   0.00000  Uiso   1.00
H168   H     0.81596   0.41595   0.15975   0.00000  Uiso   1.00
H169   H     0.07694   0.34371   0.97882   0.00000  Uiso   1.00
H170   H     0.12496   0.39123   0.88014   0.00000  Uiso   1.00
H171   H     0.14605   0.30058   0.06430   0.00000  Uiso   1.00
H172   H     0.96124   0.33105   0.97656   0.00000  Uiso   1.00
H173   H     0.17599   0.45694   0.79518   0.00000  Uiso   1.00
H174   H     0.22043   0.26577   0.18352   0.00000  Uiso   1.00
H175   H     0.83072   0.33003   0.99848   0.00000  Uiso   1.00
O176   O     0.19991   0.53296   0.81430   0.00000  Uiso   1.00
O177   O     0.25820   0.28217   0.32378   0.00000  Uiso   1.00
O178   O     0.74691   0.36647   0.08102   0.00000  Uiso   1.00
N179   N     0.15810   0.51611   0.93203   0.00000  Uiso   1.00
N180   N     0.19966   0.33739   0.29509   0.00000  Uiso   1.00
N181   N     0.83531   0.39746   0.12212   0.00000  Uiso   1.00
N182   N     0.16604   0.46988   0.84526   0.00000  Uiso   1.00
N183   N     0.20760   0.29116   0.20832   0.00000  Uiso   1.00
N184   N     0.84326   0.35123   0.03534   0.00000  Uiso   1.00
C185   C     0.06364   0.57893   0.37598   0.00000  Uiso   1.00
C186   C     0.09161   0.56403   0.45010   0.00000  Uiso   1.00
C187   C     0.11070   0.52576   0.46408   0.00000  Uiso   1.00
C188   C     0.13508   0.51804   0.53554   0.00000  Uiso   1.00
C189   C     0.17776   0.49043   0.64219   0.00000  Uiso   1.00
C190   C     0.10307   0.61329   0.35004   0.00000  Uiso   1.00
C191   C     0.13180   0.61643   0.27989   0.00000  Uiso   1.00
C192   C     0.16582   0.65018   0.26712   0.00000  Uiso   1.00
C193   C     0.22626   0.69904   0.21840   0.00000  Uiso   1.00
C194   C     0.00266   0.59673   0.39772   0.00000  Uiso   1.00
C195   C     0.94695   0.58595   0.36765   0.00000  Uiso   1.00
C196   C     0.89644   0.60577   0.39500   0.00000  Uiso   1.00
C197   C     0.80097   0.62892   0.42032   0.00000  Uiso   1.00
C198   C     0.07299   0.63330   0.47802   0.00000  Uiso   1.00
C199   C     0.09668   0.59357   0.50552   0.00000  Uiso   1.00
C200   C     0.12104   0.58591   0.57698   0.00000  Uiso   1.00
C201   C     0.14016   0.54763   0.59107   0.00000  Uiso   1.00
C202   C     0.10815   0.64282   0.40546   0.00000  Uiso   1.00
C203   C     0.14213   0.67658   0.39279   0.00000  Uiso   1.00
C204   C     0.17091   0.67976   0.32264   0.00000  Uiso   1.00
C205   C     0.00773   0.62626   0.45315   0.00000  Uiso   1.00
C206   C     0.95729   0.64610   0.48055   0.00000  Uiso   1.00
C207   C     0.90152   0.63536   0.45053   0.00000  Uiso   1.00
H208   H     0.05969   0.55594   0.33282   0.00000  Uiso   1.00
H209   H     0.10677   0.50291   0.42117   0.00000  Uiso   1.00
H210   H     0.12786   0.59357   0.23701   0.00000  Uiso   1.00
H211   H     0.94305   0.56310   0.32476   0.00000  Uiso   1.00
H212   H     0.16122   0.45715   0.54355   0.00000  Uiso   1.00
H213   H     0.20567   0.64831   0.15522   0.00000  Uiso   1.00
H214   H     0.81596   0.58405   0.34025   0.00000  Uiso   1.00
H215   H     0.07694   0.65629   0.52118   0.00000  Uiso   1.00
H216   H     0.12496   0.60877   0.61986   0.00000  Uiso   1.00
H217   H     0.14605   0.69942   0.43570   0.00000  Uiso   1.00
H218   H     0.96124   0.66895   0.52344   0.00000  Uiso   1.00
H219   H     0.17599   0.54306   0.70482   0.00000  Uiso   1.00
H220   H     0.22043   0.73423   0.31648   0.00000  Uiso   1.00
H221   H     0.83072   0.66997   0.50152   0.00000  Uiso   1.00
O222   O     0.19991   0.46704   0.68570   0.00000  Uiso   1.00
O223   O     0.25820   0.71783   0.17622   0.00000  Uiso   1.00
O224   O     0.74691   0.63353   0.41898   0.00000  Uiso   1.00
N225   N     0.15810   0.48389   0.56797   0.00000  Uiso   1.00
N226   N     0.19966   0.66261   0.20491   0.00000  Uiso   1.00
N227   N     0.83531   0.60254   0.37788   0.00000  Uiso   1.00
N228   N     0.16604   0.53012   0.65474   0.00000  Uiso   1.00
N229   N     0.20760   0.70884   0.29168   0.00000  Uiso   1.00
N230   N     0.84326   0.64877   0.46466   0.00000  Uiso   1.00
C231   C     0.56364   0.07893   0.87598   0.00000  Uiso   1.00
C232   C     0.59161   0.06403   0.95010   0.00000  Uiso   1.00
C233   C     0.61070   0.02576   0.96408   0.00000  Uiso   1.00
C234   C     0.63508   0.01804   0.03554   0.00000  Uiso   1.00
C235   C     0.67776   0.99043   0.14219   0.00000  Uiso   1.00
C236   C     0.60307   0.11329   0.85004   0.00000  Uiso   1.00
C237   C     0.63180   0.11643   0.77989   0.00000  Uiso   1.00
C238   C     0.66582   0.15018   0.76712   0.00000  Uiso   1.00
C239   C     0.72626   0.19904   0.71840   0.00000  Uiso   1.00
C240   C     0.50266   0.09673   0.89772   0.00000  Uiso   1.00
C241   C     0.44695   0.08595   0.86765   0.00000  Uiso   1.00
C242   C     0.39644   0.10577   0.89500   0.00000  Uiso   1.00
C243   C     0.30097   0.12892   0.92032   0.00000  Uiso   1.00
C244   C     0.57299   0.13330   0.97802   0.00000  Uiso   1.00
C245   C     0.59668   0.09357   0.00552   0.00000  Uiso   1.00
C246   C     0.62104   0.08591   0.07698   0.00000  Uiso   1.00
C247   C     0.64016   0.04763   0.09107   0.00000  Uiso   1.00
C248   C     0.60815   0.14282   0.90546   0.00000  Uiso   1.00
C249   C     0.64213   0.17658   0.89279   0.00000  Uiso   1.00
C250   C     0.67091   0.17976   0.82264   0.00000  Uiso   1.00
C251   C     0.50773   0.12626   0.95315   0.00000  Uiso   1.00
C252   C     0.45729   0.14610   0.98055   0.00000  Uiso   1.00
C253   C     0.40152   0.13536   0.95053   0.00000  Uiso   1.00
H254   H     0.55969   0.05594   0.83282   0.00000  Uiso   1.00
H255   H     0.60677   0.00291   0.92117   0.00000  Uiso   1.00
H256   H     0.62786   0.09357   0.73701   0.00000  Uiso   1.00
H257   H     0.44305   0.06310   0.82476   0.00000  Uiso   1.00
H258   H     0.66122   0.95715   0.04355   0.00000  Uiso   1.00
H259   H     0.70567   0.14831   0.65522   0.00000  Uiso   1.00
H260   H     0.31596   0.08405   0.84025   0.00000  Uiso   1.00
H261   H     0.57694   0.15629   0.02118   0.00000  Uiso   1.00
H262   H     0.62496   0.10877   0.11986   0.00000  Uiso   1.00
H263   H     0.64605   0.19942   0.93570   0.00000  Uiso   1.00
H264   H     0.46124   0.16895   0.02344   0.00000  Uiso   1.00
H265   H     0.67599   0.04306   0.20482   0.00000  Uiso   1.00
H266   H     0.72043   0.23423   0.81648   0.00000  Uiso   1.00
H267   H     0.33072   0.16997   0.00152   0.00000  Uiso   1.00
O268   O     0.69991   0.96704   0.18570   0.00000  Uiso   1.00
O269   O     0.75820   0.21783   0.67622   0.00000  Uiso   1.00
O270   O     0.24691   0.13353   0.91898   0.00000  Uiso   1.00
N271   N     0.65810   0.98389   0.06797   0.00000  Uiso   1.00
N272   N     0.69966   0.16261   0.70491   0.00000  Uiso   1.00
N273   N     0.33531   0.10254   0.87788   0.00000  Uiso   1.00
N274   N     0.66604   0.03012   0.15474   0.00000  Uiso   1.00
N275   N     0.70760   0.20884   0.79168   0.00000  Uiso   1.00
N276   N     0.34326   0.14877   0.96466   0.00000  Uiso   1.00
C277   C     0.43636   0.42107   0.87598   0.00000  Uiso   1.00
C278   C     0.40839   0.43597   0.95010   0.00000  Uiso   1.00
C279   C     0.38930   0.47424   0.96408   0.00000  Uiso   1.00
C280   C     0.36492   0.48196   0.03554   0.00000  Uiso   1.00
C281   C     0.32224   0.50957   0.14219   0.00000  Uiso   1.00
C282   C     0.39693   0.38671   0.85004   0.00000  Uiso   1.00
C283   C     0.36820   0.38357   0.77989   0.00000  Uiso   1.00
C284   C     0.33418   0.34982   0.76712   0.00000  Uiso   1.00
C285   C     0.27374   0.30096   0.71840   0.00000  Uiso   1.00
C286   C     0.49734   0.40327   0.89772   0.00000  Uiso   1.00
C287   C     0.55305   0.41405   0.86765   0.00000  Uiso   1.00
C288   C     0.60356   0.39423   0.89500   0.00000  Uiso   1.00
C289   C     0.69903   0.37108   0.92032   0.00000  Uiso   1.00
C290   C     0.42701   0.36670   0.97802   0.00000  Uiso   1.00
C291   C     0.40332   0.40643   0.00552   0.00000  Uiso   1.00
C292   C     0.37896   0.41409   0.07698   0.00000  Uiso   1.00
C293   C     0.35984   0.45237   0.09107   0.00000  Uiso   1.00
C294   C     0.39185   0.35718   0.90546   0.00000  Uiso   1.00
C295   C     0.35787   0.32342   0.89279   0.00000  Uiso   1.00
C296   C     0.32909   0.32024   0.82264   0.00000  Uiso   1.00
C297   C     0.49227   0.37374   0.95315   0.00000  Uiso   1.00
C298   C     0.54271   0.35390   0.98055   0.00000  Uiso   1.00
C299   C     0.59848   0.36464   0.95053   0.00000  Uiso   1.00
H300   H     0.44031   0.44406   0.83282   0.00000  Uiso   1.00
H301   H     0.39323   0.49709   0.92117   0.00000  Uiso   1.00
H302   H     0.37214   0.40643   0.73701   0.00000  Uiso   1.00
H303   H     0.55695   0.43690   0.82476   0.00000  Uiso   1.00
H304   H     0.33878   0.54285   0.04355   0.00000  Uiso   1.00
H305   H     0.29433   0.35169   0.65522   0.00000  Uiso   1.00
H306   H     0.68404   0.41595   0.84025   0.00000  Uiso   1.00
H307   H     0.42306   0.34371   0.02118   0.00000  Uiso   1.00
H308   H     0.37504   0.39123   0.11986   0.00000  Uiso   1.00
H309   H     0.35395   0.30058   0.93570   0.00000  Uiso   1.00
H310   H     0.53876   0.33105   0.02344   0.00000  Uiso   1.00
H311   H     0.32401   0.45694   0.20482   0.00000  Uiso   1.00
H312   H     0.27957   0.26577   0.81648   0.00000  Uiso   1.00
H313   H     0.66928   0.33003   0.00152   0.00000  Uiso   1.00
O314   O     0.30009   0.53296   0.18570   0.00000  Uiso   1.00
O315   O     0.24180   0.28217   0.67622   0.00000  Uiso   1.00
O316   O     0.75309   0.36647   0.91898   0.00000  Uiso   1.00
N317   N     0.34190   0.51611   0.06797   0.00000  Uiso   1.00
N318   N     0.30034   0.33739   0.70491   0.00000  Uiso   1.00
N319   N     0.66469   0.39746   0.87788   0.00000  Uiso   1.00
N320   N     0.33396   0.46988   0.15474   0.00000  Uiso   1.00
N321   N     0.29240   0.29116   0.79168   0.00000  Uiso   1.00
N322   N     0.65674   0.35123   0.96466   0.00000  Uiso   1.00
C323   C     0.93636   0.92107   0.37598   0.00000  Uiso   1.00
C324   C     0.90839   0.93597   0.45010   0.00000  Uiso   1.00
C325   C     0.88930   0.97424   0.46408   0.00000  Uiso   1.00
C326   C     0.86492   0.98196   0.53554   0.00000  Uiso   1.00
C327   C     0.82224   0.00957   0.64219   0.00000  Uiso   1.00
C328   C     0.89693   0.88671   0.35004   0.00000  Uiso   1.00
C329   C     0.86820   0.88357   0.27989   0.00000  Uiso   1.00
C330   C     0.83418   0.84982   0.26712   0.00000  Uiso   1.00
C331   C     0.77374   0.80096   0.21840   0.00000  Uiso   1.00
C332   C     0.99734   0.90327   0.39772   0.00000  Uiso   1.00
C333   C     0.05305   0.91405   0.36765   0.00000  Uiso   1.00
C334   C     0.10356   0.89423   0.39500   0.00000  Uiso   1.00
C335   C     0.19903   0.87108   0.42032   0.00000  Uiso   1.00
C336   C     0.92701   0.86670   0.47802   0.00000  Uiso   1.00
C337   C     0.90332   0.90643   0.50552   0.00000  Uiso   1.00
C338   C     0.87896   0.91409   0.57698   0.00000  Uiso   1.00
C339   C     0.85984   0.95237   0.59107   0.00000  Uiso   1.00
C340   C     0.89185   0.85718   0.40546   0.00000  Uiso   1.00
C341   C     0.85787   0.82342   0.39279   0.00000  Uiso   1.00
C342   C     0.82909   0.82024   0.32264   0.00000  Uiso   1.00
C343   C     0.99227   0.87374   0.45315   0.00000  Uiso   1.00
C344   C     0.04271   0.85390   0.48055   0.00000  Uiso   1.00
C345   C     0.09848   0.86464   0.45053   0.00000  Uiso   1.00
H346   H     0.94031   0.94406   0.33282   0.00000  Uiso   1.00
H347   H     0.89323   0.99709   0.42117   0.00000  Uiso   1.00
H348   H     0.87214   0.90643   0.23701   0.00000  Uiso   1.00
H349   H     0.05695   0.93690   0.32476   0.00000  Uiso   1.00
H350   H     0.83878   0.04285   0.54355   0.00000  Uiso   1.00
H351   H     0.79433   0.85169   0.15522   0.00000  Uiso   1.00
H352   H     0.18404   0.91595   0.34025   0.00000  Uiso   1.00
H353   H     0.92306   0.84371   0.52118   0.00000  Uiso   1.00
H354   H     0.87504   0.89123   0.61986   0.00000  Uiso   1.00
H355   H     0.85395   0.80058   0.43570   0.00000  Uiso   1.00
H356   H     0.03876   0.83105   0.52344   0.00000  Uiso   1.00
H357   H     0.82401   0.95694   0.70482   0.00000  Uiso   1.00
H358   H     0.77957   0.76577   0.31648   0.00000  Uiso   1.00
H359   H     0.16928   0.83003   0.50152   0.00000  Uiso   1.00
O360   O     0.80009   0.03296   0.68570   0.00000  Uiso   1.00
O361   O     0.74180   0.78217   0.17622   0.00000  Uiso   1.00
O362   O     0.25309   0.86647   0.41898   0.00000  Uiso   1.00
N363   N     0.84190   0.01611   0.56797   0.00000  Uiso   1.00
N364   N     0.80034   0.83739   0.20491   0.00000  Uiso   1.00
N365   N     0.16469   0.89746   0.37788   0.00000  Uiso   1.00
N366   N     0.83396   0.96988   0.65474   0.00000  Uiso   1.00
N367   N     0.79240   0.79116   0.29168   0.00000  Uiso   1.00
N368   N     0.15674   0.85123   0.46466   0.00000  Uiso   1.00
C369   C     0.06364   0.92107   0.87598   0.00000  Uiso   1.00
C370   C     0.09161   0.93597   0.95010   0.00000  Uiso   1.00
C371   C     0.11070   0.97424   0.96408   0.00000  Uiso   1.00
C372   C     0.13508   0.98196   0.03554   0.00000  Uiso   1.00
C373   C     0.17776   0.00957   0.14219   0.00000  Uiso   1.00
C374   C     0.10307   0.88671   0.85004   0.00000  Uiso   1.00
C375   C     0.13180   0.88357   0.77989   0.00000  Uiso   1.00
C376   C     0.16582   0.84982   0.76712   0.00000  Uiso   1.00
C377   C     0.22626   0.80096   0.71840   0.00000  Uiso   1.00
C378   C     0.00266   0.90327   0.89772   0.00000  Uiso   1.00
C379   C     0.94695   0.91405   0.86765   0.00000  Uiso   1.00
C380   C     0.89644   0.89423   0.89500   0.00000  Uiso   1.00
C381   C     0.80097   0.87108   0.92032   0.00000  Uiso   1.00
C382   C     0.07299   0.86670   0.97802   0.00000  Uiso   1.00
C383   C     0.09668   0.90643   0.00552   0.00000  Uiso   1.00
C384   C     0.12104   0.91409   0.07698   0.00000  Uiso   1.00
C385   C     0.14016   0.95237   0.09107   0.00000  Uiso   1.00
C386   C     0.10815   0.85718   0.90546   0.00000  Uiso   1.00
C387   C     0.14213   0.82342   0.89279   0.00000  Uiso   1.00
C388   C     0.17091   0.82024   0.82264   0.00000  Uiso   1.00
C389   C     0.00773   0.87374   0.95315   0.00000  Uiso   1.00
C390   C     0.95729   0.85390   0.98055   0.00000  Uiso   1.00
C391   C     0.90152   0.86464   0.95053   0.00000  Uiso   1.00
H392   H     0.05969   0.94406   0.83282   0.00000  Uiso   1.00
H393   H     0.10677   0.99709   0.92117   0.00000  Uiso   1.00
H394   H     0.12786   0.90643   0.73701   0.00000  Uiso   1.00
H395   H     0.94305   0.93690   0.82476   0.00000  Uiso   1.00
H396   H     0.16122   0.04285   0.04355   0.00000  Uiso   1.00
H397   H     0.20567   0.85169   0.65522   0.00000  Uiso   1.00
H398   H     0.81596   0.91595   0.84025   0.00000  Uiso   1.00
H399   H     0.07694   0.84371   0.02118   0.00000  Uiso   1.00
H400   H     0.12496   0.89123   0.11986   0.00000  Uiso   1.00
H401   H     0.14605   0.80058   0.93570   0.00000  Uiso   1.00
H402   H     0.96124   0.83105   0.02344   0.00000  Uiso   1.00
H403   H     0.17599   0.95694   0.20482   0.00000  Uiso   1.00
H404   H     0.22043   0.76577   0.81648   0.00000  Uiso   1.00
H405   H     0.83072   0.83003   0.00152   0.00000  Uiso   1.00
O406   O     0.19991   0.03296   0.18570   0.00000  Uiso   1.00
O407   O     0.25820   0.78217   0.67622   0.00000  Uiso   1.00
O408   O     0.74691   0.86647   0.91898   0.00000  Uiso   1.00
N409   N     0.15810   0.01611   0.06797   0.00000  Uiso   1.00
N410   N     0.19966   0.83739   0.70491   0.00000  Uiso   1.00
N411   N     0.83531   0.89746   0.87788   0.00000  Uiso   1.00
N412   N     0.16604   0.96988   0.15474   0.00000  Uiso   1.00
N413   N     0.20760   0.79116   0.79168   0.00000  Uiso   1.00
N414   N     0.84326   0.85123   0.96466   0.00000  Uiso   1.00
C415   C     0.56364   0.42107   0.37598   0.00000  Uiso   1.00
C416   C     0.59161   0.43597   0.45010   0.00000  Uiso   1.00
C417   C     0.61070   0.47424   0.46408   0.00000  Uiso   1.00
C418   C     0.63508   0.48196   0.53554   0.00000  Uiso   1.00
C419   C     0.67776   0.50957   0.64219   0.00000  Uiso   1.00
C420   C     0.60307   0.38671   0.35004   0.00000  Uiso   1.00
C421   C     0.63180   0.38357   0.27989   0.00000  Uiso   1.00
C422   C     0.66582   0.34982   0.26712   0.00000  Uiso   1.00
C423   C     0.72626   0.30096   0.21840   0.00000  Uiso   1.00
C424   C     0.50266   0.40327   0.39772   0.00000  Uiso   1.00
C425   C     0.44695   0.41405   0.36765   0.00000  Uiso   1.00
C426   C     0.39644   0.39423   0.39500   0.00000  Uiso   1.00
C427   C     0.30097   0.37108   0.42032   0.00000  Uiso   1.00
C428   C     0.57299   0.36670   0.47802   0.00000  Uiso   1.00
C429   C     0.59668   0.40643   0.50552   0.00000  Uiso   1.00
C430   C     0.62104   0.41409   0.57698   0.00000  Uiso   1.00
C431   C     0.64016   0.45237   0.59107   0.00000  Uiso   1.00
C432   C     0.60815   0.35718   0.40546   0.00000  Uiso   1.00
C433   C     0.64213   0.32342   0.39279   0.00000  Uiso   1.00
C434   C     0.67091   0.32024   0.32264   0.00000  Uiso   1.00
C435   C     0.50773   0.37374   0.45315   0.00000  Uiso   1.00
C436   C     0.45729   0.35390   0.48055   0.00000  Uiso   1.00
C437   C     0.40152   0.36464   0.45053   0.00000  Uiso   1.00
H438   H     0.55969   0.44406   0.33282   0.00000  Uiso   1.00
H439   H     0.60677   0.49709   0.42117   0.00000  Uiso   1.00
H440   H     0.62786   0.40643   0.23701   0.00000  Uiso   1.00
H441   H     0.44305   0.43690   0.32476   0.00000  Uiso   1.00
H442   H     0.66122   0.54285   0.54355   0.00000  Uiso   1.00
H443   H     0.70567   0.35169   0.15522   0.00000  Uiso   1.00
H444   H     0.31596   0.41595   0.34025   0.00000  Uiso   1.00
H445   H     0.57694   0.34371   0.52118   0.00000  Uiso   1.00
H446   H     0.62496   0.39123   0.61986   0.00000  Uiso   1.00
H447   H     0.64605   0.30058   0.43570   0.00000  Uiso   1.00
H448   H     0.46124   0.33105   0.52344   0.00000  Uiso   1.00
H449   H     0.67599   0.45694   0.70482   0.00000  Uiso   1.00
H450   H     0.72043   0.26577   0.31648   0.00000  Uiso   1.00
H451   H     0.33072   0.33003   0.50152   0.00000  Uiso   1.00
O452   O     0.69991   0.53296   0.68570   0.00000  Uiso   1.00
O453   O     0.75820   0.28217   0.17622   0.00000  Uiso   1.00
O454   O     0.24691   0.36647   0.41898   0.00000  Uiso   1.00
N455   N     0.65810   0.51611   0.56797   0.00000  Uiso   1.00
N456   N     0.69966   0.33739   0.20491   0.00000  Uiso   1.00
N457   N     0.33531   0.39746   0.37788   0.00000  Uiso   1.00
N458   N     0.66604   0.46988   0.65474   0.00000  Uiso   1.00
N459   N     0.70760   0.29116   0.29168   0.00000  Uiso   1.00
N460   N     0.34326   0.35123   0.46466   0.00000  Uiso   1.00
C461   C     0.43636   0.07893   0.37598   0.00000  Uiso   1.00
C462   C     0.40839   0.06403   0.45010   0.00000  Uiso   1.00
C463   C     0.38930   0.02576   0.46408   0.00000  Uiso   1.00
C464   C     0.36492   0.01804   0.53554   0.00000  Uiso   1.00
C465   C     0.32224   0.99043   0.64219   0.00000  Uiso   1.00
C466   C     0.39693   0.11329   0.35004   0.00000  Uiso   1.00
C467   C     0.36820   0.11643   0.27989   0.00000  Uiso   1.00
C468   C     0.33418   0.15018   0.26712   0.00000  Uiso   1.00
C469   C     0.27374   0.19904   0.21840   0.00000  Uiso   1.00
C470   C     0.49734   0.09673   0.39772   0.00000  Uiso   1.00
C471   C     0.55305   0.08595   0.36765   0.00000  Uiso   1.00
C472   C     0.60356   0.10577   0.39500   0.00000  Uiso   1.00
C473   C     0.69903   0.12892   0.42032   0.00000  Uiso   1.00
C474   C     0.42701   0.13330   0.47802   0.00000  Uiso   1.00
C475   C     0.40332   0.09357   0.50552   0.00000  Uiso   1.00
C476   C     0.37896   0.08591   0.57698   0.00000  Uiso   1.00
C477   C     0.35984   0.04763   0.59107   0.00000  Uiso   1.00
C478   C     0.39185   0.14282   0.40546   0.00000  Uiso   1.00
C479   C     0.35787   0.17658   0.39279   0.00000  Uiso   1.00
C480   C     0.32909   0.17976   0.32264   0.00000  Uiso   1.00
C481   C     0.49227   0.12626   0.45315   0.00000  Uiso   1.00
C482   C     0.54271   0.14610   0.48055   0.00000  Uiso   1.00
C483   C     0.59848   0.13536   0.45053   0.00000  Uiso   1.00
H484   H     0.44031   0.05594   0.33282   0.00000  Uiso   1.00
H485   H     0.39323   0.00291   0.42117   0.00000  Uiso   1.00
H486   H     0.37214   0.09357   0.23701   0.00000  Uiso   1.00
H487   H     0.55695   0.06310   0.32476   0.00000  Uiso   1.00
H488   H     0.33878   0.95715   0.54355   0.00000  Uiso   1.00
H489   H     0.29433   0.14831   0.15522   0.00000  Uiso   1.00
H490   H     0.68404   0.08405   0.34025   0.00000  Uiso   1.00
H491   H     0.42306   0.15629   0.52118   0.00000  Uiso   1.00
H492   H     0.37504   0.10877   0.61986   0.00000  Uiso   1.00
H493   H     0.35395   0.19942   0.43570   0.00000  Uiso   1.00
H494   H     0.53876   0.16895   0.52344   0.00000  Uiso   1.00
H495   H     0.32401   0.04306   0.70482   0.00000  Uiso   1.00
H496   H     0.27957   0.23423   0.31648   0.00000  Uiso   1.00
H497   H     0.66928   0.16997   0.50152   0.00000  Uiso   1.00
O498   O     0.30009   0.96704   0.68570   0.00000  Uiso   1.00
O499   O     0.24180   0.21783   0.17622   0.00000  Uiso   1.00
O500   O     0.75309   0.13353   0.41898   0.00000  Uiso   1.00
N501   N     0.34190   0.98389   0.56797   0.00000  Uiso   1.00
N502   N     0.30034   0.16261   0.20491   0.00000  Uiso   1.00
N503   N     0.66469   0.10254   0.37788   0.00000  Uiso   1.00
N504   N     0.33396   0.03012   0.65474   0.00000  Uiso   1.00
N505   N     0.29240   0.20884   0.29168   0.00000  Uiso   1.00
N506   N     0.65674   0.14877   0.46466   0.00000  Uiso   1.00
C507   C     0.93636   0.57893   0.87598   0.00000  Uiso   1.00
C508   C     0.90839   0.56403   0.95010   0.00000  Uiso   1.00
C509   C     0.88930   0.52576   0.96408   0.00000  Uiso   1.00
C510   C     0.86492   0.51804   0.03554   0.00000  Uiso   1.00
C511   C     0.82224   0.49043   0.14219   0.00000  Uiso   1.00
C512   C     0.89693   0.61329   0.85004   0.00000  Uiso   1.00
C513   C     0.86820   0.61643   0.77989   0.00000  Uiso   1.00
C514   C     0.83418   0.65018   0.76712   0.00000  Uiso   1.00
C515   C     0.77374   0.69904   0.71840   0.00000  Uiso   1.00
C516   C     0.99734   0.59673   0.89772   0.00000  Uiso   1.00
C517   C     0.05305   0.58595   0.86765   0.00000  Uiso   1.00
C518   C     0.10356   0.60577   0.89500   0.00000  Uiso   1.00
C519   C     0.19903   0.62892   0.92032   0.00000  Uiso   1.00
C520   C     0.92701   0.63330   0.97802   0.00000  Uiso   1.00
C521   C     0.90332   0.59357   0.00552   0.00000  Uiso   1.00
C522   C     0.87896   0.58591   0.07698   0.00000  Uiso   1.00
C523   C     0.85984   0.54763   0.09107   0.00000  Uiso   1.00
C524   C     0.89185   0.64282   0.90546   0.00000  Uiso   1.00
C525   C     0.85787   0.67658   0.89279   0.00000  Uiso   1.00
C526   C     0.82909   0.67976   0.82264   0.00000  Uiso   1.00
C527   C     0.99227   0.62626   0.95315   0.00000  Uiso   1.00
C528   C     0.04271   0.64610   0.98055   0.00000  Uiso   1.00
C529   C     0.09848   0.63536   0.95053   0.00000  Uiso   1.00
H530   H     0.94031   0.55594   0.83282   0.00000  Uiso   1.00
H531   H     0.89323   0.50291   0.92117   0.00000  Uiso   1.00
H532   H     0.87214   0.59357   0.73701   0.00000  Uiso   1.00
H533   H     0.05695   0.56310   0.82476   0.00000  Uiso   1.00
H534   H     0.83878   0.45715   0.04355   0.00000  Uiso   1.00
H535   H     0.79433   0.64831   0.65522   0.00000  Uiso   1.00
H536   H     0.18404   0.58405   0.84025   0.00000  Uiso   1.00
H537   H     0.92306   0.65629   0.02118   0.00000  Uiso   1.00
H538   H     0.87504   0.60877   0.11986   0.00000  Uiso   1.00
H539   H     0.85395   0.69942   0.93570   0.00000  Uiso   1.00
H540   H     0.03876   0.66895   0.02344   0.00000  Uiso   1.00
H541   H     0.82401   0.54306   0.20482   0.00000  Uiso   1.00
H542   H     0.77957   0.73423   0.81648   0.00000  Uiso   1.00
H543   H     0.16928   0.66997   0.00152   0.00000  Uiso   1.00
O544   O     0.80009   0.46704   0.18570   0.00000  Uiso   1.00
O545   O     0.74180   0.71783   0.67622   0.00000  Uiso   1.00
O546   O     0.25309   0.63353   0.91898   0.00000  Uiso   1.00
N547   N     0.84190   0.48389   0.06797   0.00000  Uiso   1.00
N548   N     0.80034   0.66261   0.70491   0.00000  Uiso   1.00
N549   N     0.16469   0.60254   0.87788   0.00000  Uiso   1.00
N550   N     0.83396   0.53012   0.15474   0.00000  Uiso   1.00
N551   N     0.79240   0.70884   0.79168   0.00000  Uiso   1.00
N552   N     0.15674   0.64877   0.96466   0.00000  Uiso   1.00
C553   C     0.93636   0.42107   0.62402   0.00000  Uiso   1.00
C554   C     0.90839   0.43597   0.54990   0.00000  Uiso   1.00
C555   C     0.88930   0.47424   0.53592   0.00000  Uiso   1.00
C556   C     0.86492   0.48196   0.46446   0.00000  Uiso   1.00
C557   C     0.82224   0.50957   0.35781   0.00000  Uiso   1.00
C558   C     0.89693   0.38671   0.64996   0.00000  Uiso   1.00
C559   C     0.86820   0.38357   0.72011   0.00000  Uiso   1.00
C560   C     0.83418   0.34982   0.73288   0.00000  Uiso   1.00
C561   C     0.77374   0.30096   0.78160   0.00000  Uiso   1.00
C562   C     0.99734   0.40327   0.60228   0.00000  Uiso   1.00
C563   C     0.05305   0.41405   0.63235   0.00000  Uiso   1.00
C564   C     0.10356   0.39423   0.60500   0.00000  Uiso   1.00
C565   C     0.19903   0.37108   0.57968   0.00000  Uiso   1.00
C566   C     0.92701   0.36670   0.52198   0.00000  Uiso   1.00
C567   C     0.90332   0.40643   0.49448   0.00000  Uiso   1.00
C568   C     0.87896   0.41409   0.42302   0.00000  Uiso   1.00
C569   C     0.85984   0.45237   0.40893   0.00000  Uiso   1.00
C570   C     0.89185   0.35718   0.59454   0.00000  Uiso   1.00
C571   C     0.85787   0.32342   0.60721   0.00000  Uiso   1.00
C572   C     0.82909   0.32024   0.67736   0.00000  Uiso   1.00
C573   C     0.99227   0.37374   0.54685   0.00000  Uiso   1.00
C574   C     0.04271   0.35390   0.51945   0.00000  Uiso   1.00
C575   C     0.09848   0.36464   0.54947   0.00000  Uiso   1.00
H576   H     0.94031   0.44406   0.66718   0.00000  Uiso   1.00
H577   H     0.89323   0.49709   0.57883   0.00000  Uiso   1.00
H578   H     0.87214   0.40643   0.76299   0.00000  Uiso   1.00
H579   H     0.05695   0.43690   0.67524   0.00000  Uiso   1.00
H580   H     0.83878   0.54285   0.45645   0.00000  Uiso   1.00
H581   H     0.79433   0.35169   0.84478   0.00000  Uiso   1.00
H582   H     0.18404   0.41595   0.65975   0.00000  Uiso   1.00
H583   H     0.92306   0.34371   0.47882   0.00000  Uiso   1.00
H584   H     0.87504   0.39123   0.38014   0.00000  Uiso   1.00
H585   H     0.85395   0.30058   0.56430   0.00000  Uiso   1.00
H586   H     0.03876   0.33105   0.47656   0.00000  Uiso   1.00
H587   H     0.82401   0.45694   0.29518   0.00000  Uiso   1.00
H588   H     0.77957   0.26577   0.68352   0.00000  Uiso   1.00
H589   H     0.16928   0.33003   0.49848   0.00000  Uiso   1.00
O590   O     0.80009   0.53296   0.31430   0.00000  Uiso   1.00
O591   O     0.74180   0.28217   0.82378   0.00000  Uiso   1.00
O592   O     0.25309   0.36647   0.58102   0.00000  Uiso   1.00
N593   N     0.84190   0.51611   0.43203   0.00000  Uiso   1.00
N594   N     0.80034   0.33739   0.79509   0.00000  Uiso   1.00
N595   N     0.16469   0.39746   0.62212   0.00000  Uiso   1.00
N596   N     0.83396   0.46988   0.34526   0.00000  Uiso   1.00
N597   N     0.79240   0.29116   0.70832   0.00000  Uiso   1.00
N598   N     0.15674   0.35123   0.53534   0.00000  Uiso   1.00
C599   C     0.43636   0.92107   0.12402   0.00000  Uiso   1.00
C600   C     0.40839   0.93597   0.04990   0.00000  Uiso   1.00
C601   C     0.38930   0.97424   0.03592   0.00000  Uiso   1.00
C602   C     0.36492   0.98196   0.96446   0.00000  Uiso   1.00
C603   C     0.32224   0.00957   0.85781   0.00000  Uiso   1.00
C604   C     0.39693   0.88671   0.14996   0.00000  Uiso   1.00
C605   C     0.36820   0.88357   0.22011   0.00000  Uiso   1.00
C606   C     0.33418   0.84982   0.23288   0.00000  Uiso   1.00
C607   C     0.27374   0.80096   0.28160   0.00000  Uiso   1.00
C608   C     0.49734   0.90327   0.10228   0.00000  Uiso   1.00
C609   C     0.55305   0.91405   0.13235   0.00000  Uiso   1.00
C610   C     0.60356   0.89423   0.10500   0.00000  Uiso   1.00
C611   C     0.69903   0.87108   0.07968   0.00000  Uiso   1.00
C612   C     0.42701   0.86670   0.02198   0.00000  Uiso   1.00
C613   C     0.40332   0.90643   0.99448   0.00000  Uiso   1.00
C614   C     0.37896   0.91409   0.92302   0.00000  Uiso   1.00
C615   C     0.35984   0.95237   0.90893   0.00000  Uiso   1.00
C616   C     0.39185   0.85718   0.09454   0.00000  Uiso   1.00
C617   C     0.35787   0.82342   0.10721   0.00000  Uiso   1.00
C618   C     0.32909   0.82024   0.17736   0.00000  Uiso   1.00
C619   C     0.49227   0.87374   0.04685   0.00000  Uiso   1.00
C620   C     0.54271   0.85390   0.01945   0.00000  Uiso   1.00
C621   C     0.59848   0.86464   0.04947   0.00000  Uiso   1.00
H622   H     0.44031   0.94406   0.16718   0.00000  Uiso   1.00
H623   H     0.39323   0.99709   0.07883   0.00000  Uiso   1.00
H624   H     0.37214   0.90643   0.26299   0.00000  Uiso   1.00
H625   H     0.55695   0.93690   0.17524   0.00000  Uiso   1.00
H626   H     0.33878   0.04285   0.95645   0.00000  Uiso   1.00
H627   H     0.29433   0.85169   0.34478   0.00000  Uiso   1.00
H628   H     0.68404   0.91595   0.15975   0.00000  Uiso   1.00
H629   H     0.42306   0.84371   0.97882   0.00000  Uiso   1.00
H630   H     0.37504   0.89123   0.88014   0.00000  Uiso   1.00
H631   H     0.35395   0.80058   0.06430   0.00000  Uiso   1.00
H632   H     0.53876   0.83105   0.97656   0.00000  Uiso   1.00
H633   H     0.32401   0.95694   0.79518   0.00000  Uiso   1.00
H634   H     0.27957   0.76577   0.18352   0.00000  Uiso   1.00
H635   H     0.66928   0.83003   0.99848   0.00000  Uiso   1.00
O636   O     0.30009   0.03296   0.81430   0.00000  Uiso   1.00
O637   O     0.24180   0.78217   0.32378   0.00000  Uiso   1.00
O638   O     0.75309   0.86647   0.08102   0.00000  Uiso   1.00
N639   N     0.34190   0.01611   0.93203   0.00000  Uiso   1.00
N640   N     0.30034   0.83739   0.29509   0.00000  Uiso   1.00
N641   N     0.66469   0.89746   0.12212   0.00000  Uiso   1.00
N642   N     0.33396   0.96988   0.84526   0.00000  Uiso   1.00
N643   N     0.29240   0.79116   0.20832   0.00000  Uiso   1.00
N644   N     0.65674   0.85123   0.03534   0.00000  Uiso   1.00
C645   C     0.56364   0.57893   0.12402   0.00000  Uiso   1.00
C646   C     0.59161   0.56403   0.04990   0.00000  Uiso   1.00
C647   C     0.61070   0.52576   0.03592   0.00000  Uiso   1.00
C648   C     0.63508   0.51804   0.96446   0.00000  Uiso   1.00
C649   C     0.67776   0.49043   0.85781   0.00000  Uiso   1.00
C650   C     0.60307   0.61329   0.14996   0.00000  Uiso   1.00
C651   C     0.63180   0.61643   0.22011   0.00000  Uiso   1.00
C652   C     0.66582   0.65018   0.23288   0.00000  Uiso   1.00
C653   C     0.72626   0.69904   0.28160   0.00000  Uiso   1.00
C654   C     0.50266   0.59673   0.10228   0.00000  Uiso   1.00
C655   C     0.44695   0.58595   0.13235   0.00000  Uiso   1.00
C656   C     0.39644   0.60577   0.10500   0.00000  Uiso   1.00
C657   C     0.30097   0.62892   0.07968   0.00000  Uiso   1.00
C658   C     0.57299   0.63330   0.02198   0.00000  Uiso   1.00
C659   C     0.59668   0.59357   0.99448   0.00000  Uiso   1.00
C660   C     0.62104   0.58591   0.92302   0.00000  Uiso   1.00
C661   C     0.64016   0.54763   0.90893   0.00000  Uiso   1.00
C662   C     0.60815   0.64282   0.09454   0.00000  Uiso   1.00
C663   C     0.64213   0.67658   0.10721   0.00000  Uiso   1.00
C664   C     0.67091   0.67976   0.17736   0.00000  Uiso   1.00
C665   C     0.50773   0.62626   0.04685   0.00000  Uiso   1.00
C666   C     0.45729   0.64610   0.01945   0.00000  Uiso   1.00
C667   C     0.40152   0.63536   0.04947   0.00000  Uiso   1.00
H668   H     0.55969   0.55594   0.16718   0.00000  Uiso   1.00
H669   H     0.60677   0.50291   0.07883   0.00000  Uiso   1.00
H670   H     0.62786   0.59357   0.26299   0.00000  Uiso   1.00
H671   H     0.44305   0.56310   0.17524   0.00000  Uiso   1.00
H672   H     0.66122   0.45715   0.95645   0.00000  Uiso   1.00
H673   H     0.70567   0.64831   0.34478   0.00000  Uiso   1.00
H674   H     0.31596   0.58405   0.15975   0.00000  Uiso   1.00
H675   H     0.57694   0.65629   0.97882   0.00000  Uiso   1.00
H676   H     0.62496   0.60877   0.88014   0.00000  Uiso   1.00
H677   H     0.64605   0.69942   0.06430   0.00000  Uiso   1.00
H678   H     0.46124   0.66895   0.97656   0.00000  Uiso   1.00
H679   H     0.67599   0.54306   0.79518   0.00000  Uiso   1.00
H680   H     0.72043   0.73423   0.18352   0.00000  Uiso   1.00
H681   H     0.33072   0.66997   0.99848   0.00000  Uiso   1.00
O682   O     0.69991   0.46704   0.81430   0.00000  Uiso   1.00
O683   O     0.75820   0.71783   0.32378   0.00000  Uiso   1.00
O684   O     0.24691   0.63353   0.08102   0.00000  Uiso   1.00
N685   N     0.65810   0.48389   0.93203   0.00000  Uiso   1.00
N686   N     0.69966   0.66261   0.29509   0.00000  Uiso   1.00
N687   N     0.33531   0.60254   0.12212   0.00000  Uiso   1.00
N688   N     0.66604   0.53012   0.84526   0.00000  Uiso   1.00
N689   N     0.70760   0.70884   0.20832   0.00000  Uiso   1.00
N690   N     0.34326   0.64877   0.03534   0.00000  Uiso   1.00
C691   C     0.06364   0.07893   0.62402   0.00000  Uiso   1.00
C692   C     0.09161   0.06403   0.54990   0.00000  Uiso   1.00
C693   C     0.11070   0.02576   0.53592   0.00000  Uiso   1.00
C694   C     0.13508   0.01804   0.46446   0.00000  Uiso   1.00
C695   C     0.17776   0.99043   0.35781   0.00000  Uiso   1.00
C696   C     0.10307   0.11329   0.64996   0.00000  Uiso   1.00
C697   C     0.13180   0.11643   0.72011   0.00000  Uiso   1.00
C698   C     0.16582   0.15018   0.73288   0.00000  Uiso   1.00
C699   C     0.22626   0.19904   0.78160   0.00000  Uiso   1.00
C700   C     0.00266   0.09673   0.60228   0.00000  Uiso   1.00
C701   C     0.94695   0.08595   0.63235   0.00000  Uiso   1.00
C702   C     0.89644   0.10577   0.60500   0.00000  Uiso   1.00
C703   C     0.80097   0.12892   0.57968   0.00000  Uiso   1.00
C704   C     0.07299   0.13330   0.52198   0.00000  Uiso   1.00
C705   C     0.09668   0.09357   0.49448   0.00000  Uiso   1.00
C706   C     0.12104   0.08591   0.42302   0.00000  Uiso   1.00
C707   C     0.14016   0.04763   0.40893   0.00000  Uiso   1.00
C708   C     0.10815   0.14282   0.59454   0.00000  Uiso   1.00
C709   C     0.14213   0.17658   0.60721   0.00000  Uiso   1.00
C710   C     0.17091   0.17976   0.67736   0.00000  Uiso   1.00
C711   C     0.00773   0.12626   0.54685   0.00000  Uiso   1.00
C712   C     0.95729   0.14610   0.51945   0.00000  Uiso   1.00
C713   C     0.90152   0.13536   0.54947   0.00000  Uiso   1.00
H714   H     0.05969   0.05594   0.66718   0.00000  Uiso   1.00
H715   H     0.10677   0.00291   0.57883   0.00000  Uiso   1.00
H716   H     0.12786   0.09357   0.76299   0.00000  Uiso   1.00
H717   H     0.94305   0.06310   0.67524   0.00000  Uiso   1.00
H718   H     0.16122   0.95715   0.45645   0.00000  Uiso   1.00
H719   H     0.20567   0.14831   0.84478   0.00000  Uiso   1.00
H720   H     0.81596   0.08405   0.65975   0.00000  Uiso   1.00
H721   H     0.07694   0.15629   0.47882   0.00000  Uiso   1.00
H722   H     0.12496   0.10877   0.38014   0.00000  Uiso   1.00
H723   H     0.14605   0.19942   0.56430   0.00000  Uiso   1.00
H724   H     0.96124   0.16895   0.47656   0.00000  Uiso   1.00
H725   H     0.17599   0.04306   0.29518   0.00000  Uiso   1.00
H726   H     0.22043   0.23423   0.68352   0.00000  Uiso   1.00
H727   H     0.83072   0.16997   0.49848   0.00000  Uiso   1.00
O728   O     0.19991   0.96704   0.31430   0.00000  Uiso   1.00
O729   O     0.25820   0.21783   0.82378   0.00000  Uiso   1.00
O730   O     0.74691   0.13353   0.58102   0.00000  Uiso   1.00
N731   N     0.15810   0.98389   0.43203   0.00000  Uiso   1.00
N732   N     0.19966   0.16261   0.79509   0.00000  Uiso   1.00
N733   N     0.83531   0.10254   0.62212   0.00000  Uiso   1.00
N734   N     0.16604   0.03012   0.34526   0.00000  Uiso   1.00
N735   N     0.20760   0.20884   0.70832   0.00000  Uiso   1.00
N736   N     0.84326   0.14877   0.53534   0.00000  Uiso   1.00
