data_job_05530
_audit_creation_date              2018-12-19
_audit_creation_method            'Materials Studio'
_symmetry_space_group_name_H-M    'P1'
_symmetry_Int_Tables_number       1
_symmetry_cell_setting            triclinic
loop_
_symmetry_equiv_pos_as_xyz
  x,y,z
_cell_length_a                    14.4588
_cell_length_b                    14.4588
_cell_length_c                    42.6596
_cell_angle_alpha                 90.0000
_cell_angle_beta                  90.0000
_cell_angle_gamma                 90.0000
loop_
_atom_site_label
_atom_site_type_symbol
_atom_site_fract_x
_atom_site_fract_y
_atom_site_fract_z
_atom_site_U_iso_or_equiv
_atom_site_adp_type
_atom_site_occupancy
C1     C     0.83589   0.40329   0.17554   0.00000  Uiso   1.00
C2     C     0.81568   0.50444   0.18299   0.00000  Uiso   1.00
C3     C     0.85111   0.55383   0.20817   0.00000  Uiso   1.00
C4     C     0.82425   0.64566   0.21090   0.00000  Uiso   1.00
C5     C     0.80197   0.79649   0.22578   0.00000  Uiso   1.00
C6     C     0.74217   0.35513   0.17407   0.00000  Uiso   1.00
C7     C     0.71580   0.27896   0.19174   0.00000  Uiso   1.00
C8     C     0.62706   0.24510   0.18695   0.00000  Uiso   1.00
C9     C     0.49068   0.16408   0.18796   0.00000  Uiso   1.00
C10    C     0.87395   0.40188   0.14221   0.00000  Uiso   1.00
C11    C     0.95839   0.36501   0.13309   0.00000  Uiso   1.00
C12    C     0.98059   0.37050   0.10148   0.00000  Uiso   1.00
C13    C     0.04883   0.36207   0.05302   0.00000  Uiso   1.00
C14    C     0.72517   0.47857   0.13562   0.00000  Uiso   1.00
C15    C     0.75554   0.54532   0.16131   0.00000  Uiso   1.00
C16    C     0.72861   0.63711   0.16400   0.00000  Uiso   1.00
C17    C     0.76401   0.68663   0.18918   0.00000  Uiso   1.00
C18    C     0.68203   0.39601   0.15239   0.00000  Uiso   1.00
C19    C     0.59330   0.36225   0.14757   0.00000  Uiso   1.00
C20    C     0.56681   0.28606   0.16523   0.00000  Uiso   1.00
C21    C     0.81382   0.44277   0.12053   0.00000  Uiso   1.00
C22    C     0.83589   0.44831   0.08892   0.00000  Uiso   1.00
C23    C     0.92035   0.41146   0.07976   0.00000  Uiso   1.00
H24    H     0.88271   0.37145   0.19242   0.00000  Uiso   1.00
H25    H     0.89765   0.52215   0.22495   0.00000  Uiso   1.00
H26    H     0.76236   0.24733   0.20851   0.00000  Uiso   1.00
H27    H     0.00491   0.33338   0.14987   0.00000  Uiso   1.00
H28    H     0.88766   0.70726   0.25145   0.00000  Uiso   1.00
H29    H     0.60241   0.12776   0.21679   0.00000  Uiso   1.00
H30    H     0.11388   0.30920   0.09314   0.00000  Uiso   1.00
H31    H     0.67835   0.51040   0.11874   0.00000  Uiso   1.00
H32    H     0.68207   0.66874   0.14722   0.00000  Uiso   1.00
H33    H     0.54679   0.39391   0.13079   0.00000  Uiso   1.00
H34    H     0.78933   0.47995   0.07215   0.00000  Uiso   1.00
H35    H     0.71269   0.82623   0.18837   0.00000  Uiso   1.00
H36    H     0.42744   0.24673   0.15371   0.00000  Uiso   1.00
H37    H     0.93890   0.42817   0.03005   0.00000  Uiso   1.00
O38    O     0.80629   0.86838   0.23998   0.00000  Uiso   1.00
O39    O     0.43206   0.10810   0.19451   0.00000  Uiso   1.00
O40    O     0.10309   0.34614   0.03228   0.00000  Uiso   1.00
N41    N     0.84598   0.71354   0.23269   0.00000  Uiso   1.00
N42    N     0.57929   0.17175   0.20029   0.00000  Uiso   1.00
N43    N     0.05745   0.34135   0.08469   0.00000  Uiso   1.00
N44    N     0.75183   0.77755   0.19875   0.00000  Uiso   1.00
N45    N     0.48514   0.23576   0.16635   0.00000  Uiso   1.00
N46    N     0.96330   0.40537   0.05074   0.00000  Uiso   1.00
C47    C     0.33589   0.90329   0.67554   0.00000  Uiso   1.00
C48    C     0.31568   0.00444   0.68299   0.00000  Uiso   1.00
C49    C     0.35111   0.05383   0.70817   0.00000  Uiso   1.00
C50    C     0.32425   0.14566   0.71090   0.00000  Uiso   1.00
C51    C     0.30197   0.29649   0.72578   0.00000  Uiso   1.00
C52    C     0.24217   0.85513   0.67407   0.00000  Uiso   1.00
C53    C     0.21580   0.77896   0.69174   0.00000  Uiso   1.00
C54    C     0.12706   0.74510   0.68695   0.00000  Uiso   1.00
C55    C     0.99068   0.66408   0.68796   0.00000  Uiso   1.00
C56    C     0.37395   0.90188   0.64221   0.00000  Uiso   1.00
C57    C     0.45839   0.86501   0.63309   0.00000  Uiso   1.00
C58    C     0.48059   0.87050   0.60148   0.00000  Uiso   1.00
C59    C     0.54883   0.86207   0.55302   0.00000  Uiso   1.00
C60    C     0.22517   0.97857   0.63562   0.00000  Uiso   1.00
C61    C     0.25554   0.04532   0.66131   0.00000  Uiso   1.00
C62    C     0.22861   0.13711   0.66400   0.00000  Uiso   1.00
C63    C     0.26401   0.18663   0.68918   0.00000  Uiso   1.00
C64    C     0.18203   0.89601   0.65239   0.00000  Uiso   1.00
C65    C     0.09330   0.86225   0.64757   0.00000  Uiso   1.00
C66    C     0.06681   0.78606   0.66523   0.00000  Uiso   1.00
C67    C     0.31382   0.94277   0.62053   0.00000  Uiso   1.00
C68    C     0.33589   0.94831   0.58892   0.00000  Uiso   1.00
C69    C     0.42035   0.91146   0.57976   0.00000  Uiso   1.00
H70    H     0.38271   0.87145   0.69242   0.00000  Uiso   1.00
H71    H     0.39765   0.02215   0.72495   0.00000  Uiso   1.00
H72    H     0.26236   0.74733   0.70851   0.00000  Uiso   1.00
H73    H     0.50491   0.83338   0.64987   0.00000  Uiso   1.00
H74    H     0.38766   0.20726   0.75145   0.00000  Uiso   1.00
H75    H     0.10241   0.62776   0.71679   0.00000  Uiso   1.00
H76    H     0.61388   0.80920   0.59314   0.00000  Uiso   1.00
H77    H     0.17835   0.01040   0.61874   0.00000  Uiso   1.00
H78    H     0.18207   0.16874   0.64722   0.00000  Uiso   1.00
H79    H     0.04679   0.89391   0.63079   0.00000  Uiso   1.00
H80    H     0.28933   0.97995   0.57215   0.00000  Uiso   1.00
H81    H     0.21269   0.32623   0.68837   0.00000  Uiso   1.00
H82    H     0.92744   0.74673   0.65371   0.00000  Uiso   1.00
H83    H     0.43890   0.92817   0.53005   0.00000  Uiso   1.00
O84    O     0.30629   0.36838   0.73998   0.00000  Uiso   1.00
O85    O     0.93206   0.60810   0.69451   0.00000  Uiso   1.00
O86    O     0.60309   0.84614   0.53228   0.00000  Uiso   1.00
N87    N     0.34598   0.21354   0.73269   0.00000  Uiso   1.00
N88    N     0.07929   0.67175   0.70029   0.00000  Uiso   1.00
N89    N     0.55745   0.84135   0.58469   0.00000  Uiso   1.00
N90    N     0.25183   0.27755   0.69875   0.00000  Uiso   1.00
N91    N     0.98514   0.73576   0.66635   0.00000  Uiso   1.00
N92    N     0.46330   0.90537   0.55074   0.00000  Uiso   1.00
C93    C     0.66411   0.09671   0.67554   0.00000  Uiso   1.00
C94    C     0.68432   0.99556   0.68299   0.00000  Uiso   1.00
C95    C     0.64889   0.94617   0.70817   0.00000  Uiso   1.00
C96    C     0.67575   0.85434   0.71090   0.00000  Uiso   1.00
C97    C     0.69803   0.70351   0.72578   0.00000  Uiso   1.00
C98    C     0.75783   0.14487   0.67407   0.00000  Uiso   1.00
C99    C     0.78420   0.22104   0.69174   0.00000  Uiso   1.00
C100   C     0.87294   0.25490   0.68695   0.00000  Uiso   1.00
C101   C     0.00932   0.33592   0.68796   0.00000  Uiso   1.00
C102   C     0.62605   0.09812   0.64221   0.00000  Uiso   1.00
C103   C     0.54161   0.13499   0.63309   0.00000  Uiso   1.00
C104   C     0.51941   0.12950   0.60148   0.00000  Uiso   1.00
C105   C     0.45117   0.13793   0.55302   0.00000  Uiso   1.00
C106   C     0.77483   0.02143   0.63562   0.00000  Uiso   1.00
C107   C     0.74446   0.95468   0.66131   0.00000  Uiso   1.00
C108   C     0.77139   0.86289   0.66400   0.00000  Uiso   1.00
C109   C     0.73599   0.81337   0.68918   0.00000  Uiso   1.00
C110   C     0.81797   0.10399   0.65239   0.00000  Uiso   1.00
C111   C     0.90670   0.13775   0.64757   0.00000  Uiso   1.00
C112   C     0.93319   0.21394   0.66523   0.00000  Uiso   1.00
C113   C     0.68618   0.05723   0.62053   0.00000  Uiso   1.00
C114   C     0.66411   0.05169   0.58892   0.00000  Uiso   1.00
C115   C     0.57965   0.08854   0.57976   0.00000  Uiso   1.00
H116   H     0.61729   0.12855   0.69242   0.00000  Uiso   1.00
H117   H     0.60235   0.97785   0.72495   0.00000  Uiso   1.00
H118   H     0.73764   0.25267   0.70851   0.00000  Uiso   1.00
H119   H     0.49509   0.16662   0.64987   0.00000  Uiso   1.00
H120   H     0.61234   0.79274   0.75145   0.00000  Uiso   1.00
H121   H     0.89759   0.37224   0.71679   0.00000  Uiso   1.00
H122   H     0.38612   0.19080   0.59314   0.00000  Uiso   1.00
H123   H     0.82165   0.98960   0.61874   0.00000  Uiso   1.00
H124   H     0.81793   0.83126   0.64722   0.00000  Uiso   1.00
H125   H     0.95321   0.10609   0.63079   0.00000  Uiso   1.00
H126   H     0.71067   0.02005   0.57215   0.00000  Uiso   1.00
H127   H     0.78731   0.67377   0.68837   0.00000  Uiso   1.00
H128   H     0.07256   0.25327   0.65371   0.00000  Uiso   1.00
H129   H     0.56110   0.07183   0.53005   0.00000  Uiso   1.00
O130   O     0.69371   0.63162   0.73998   0.00000  Uiso   1.00
O131   O     0.06794   0.39190   0.69451   0.00000  Uiso   1.00
O132   O     0.39691   0.15386   0.53228   0.00000  Uiso   1.00
N133   N     0.65402   0.78646   0.73269   0.00000  Uiso   1.00
N134   N     0.92071   0.32825   0.70029   0.00000  Uiso   1.00
N135   N     0.44255   0.15865   0.58469   0.00000  Uiso   1.00
N136   N     0.74817   0.72245   0.69875   0.00000  Uiso   1.00
N137   N     0.01486   0.26424   0.66635   0.00000  Uiso   1.00
N138   N     0.53670   0.09463   0.55074   0.00000  Uiso   1.00
C139   C     0.16411   0.59671   0.17554   0.00000  Uiso   1.00
C140   C     0.18432   0.49556   0.18299   0.00000  Uiso   1.00
C141   C     0.14889   0.44617   0.20817   0.00000  Uiso   1.00
C142   C     0.17575   0.35434   0.21090   0.00000  Uiso   1.00
C143   C     0.19803   0.20351   0.22578   0.00000  Uiso   1.00
C144   C     0.25783   0.64487   0.17407   0.00000  Uiso   1.00
C145   C     0.28420   0.72104   0.19174   0.00000  Uiso   1.00
C146   C     0.37294   0.75490   0.18695   0.00000  Uiso   1.00
C147   C     0.50932   0.83592   0.18796   0.00000  Uiso   1.00
C148   C     0.12605   0.59812   0.14221   0.00000  Uiso   1.00
C149   C     0.04161   0.63499   0.13309   0.00000  Uiso   1.00
C150   C     0.01941   0.62950   0.10148   0.00000  Uiso   1.00
C151   C     0.95117   0.63793   0.05302   0.00000  Uiso   1.00
C152   C     0.27483   0.52143   0.13562   0.00000  Uiso   1.00
C153   C     0.24446   0.45468   0.16131   0.00000  Uiso   1.00
C154   C     0.27139   0.36289   0.16400   0.00000  Uiso   1.00
C155   C     0.23599   0.31337   0.18918   0.00000  Uiso   1.00
C156   C     0.31797   0.60399   0.15239   0.00000  Uiso   1.00
C157   C     0.40670   0.63775   0.14757   0.00000  Uiso   1.00
C158   C     0.43319   0.71394   0.16523   0.00000  Uiso   1.00
C159   C     0.18618   0.55723   0.12053   0.00000  Uiso   1.00
C160   C     0.16411   0.55169   0.08892   0.00000  Uiso   1.00
C161   C     0.07965   0.58854   0.07976   0.00000  Uiso   1.00
H162   H     0.11729   0.62855   0.19242   0.00000  Uiso   1.00
H163   H     0.10235   0.47785   0.22495   0.00000  Uiso   1.00
H164   H     0.23764   0.75267   0.20851   0.00000  Uiso   1.00
H165   H     0.99509   0.66662   0.14987   0.00000  Uiso   1.00
H166   H     0.11234   0.29274   0.25145   0.00000  Uiso   1.00
H167   H     0.39759   0.87224   0.21679   0.00000  Uiso   1.00
H168   H     0.88612   0.69080   0.09314   0.00000  Uiso   1.00
H169   H     0.32165   0.48960   0.11874   0.00000  Uiso   1.00
H170   H     0.31793   0.33126   0.14722   0.00000  Uiso   1.00
H171   H     0.45321   0.60609   0.13079   0.00000  Uiso   1.00
H172   H     0.21067   0.52005   0.07215   0.00000  Uiso   1.00
H173   H     0.28731   0.17377   0.18837   0.00000  Uiso   1.00
H174   H     0.57256   0.75327   0.15371   0.00000  Uiso   1.00
H175   H     0.06110   0.57183   0.03005   0.00000  Uiso   1.00
O176   O     0.19371   0.13162   0.23998   0.00000  Uiso   1.00
O177   O     0.56794   0.89190   0.19451   0.00000  Uiso   1.00
O178   O     0.89691   0.65386   0.03228   0.00000  Uiso   1.00
N179   N     0.15402   0.28646   0.23269   0.00000  Uiso   1.00
N180   N     0.42071   0.82825   0.20029   0.00000  Uiso   1.00
N181   N     0.94255   0.65865   0.08469   0.00000  Uiso   1.00
N182   N     0.24817   0.22245   0.19875   0.00000  Uiso   1.00
N183   N     0.51486   0.76424   0.16635   0.00000  Uiso   1.00
N184   N     0.03670   0.59463   0.05074   0.00000  Uiso   1.00
C185   C     0.59671   0.33589   0.42554   0.00000  Uiso   1.00
C186   C     0.49556   0.31568   0.43299   0.00000  Uiso   1.00
C187   C     0.44617   0.35111   0.45817   0.00000  Uiso   1.00
C188   C     0.35434   0.32425   0.46090   0.00000  Uiso   1.00
C189   C     0.20351   0.30197   0.47578   0.00000  Uiso   1.00
C190   C     0.64487   0.24217   0.42407   0.00000  Uiso   1.00
C191   C     0.72104   0.21580   0.44174   0.00000  Uiso   1.00
C192   C     0.75490   0.12706   0.43695   0.00000  Uiso   1.00
C193   C     0.83592   0.99068   0.43796   0.00000  Uiso   1.00
C194   C     0.59812   0.37395   0.39221   0.00000  Uiso   1.00
C195   C     0.63499   0.45839   0.38309   0.00000  Uiso   1.00
C196   C     0.62950   0.48059   0.35148   0.00000  Uiso   1.00
C197   C     0.63793   0.54883   0.30302   0.00000  Uiso   1.00
C198   C     0.52143   0.22517   0.38562   0.00000  Uiso   1.00
C199   C     0.45468   0.25554   0.41131   0.00000  Uiso   1.00
C200   C     0.36289   0.22861   0.41400   0.00000  Uiso   1.00
C201   C     0.31337   0.26401   0.43918   0.00000  Uiso   1.00
C202   C     0.60399   0.18203   0.40239   0.00000  Uiso   1.00
C203   C     0.63775   0.09330   0.39757   0.00000  Uiso   1.00
C204   C     0.71394   0.06681   0.41523   0.00000  Uiso   1.00
C205   C     0.55723   0.31382   0.37053   0.00000  Uiso   1.00
C206   C     0.55169   0.33589   0.33892   0.00000  Uiso   1.00
C207   C     0.58854   0.42035   0.32976   0.00000  Uiso   1.00
H208   H     0.62855   0.38271   0.44242   0.00000  Uiso   1.00
H209   H     0.47785   0.39765   0.47495   0.00000  Uiso   1.00
H210   H     0.75267   0.26236   0.45851   0.00000  Uiso   1.00
H211   H     0.66662   0.50491   0.39987   0.00000  Uiso   1.00
H212   H     0.29274   0.38766   0.50145   0.00000  Uiso   1.00
H213   H     0.87224   0.10241   0.46679   0.00000  Uiso   1.00
H214   H     0.69080   0.61388   0.34314   0.00000  Uiso   1.00
H215   H     0.48960   0.17835   0.36874   0.00000  Uiso   1.00
H216   H     0.33126   0.18207   0.39722   0.00000  Uiso   1.00
H217   H     0.60609   0.04679   0.38079   0.00000  Uiso   1.00
H218   H     0.52005   0.28933   0.32215   0.00000  Uiso   1.00
H219   H     0.17377   0.21269   0.43837   0.00000  Uiso   1.00
H220   H     0.75327   0.92744   0.40371   0.00000  Uiso   1.00
H221   H     0.57183   0.43890   0.28005   0.00000  Uiso   1.00
O222   O     0.13162   0.30629   0.48998   0.00000  Uiso   1.00
O223   O     0.89190   0.93206   0.44451   0.00000  Uiso   1.00
O224   O     0.65386   0.60309   0.28228   0.00000  Uiso   1.00
N225   N     0.28646   0.34598   0.48269   0.00000  Uiso   1.00
N226   N     0.82825   0.07929   0.45029   0.00000  Uiso   1.00
N227   N     0.65865   0.55745   0.33469   0.00000  Uiso   1.00
N228   N     0.22245   0.25183   0.44875   0.00000  Uiso   1.00
N229   N     0.76424   0.98514   0.41635   0.00000  Uiso   1.00
N230   N     0.59463   0.46330   0.30074   0.00000  Uiso   1.00
C231   C     0.09671   0.83589   0.92554   0.00000  Uiso   1.00
C232   C     0.99556   0.81568   0.93299   0.00000  Uiso   1.00
C233   C     0.94617   0.85111   0.95817   0.00000  Uiso   1.00
C234   C     0.85434   0.82425   0.96090   0.00000  Uiso   1.00
C235   C     0.70351   0.80197   0.97578   0.00000  Uiso   1.00
C236   C     0.14487   0.74217   0.92407   0.00000  Uiso   1.00
C237   C     0.22104   0.71580   0.94174   0.00000  Uiso   1.00
C238   C     0.25490   0.62706   0.93695   0.00000  Uiso   1.00
C239   C     0.33592   0.49068   0.93796   0.00000  Uiso   1.00
C240   C     0.09812   0.87395   0.89221   0.00000  Uiso   1.00
C241   C     0.13499   0.95839   0.88309   0.00000  Uiso   1.00
C242   C     0.12950   0.98059   0.85148   0.00000  Uiso   1.00
C243   C     0.13793   0.04883   0.80302   0.00000  Uiso   1.00
C244   C     0.02143   0.72517   0.88562   0.00000  Uiso   1.00
C245   C     0.95468   0.75554   0.91131   0.00000  Uiso   1.00
C246   C     0.86289   0.72861   0.91400   0.00000  Uiso   1.00
C247   C     0.81337   0.76401   0.93918   0.00000  Uiso   1.00
C248   C     0.10399   0.68203   0.90239   0.00000  Uiso   1.00
C249   C     0.13775   0.59330   0.89757   0.00000  Uiso   1.00
C250   C     0.21394   0.56681   0.91523   0.00000  Uiso   1.00
C251   C     0.05723   0.81382   0.87053   0.00000  Uiso   1.00
C252   C     0.05169   0.83589   0.83892   0.00000  Uiso   1.00
C253   C     0.08854   0.92035   0.82976   0.00000  Uiso   1.00
H254   H     0.12855   0.88271   0.94242   0.00000  Uiso   1.00
H255   H     0.97785   0.89765   0.97495   0.00000  Uiso   1.00
H256   H     0.25267   0.76236   0.95851   0.00000  Uiso   1.00
H257   H     0.16662   0.00491   0.89987   0.00000  Uiso   1.00
H258   H     0.79274   0.88766   0.00145   0.00000  Uiso   1.00
H259   H     0.37224   0.60241   0.96679   0.00000  Uiso   1.00
H260   H     0.19080   0.11388   0.84314   0.00000  Uiso   1.00
H261   H     0.98960   0.67835   0.86874   0.00000  Uiso   1.00
H262   H     0.83126   0.68207   0.89722   0.00000  Uiso   1.00
H263   H     0.10609   0.54679   0.88079   0.00000  Uiso   1.00
H264   H     0.02005   0.78933   0.82215   0.00000  Uiso   1.00
H265   H     0.67377   0.71269   0.93837   0.00000  Uiso   1.00
H266   H     0.25327   0.42744   0.90371   0.00000  Uiso   1.00
H267   H     0.07183   0.93890   0.78005   0.00000  Uiso   1.00
O268   O     0.63162   0.80629   0.98998   0.00000  Uiso   1.00
O269   O     0.39190   0.43206   0.94451   0.00000  Uiso   1.00
O270   O     0.15386   0.10309   0.78228   0.00000  Uiso   1.00
N271   N     0.78646   0.84598   0.98269   0.00000  Uiso   1.00
N272   N     0.32825   0.57929   0.95029   0.00000  Uiso   1.00
N273   N     0.15865   0.05745   0.83469   0.00000  Uiso   1.00
N274   N     0.72245   0.75183   0.94875   0.00000  Uiso   1.00
N275   N     0.26424   0.48514   0.91635   0.00000  Uiso   1.00
N276   N     0.09463   0.96330   0.80074   0.00000  Uiso   1.00
C277   C     0.90329   0.16411   0.92554   0.00000  Uiso   1.00
C278   C     0.00444   0.18432   0.93299   0.00000  Uiso   1.00
C279   C     0.05383   0.14889   0.95817   0.00000  Uiso   1.00
C280   C     0.14566   0.17575   0.96090   0.00000  Uiso   1.00
C281   C     0.29649   0.19803   0.97578   0.00000  Uiso   1.00
C282   C     0.85513   0.25783   0.92407   0.00000  Uiso   1.00
C283   C     0.77896   0.28420   0.94174   0.00000  Uiso   1.00
C284   C     0.74510   0.37294   0.93695   0.00000  Uiso   1.00
C285   C     0.66408   0.50932   0.93796   0.00000  Uiso   1.00
C286   C     0.90188   0.12605   0.89221   0.00000  Uiso   1.00
C287   C     0.86501   0.04161   0.88309   0.00000  Uiso   1.00
C288   C     0.87050   0.01941   0.85148   0.00000  Uiso   1.00
C289   C     0.86207   0.95117   0.80302   0.00000  Uiso   1.00
C290   C     0.97857   0.27483   0.88562   0.00000  Uiso   1.00
C291   C     0.04532   0.24446   0.91131   0.00000  Uiso   1.00
C292   C     0.13711   0.27139   0.91400   0.00000  Uiso   1.00
C293   C     0.18663   0.23599   0.93918   0.00000  Uiso   1.00
C294   C     0.89601   0.31797   0.90239   0.00000  Uiso   1.00
C295   C     0.86225   0.40670   0.89757   0.00000  Uiso   1.00
C296   C     0.78606   0.43319   0.91523   0.00000  Uiso   1.00
C297   C     0.94277   0.18618   0.87053   0.00000  Uiso   1.00
C298   C     0.94831   0.16411   0.83892   0.00000  Uiso   1.00
C299   C     0.91146   0.07965   0.82976   0.00000  Uiso   1.00
H300   H     0.87145   0.11729   0.94242   0.00000  Uiso   1.00
H301   H     0.02215   0.10235   0.97495   0.00000  Uiso   1.00
H302   H     0.74733   0.23764   0.95851   0.00000  Uiso   1.00
H303   H     0.83338   0.99509   0.89987   0.00000  Uiso   1.00
H304   H     0.20726   0.11234   0.00145   0.00000  Uiso   1.00
H305   H     0.62776   0.39759   0.96679   0.00000  Uiso   1.00
H306   H     0.80920   0.88612   0.84314   0.00000  Uiso   1.00
H307   H     0.01040   0.32165   0.86874   0.00000  Uiso   1.00
H308   H     0.16874   0.31793   0.89722   0.00000  Uiso   1.00
H309   H     0.89391   0.45321   0.88079   0.00000  Uiso   1.00
H310   H     0.97995   0.21067   0.82215   0.00000  Uiso   1.00
H311   H     0.32623   0.28731   0.93837   0.00000  Uiso   1.00
H312   H     0.74673   0.57256   0.90371   0.00000  Uiso   1.00
H313   H     0.92817   0.06110   0.78005   0.00000  Uiso   1.00
O314   O     0.36838   0.19371   0.98998   0.00000  Uiso   1.00
O315   O     0.60810   0.56794   0.94451   0.00000  Uiso   1.00
O316   O     0.84614   0.89691   0.78228   0.00000  Uiso   1.00
N317   N     0.21354   0.15402   0.98269   0.00000  Uiso   1.00
N318   N     0.67175   0.42071   0.95029   0.00000  Uiso   1.00
N319   N     0.84135   0.94255   0.83469   0.00000  Uiso   1.00
N320   N     0.27755   0.24817   0.94875   0.00000  Uiso   1.00
N321   N     0.73576   0.51486   0.91635   0.00000  Uiso   1.00
N322   N     0.90537   0.03670   0.80074   0.00000  Uiso   1.00
C323   C     0.40329   0.66411   0.42554   0.00000  Uiso   1.00
C324   C     0.50444   0.68432   0.43299   0.00000  Uiso   1.00
C325   C     0.55383   0.64889   0.45817   0.00000  Uiso   1.00
C326   C     0.64566   0.67575   0.46090   0.00000  Uiso   1.00
C327   C     0.79649   0.69803   0.47578   0.00000  Uiso   1.00
C328   C     0.35513   0.75783   0.42407   0.00000  Uiso   1.00
C329   C     0.27896   0.78420   0.44174   0.00000  Uiso   1.00
C330   C     0.24510   0.87294   0.43695   0.00000  Uiso   1.00
C331   C     0.16408   0.00932   0.43796   0.00000  Uiso   1.00
C332   C     0.40188   0.62605   0.39221   0.00000  Uiso   1.00
C333   C     0.36501   0.54161   0.38309   0.00000  Uiso   1.00
C334   C     0.37050   0.51941   0.35148   0.00000  Uiso   1.00
C335   C     0.36207   0.45117   0.30302   0.00000  Uiso   1.00
C336   C     0.47857   0.77483   0.38562   0.00000  Uiso   1.00
C337   C     0.54532   0.74446   0.41131   0.00000  Uiso   1.00
C338   C     0.63711   0.77139   0.41400   0.00000  Uiso   1.00
C339   C     0.68663   0.73599   0.43918   0.00000  Uiso   1.00
C340   C     0.39601   0.81797   0.40239   0.00000  Uiso   1.00
C341   C     0.36225   0.90670   0.39757   0.00000  Uiso   1.00
C342   C     0.28606   0.93319   0.41523   0.00000  Uiso   1.00
C343   C     0.44277   0.68618   0.37053   0.00000  Uiso   1.00
C344   C     0.44831   0.66411   0.33892   0.00000  Uiso   1.00
C345   C     0.41146   0.57965   0.32976   0.00000  Uiso   1.00
H346   H     0.37145   0.61729   0.44242   0.00000  Uiso   1.00
H347   H     0.52215   0.60235   0.47495   0.00000  Uiso   1.00
H348   H     0.24733   0.73764   0.45851   0.00000  Uiso   1.00
H349   H     0.33338   0.49509   0.39987   0.00000  Uiso   1.00
H350   H     0.70726   0.61234   0.50145   0.00000  Uiso   1.00
H351   H     0.12776   0.89759   0.46679   0.00000  Uiso   1.00
H352   H     0.30920   0.38612   0.34314   0.00000  Uiso   1.00
H353   H     0.51040   0.82165   0.36874   0.00000  Uiso   1.00
H354   H     0.66874   0.81793   0.39722   0.00000  Uiso   1.00
H355   H     0.39391   0.95321   0.38079   0.00000  Uiso   1.00
H356   H     0.47995   0.71067   0.32215   0.00000  Uiso   1.00
H357   H     0.82623   0.78731   0.43837   0.00000  Uiso   1.00
H358   H     0.24673   0.07256   0.40371   0.00000  Uiso   1.00
H359   H     0.42817   0.56110   0.28005   0.00000  Uiso   1.00
O360   O     0.86838   0.69371   0.48998   0.00000  Uiso   1.00
O361   O     0.10810   0.06794   0.44451   0.00000  Uiso   1.00
O362   O     0.34614   0.39691   0.28228   0.00000  Uiso   1.00
N363   N     0.71354   0.65402   0.48269   0.00000  Uiso   1.00
N364   N     0.17175   0.92071   0.45029   0.00000  Uiso   1.00
N365   N     0.34135   0.44255   0.33469   0.00000  Uiso   1.00
N366   N     0.77755   0.74817   0.44875   0.00000  Uiso   1.00
N367   N     0.23576   0.01486   0.41635   0.00000  Uiso   1.00
N368   N     0.40537   0.53670   0.30074   0.00000  Uiso   1.00
C369   C     0.16411   0.09671   0.07446   0.00000  Uiso   1.00
C370   C     0.18432   0.99556   0.06701   0.00000  Uiso   1.00
C371   C     0.14889   0.94617   0.04183   0.00000  Uiso   1.00
C372   C     0.17575   0.85434   0.03910   0.00000  Uiso   1.00
C373   C     0.19803   0.70351   0.02422   0.00000  Uiso   1.00
C374   C     0.25783   0.14487   0.07593   0.00000  Uiso   1.00
C375   C     0.28420   0.22104   0.05826   0.00000  Uiso   1.00
C376   C     0.37294   0.25490   0.06305   0.00000  Uiso   1.00
C377   C     0.50932   0.33592   0.06204   0.00000  Uiso   1.00
C378   C     0.12605   0.09812   0.10779   0.00000  Uiso   1.00
C379   C     0.04161   0.13499   0.11691   0.00000  Uiso   1.00
C380   C     0.01941   0.12950   0.14852   0.00000  Uiso   1.00
C381   C     0.95117   0.13793   0.19698   0.00000  Uiso   1.00
C382   C     0.27483   0.02143   0.11438   0.00000  Uiso   1.00
C383   C     0.24446   0.95468   0.08869   0.00000  Uiso   1.00
C384   C     0.27139   0.86289   0.08600   0.00000  Uiso   1.00
C385   C     0.23599   0.81337   0.06082   0.00000  Uiso   1.00
C386   C     0.31797   0.10399   0.09761   0.00000  Uiso   1.00
C387   C     0.40670   0.13775   0.10243   0.00000  Uiso   1.00
C388   C     0.43319   0.21394   0.08477   0.00000  Uiso   1.00
C389   C     0.18618   0.05723   0.12947   0.00000  Uiso   1.00
C390   C     0.16411   0.05169   0.16108   0.00000  Uiso   1.00
C391   C     0.07965   0.08854   0.17024   0.00000  Uiso   1.00
H392   H     0.11729   0.12855   0.05758   0.00000  Uiso   1.00
H393   H     0.10235   0.97785   0.02505   0.00000  Uiso   1.00
H394   H     0.23764   0.25267   0.04149   0.00000  Uiso   1.00
H395   H     0.99509   0.16662   0.10013   0.00000  Uiso   1.00
H396   H     0.11234   0.79274   0.99855   0.00000  Uiso   1.00
H397   H     0.39759   0.37224   0.03321   0.00000  Uiso   1.00
H398   H     0.88612   0.19080   0.15686   0.00000  Uiso   1.00
H399   H     0.32165   0.98960   0.13126   0.00000  Uiso   1.00
H400   H     0.31793   0.83126   0.10278   0.00000  Uiso   1.00
H401   H     0.45321   0.10609   0.11921   0.00000  Uiso   1.00
H402   H     0.21067   0.02005   0.17785   0.00000  Uiso   1.00
H403   H     0.28731   0.67377   0.06163   0.00000  Uiso   1.00
H404   H     0.57256   0.25327   0.09629   0.00000  Uiso   1.00
H405   H     0.06110   0.07183   0.21995   0.00000  Uiso   1.00
O406   O     0.19371   0.63162   0.01002   0.00000  Uiso   1.00
O407   O     0.56794   0.39190   0.05549   0.00000  Uiso   1.00
O408   O     0.89691   0.15386   0.21772   0.00000  Uiso   1.00
N409   N     0.15402   0.78646   0.01731   0.00000  Uiso   1.00
N410   N     0.42071   0.32825   0.04971   0.00000  Uiso   1.00
N411   N     0.94255   0.15865   0.16531   0.00000  Uiso   1.00
N412   N     0.24817   0.72245   0.05125   0.00000  Uiso   1.00
N413   N     0.51486   0.26424   0.08365   0.00000  Uiso   1.00
N414   N     0.03670   0.09463   0.19926   0.00000  Uiso   1.00
C415   C     0.66411   0.59671   0.57446   0.00000  Uiso   1.00
C416   C     0.68432   0.49556   0.56701   0.00000  Uiso   1.00
C417   C     0.64889   0.44617   0.54183   0.00000  Uiso   1.00
C418   C     0.67575   0.35434   0.53910   0.00000  Uiso   1.00
C419   C     0.69803   0.20351   0.52422   0.00000  Uiso   1.00
C420   C     0.75783   0.64487   0.57593   0.00000  Uiso   1.00
C421   C     0.78420   0.72104   0.55826   0.00000  Uiso   1.00
C422   C     0.87294   0.75490   0.56305   0.00000  Uiso   1.00
C423   C     0.00932   0.83592   0.56204   0.00000  Uiso   1.00
C424   C     0.62605   0.59812   0.60779   0.00000  Uiso   1.00
C425   C     0.54161   0.63499   0.61691   0.00000  Uiso   1.00
C426   C     0.51941   0.62950   0.64852   0.00000  Uiso   1.00
C427   C     0.45117   0.63793   0.69698   0.00000  Uiso   1.00
C428   C     0.77483   0.52143   0.61438   0.00000  Uiso   1.00
C429   C     0.74446   0.45468   0.58869   0.00000  Uiso   1.00
C430   C     0.77139   0.36289   0.58600   0.00000  Uiso   1.00
C431   C     0.73599   0.31337   0.56082   0.00000  Uiso   1.00
C432   C     0.81797   0.60399   0.59761   0.00000  Uiso   1.00
C433   C     0.90670   0.63775   0.60243   0.00000  Uiso   1.00
C434   C     0.93319   0.71394   0.58477   0.00000  Uiso   1.00
C435   C     0.68618   0.55723   0.62947   0.00000  Uiso   1.00
C436   C     0.66411   0.55169   0.66108   0.00000  Uiso   1.00
C437   C     0.57965   0.58854   0.67024   0.00000  Uiso   1.00
H438   H     0.61729   0.62855   0.55758   0.00000  Uiso   1.00
H439   H     0.60235   0.47785   0.52505   0.00000  Uiso   1.00
H440   H     0.73764   0.75267   0.54149   0.00000  Uiso   1.00
H441   H     0.49509   0.66662   0.60013   0.00000  Uiso   1.00
H442   H     0.61234   0.29274   0.49855   0.00000  Uiso   1.00
H443   H     0.89759   0.87224   0.53321   0.00000  Uiso   1.00
H444   H     0.38612   0.69080   0.65686   0.00000  Uiso   1.00
H445   H     0.82165   0.48960   0.63126   0.00000  Uiso   1.00
H446   H     0.81793   0.33126   0.60278   0.00000  Uiso   1.00
H447   H     0.95321   0.60609   0.61921   0.00000  Uiso   1.00
H448   H     0.71067   0.52005   0.67785   0.00000  Uiso   1.00
H449   H     0.78731   0.17377   0.56163   0.00000  Uiso   1.00
H450   H     0.07256   0.75327   0.59629   0.00000  Uiso   1.00
H451   H     0.56110   0.57183   0.71995   0.00000  Uiso   1.00
O452   O     0.69371   0.13162   0.51002   0.00000  Uiso   1.00
O453   O     0.06794   0.89190   0.55549   0.00000  Uiso   1.00
O454   O     0.39691   0.65386   0.71772   0.00000  Uiso   1.00
N455   N     0.65402   0.28646   0.51731   0.00000  Uiso   1.00
N456   N     0.92071   0.82825   0.54971   0.00000  Uiso   1.00
N457   N     0.44255   0.65865   0.66531   0.00000  Uiso   1.00
N458   N     0.74817   0.22245   0.55125   0.00000  Uiso   1.00
N459   N     0.01486   0.76424   0.58365   0.00000  Uiso   1.00
N460   N     0.53670   0.59463   0.69926   0.00000  Uiso   1.00
C461   C     0.33589   0.40329   0.57446   0.00000  Uiso   1.00
C462   C     0.31568   0.50444   0.56701   0.00000  Uiso   1.00
C463   C     0.35111   0.55383   0.54183   0.00000  Uiso   1.00
C464   C     0.32425   0.64566   0.53910   0.00000  Uiso   1.00
C465   C     0.30197   0.79649   0.52422   0.00000  Uiso   1.00
C466   C     0.24217   0.35513   0.57593   0.00000  Uiso   1.00
C467   C     0.21580   0.27896   0.55826   0.00000  Uiso   1.00
C468   C     0.12706   0.24510   0.56305   0.00000  Uiso   1.00
C469   C     0.99068   0.16408   0.56204   0.00000  Uiso   1.00
C470   C     0.37395   0.40188   0.60779   0.00000  Uiso   1.00
C471   C     0.45839   0.36501   0.61691   0.00000  Uiso   1.00
C472   C     0.48059   0.37050   0.64852   0.00000  Uiso   1.00
C473   C     0.54883   0.36207   0.69698   0.00000  Uiso   1.00
C474   C     0.22517   0.47857   0.61438   0.00000  Uiso   1.00
C475   C     0.25554   0.54532   0.58869   0.00000  Uiso   1.00
C476   C     0.22861   0.63711   0.58600   0.00000  Uiso   1.00
C477   C     0.26401   0.68663   0.56082   0.00000  Uiso   1.00
C478   C     0.18203   0.39601   0.59761   0.00000  Uiso   1.00
C479   C     0.09330   0.36225   0.60243   0.00000  Uiso   1.00
C480   C     0.06681   0.28606   0.58477   0.00000  Uiso   1.00
C481   C     0.31382   0.44277   0.62947   0.00000  Uiso   1.00
C482   C     0.33589   0.44831   0.66108   0.00000  Uiso   1.00
C483   C     0.42035   0.41146   0.67024   0.00000  Uiso   1.00
H484   H     0.38271   0.37145   0.55758   0.00000  Uiso   1.00
H485   H     0.39765   0.52215   0.52505   0.00000  Uiso   1.00
H486   H     0.26236   0.24733   0.54149   0.00000  Uiso   1.00
H487   H     0.50491   0.33338   0.60013   0.00000  Uiso   1.00
H488   H     0.38766   0.70726   0.49855   0.00000  Uiso   1.00
H489   H     0.10241   0.12776   0.53321   0.00000  Uiso   1.00
H490   H     0.61388   0.30920   0.65686   0.00000  Uiso   1.00
H491   H     0.17835   0.51040   0.63126   0.00000  Uiso   1.00
H492   H     0.18207   0.66874   0.60278   0.00000  Uiso   1.00
H493   H     0.04679   0.39391   0.61921   0.00000  Uiso   1.00
H494   H     0.28933   0.47995   0.67785   0.00000  Uiso   1.00
H495   H     0.21269   0.82623   0.56163   0.00000  Uiso   1.00
H496   H     0.92744   0.24673   0.59629   0.00000  Uiso   1.00
H497   H     0.43890   0.42817   0.71995   0.00000  Uiso   1.00
O498   O     0.30629   0.86838   0.51002   0.00000  Uiso   1.00
O499   O     0.93206   0.10810   0.55549   0.00000  Uiso   1.00
O500   O     0.60309   0.34614   0.71772   0.00000  Uiso   1.00
N501   N     0.34598   0.71354   0.51731   0.00000  Uiso   1.00
N502   N     0.07929   0.17175   0.54971   0.00000  Uiso   1.00
N503   N     0.55745   0.34135   0.66531   0.00000  Uiso   1.00
N504   N     0.25183   0.77755   0.55125   0.00000  Uiso   1.00
N505   N     0.98514   0.23576   0.58365   0.00000  Uiso   1.00
N506   N     0.46330   0.40537   0.69926   0.00000  Uiso   1.00
C507   C     0.83589   0.90329   0.07446   0.00000  Uiso   1.00
C508   C     0.81568   0.00444   0.06701   0.00000  Uiso   1.00
C509   C     0.85111   0.05383   0.04183   0.00000  Uiso   1.00
C510   C     0.82425   0.14566   0.03910   0.00000  Uiso   1.00
C511   C     0.80197   0.29649   0.02422   0.00000  Uiso   1.00
C512   C     0.74217   0.85513   0.07593   0.00000  Uiso   1.00
C513   C     0.71580   0.77896   0.05826   0.00000  Uiso   1.00
C514   C     0.62706   0.74510   0.06305   0.00000  Uiso   1.00
C515   C     0.49068   0.66408   0.06204   0.00000  Uiso   1.00
C516   C     0.87395   0.90188   0.10779   0.00000  Uiso   1.00
C517   C     0.95839   0.86501   0.11691   0.00000  Uiso   1.00
C518   C     0.98059   0.87050   0.14852   0.00000  Uiso   1.00
C519   C     0.04883   0.86207   0.19698   0.00000  Uiso   1.00
C520   C     0.72517   0.97857   0.11438   0.00000  Uiso   1.00
C521   C     0.75554   0.04532   0.08869   0.00000  Uiso   1.00
C522   C     0.72861   0.13711   0.08600   0.00000  Uiso   1.00
C523   C     0.76401   0.18663   0.06082   0.00000  Uiso   1.00
C524   C     0.68203   0.89601   0.09761   0.00000  Uiso   1.00
C525   C     0.59330   0.86225   0.10243   0.00000  Uiso   1.00
C526   C     0.56681   0.78606   0.08477   0.00000  Uiso   1.00
C527   C     0.81382   0.94277   0.12947   0.00000  Uiso   1.00
C528   C     0.83589   0.94831   0.16108   0.00000  Uiso   1.00
C529   C     0.92035   0.91146   0.17024   0.00000  Uiso   1.00
H530   H     0.88271   0.87145   0.05758   0.00000  Uiso   1.00
H531   H     0.89765   0.02215   0.02505   0.00000  Uiso   1.00
H532   H     0.76236   0.74733   0.04149   0.00000  Uiso   1.00
H533   H     0.00491   0.83338   0.10013   0.00000  Uiso   1.00
H534   H     0.88766   0.20726   0.99855   0.00000  Uiso   1.00
H535   H     0.60241   0.62776   0.03321   0.00000  Uiso   1.00
H536   H     0.11388   0.80920   0.15686   0.00000  Uiso   1.00
H537   H     0.67835   0.01040   0.13126   0.00000  Uiso   1.00
H538   H     0.68207   0.16874   0.10278   0.00000  Uiso   1.00
H539   H     0.54679   0.89391   0.11921   0.00000  Uiso   1.00
H540   H     0.78933   0.97995   0.17785   0.00000  Uiso   1.00
H541   H     0.71269   0.32623   0.06163   0.00000  Uiso   1.00
H542   H     0.42744   0.74673   0.09629   0.00000  Uiso   1.00
H543   H     0.93890   0.92817   0.21995   0.00000  Uiso   1.00
O544   O     0.80629   0.36838   0.01002   0.00000  Uiso   1.00
O545   O     0.43206   0.60810   0.05549   0.00000  Uiso   1.00
O546   O     0.10309   0.84614   0.21772   0.00000  Uiso   1.00
N547   N     0.84598   0.21354   0.01731   0.00000  Uiso   1.00
N548   N     0.57929   0.67175   0.04971   0.00000  Uiso   1.00
N549   N     0.05745   0.84135   0.16531   0.00000  Uiso   1.00
N550   N     0.75183   0.27755   0.05125   0.00000  Uiso   1.00
N551   N     0.48514   0.73576   0.08365   0.00000  Uiso   1.00
N552   N     0.96330   0.90537   0.19926   0.00000  Uiso   1.00
C553   C     0.40329   0.16411   0.82446   0.00000  Uiso   1.00
C554   C     0.50444   0.18432   0.81701   0.00000  Uiso   1.00
C555   C     0.55383   0.14889   0.79183   0.00000  Uiso   1.00
C556   C     0.64566   0.17575   0.78910   0.00000  Uiso   1.00
C557   C     0.79649   0.19803   0.77422   0.00000  Uiso   1.00
C558   C     0.35513   0.25783   0.82593   0.00000  Uiso   1.00
C559   C     0.27896   0.28420   0.80826   0.00000  Uiso   1.00
C560   C     0.24510   0.37294   0.81305   0.00000  Uiso   1.00
C561   C     0.16408   0.50932   0.81204   0.00000  Uiso   1.00
C562   C     0.40188   0.12605   0.85779   0.00000  Uiso   1.00
C563   C     0.36501   0.04161   0.86691   0.00000  Uiso   1.00
C564   C     0.37050   0.01941   0.89852   0.00000  Uiso   1.00
C565   C     0.36207   0.95117   0.94698   0.00000  Uiso   1.00
C566   C     0.47857   0.27483   0.86438   0.00000  Uiso   1.00
C567   C     0.54532   0.24446   0.83869   0.00000  Uiso   1.00
C568   C     0.63711   0.27139   0.83600   0.00000  Uiso   1.00
C569   C     0.68663   0.23599   0.81082   0.00000  Uiso   1.00
C570   C     0.39601   0.31797   0.84761   0.00000  Uiso   1.00
C571   C     0.36225   0.40670   0.85243   0.00000  Uiso   1.00
C572   C     0.28606   0.43319   0.83477   0.00000  Uiso   1.00
C573   C     0.44277   0.18618   0.87947   0.00000  Uiso   1.00
C574   C     0.44831   0.16411   0.91108   0.00000  Uiso   1.00
C575   C     0.41146   0.07965   0.92024   0.00000  Uiso   1.00
H576   H     0.37145   0.11729   0.80758   0.00000  Uiso   1.00
H577   H     0.52215   0.10235   0.77505   0.00000  Uiso   1.00
H578   H     0.24733   0.23764   0.79149   0.00000  Uiso   1.00
H579   H     0.33338   0.99509   0.85013   0.00000  Uiso   1.00
H580   H     0.70726   0.11234   0.74855   0.00000  Uiso   1.00
H581   H     0.12776   0.39759   0.78321   0.00000  Uiso   1.00
H582   H     0.30920   0.88612   0.90686   0.00000  Uiso   1.00
H583   H     0.51040   0.32165   0.88126   0.00000  Uiso   1.00
H584   H     0.66874   0.31793   0.85278   0.00000  Uiso   1.00
H585   H     0.39391   0.45321   0.86921   0.00000  Uiso   1.00
H586   H     0.47995   0.21067   0.92785   0.00000  Uiso   1.00
H587   H     0.82623   0.28731   0.81163   0.00000  Uiso   1.00
H588   H     0.24673   0.57256   0.84629   0.00000  Uiso   1.00
H589   H     0.42817   0.06110   0.96995   0.00000  Uiso   1.00
O590   O     0.86838   0.19371   0.76002   0.00000  Uiso   1.00
O591   O     0.10810   0.56794   0.80549   0.00000  Uiso   1.00
O592   O     0.34614   0.89691   0.96772   0.00000  Uiso   1.00
N593   N     0.71354   0.15402   0.76731   0.00000  Uiso   1.00
N594   N     0.17175   0.42071   0.79971   0.00000  Uiso   1.00
N595   N     0.34135   0.94255   0.91531   0.00000  Uiso   1.00
N596   N     0.77755   0.24817   0.80125   0.00000  Uiso   1.00
N597   N     0.23576   0.51486   0.83365   0.00000  Uiso   1.00
N598   N     0.40537   0.03670   0.94926   0.00000  Uiso   1.00
C599   C     0.90329   0.66411   0.32446   0.00000  Uiso   1.00
C600   C     0.00444   0.68432   0.31701   0.00000  Uiso   1.00
C601   C     0.05383   0.64889   0.29183   0.00000  Uiso   1.00
C602   C     0.14566   0.67575   0.28910   0.00000  Uiso   1.00
C603   C     0.29649   0.69803   0.27422   0.00000  Uiso   1.00
C604   C     0.85513   0.75783   0.32593   0.00000  Uiso   1.00
C605   C     0.77896   0.78420   0.30826   0.00000  Uiso   1.00
C606   C     0.74510   0.87294   0.31305   0.00000  Uiso   1.00
C607   C     0.66408   0.00932   0.31204   0.00000  Uiso   1.00
C608   C     0.90188   0.62605   0.35779   0.00000  Uiso   1.00
C609   C     0.86501   0.54161   0.36691   0.00000  Uiso   1.00
C610   C     0.87050   0.51941   0.39852   0.00000  Uiso   1.00
C611   C     0.86207   0.45117   0.44698   0.00000  Uiso   1.00
C612   C     0.97857   0.77483   0.36438   0.00000  Uiso   1.00
C613   C     0.04532   0.74446   0.33869   0.00000  Uiso   1.00
C614   C     0.13711   0.77139   0.33600   0.00000  Uiso   1.00
C615   C     0.18663   0.73599   0.31082   0.00000  Uiso   1.00
C616   C     0.89601   0.81797   0.34761   0.00000  Uiso   1.00
C617   C     0.86225   0.90670   0.35243   0.00000  Uiso   1.00
C618   C     0.78606   0.93319   0.33477   0.00000  Uiso   1.00
C619   C     0.94277   0.68618   0.37947   0.00000  Uiso   1.00
C620   C     0.94831   0.66411   0.41108   0.00000  Uiso   1.00
C621   C     0.91146   0.57965   0.42024   0.00000  Uiso   1.00
H622   H     0.87145   0.61729   0.30758   0.00000  Uiso   1.00
H623   H     0.02215   0.60235   0.27505   0.00000  Uiso   1.00
H624   H     0.74733   0.73764   0.29149   0.00000  Uiso   1.00
H625   H     0.83338   0.49509   0.35013   0.00000  Uiso   1.00
H626   H     0.20726   0.61234   0.24855   0.00000  Uiso   1.00
H627   H     0.62776   0.89759   0.28321   0.00000  Uiso   1.00
H628   H     0.80920   0.38612   0.40686   0.00000  Uiso   1.00
H629   H     0.01040   0.82165   0.38126   0.00000  Uiso   1.00
H630   H     0.16874   0.81793   0.35278   0.00000  Uiso   1.00
H631   H     0.89391   0.95321   0.36921   0.00000  Uiso   1.00
H632   H     0.97995   0.71067   0.42785   0.00000  Uiso   1.00
H633   H     0.32623   0.78731   0.31163   0.00000  Uiso   1.00
H634   H     0.74673   0.07256   0.34629   0.00000  Uiso   1.00
H635   H     0.92817   0.56110   0.46995   0.00000  Uiso   1.00
O636   O     0.36838   0.69371   0.26002   0.00000  Uiso   1.00
O637   O     0.60810   0.06794   0.30549   0.00000  Uiso   1.00
O638   O     0.84614   0.39691   0.46772   0.00000  Uiso   1.00
N639   N     0.21354   0.65402   0.26731   0.00000  Uiso   1.00
N640   N     0.67175   0.92071   0.29971   0.00000  Uiso   1.00
N641   N     0.84135   0.44255   0.41531   0.00000  Uiso   1.00
N642   N     0.27755   0.74817   0.30125   0.00000  Uiso   1.00
N643   N     0.73576   0.01486   0.33365   0.00000  Uiso   1.00
N644   N     0.90537   0.53670   0.44926   0.00000  Uiso   1.00
C645   C     0.09671   0.33589   0.32446   0.00000  Uiso   1.00
C646   C     0.99556   0.31568   0.31701   0.00000  Uiso   1.00
C647   C     0.94617   0.35111   0.29183   0.00000  Uiso   1.00
C648   C     0.85434   0.32425   0.28910   0.00000  Uiso   1.00
C649   C     0.70351   0.30197   0.27422   0.00000  Uiso   1.00
C650   C     0.14487   0.24217   0.32593   0.00000  Uiso   1.00
C651   C     0.22104   0.21580   0.30826   0.00000  Uiso   1.00
C652   C     0.25490   0.12706   0.31305   0.00000  Uiso   1.00
C653   C     0.33592   0.99068   0.31204   0.00000  Uiso   1.00
C654   C     0.09812   0.37395   0.35779   0.00000  Uiso   1.00
C655   C     0.13499   0.45839   0.36691   0.00000  Uiso   1.00
C656   C     0.12950   0.48059   0.39852   0.00000  Uiso   1.00
C657   C     0.13793   0.54883   0.44698   0.00000  Uiso   1.00
C658   C     0.02143   0.22517   0.36438   0.00000  Uiso   1.00
C659   C     0.95468   0.25554   0.33869   0.00000  Uiso   1.00
C660   C     0.86289   0.22861   0.33600   0.00000  Uiso   1.00
C661   C     0.81337   0.26401   0.31082   0.00000  Uiso   1.00
C662   C     0.10399   0.18203   0.34761   0.00000  Uiso   1.00
C663   C     0.13775   0.09330   0.35243   0.00000  Uiso   1.00
C664   C     0.21394   0.06681   0.33477   0.00000  Uiso   1.00
C665   C     0.05723   0.31382   0.37947   0.00000  Uiso   1.00
C666   C     0.05169   0.33589   0.41108   0.00000  Uiso   1.00
C667   C     0.08854   0.42035   0.42024   0.00000  Uiso   1.00
H668   H     0.12855   0.38271   0.30758   0.00000  Uiso   1.00
H669   H     0.97785   0.39765   0.27505   0.00000  Uiso   1.00
H670   H     0.25267   0.26236   0.29149   0.00000  Uiso   1.00
H671   H     0.16662   0.50491   0.35013   0.00000  Uiso   1.00
H672   H     0.79274   0.38766   0.24855   0.00000  Uiso   1.00
H673   H     0.37224   0.10241   0.28321   0.00000  Uiso   1.00
H674   H     0.19080   0.61388   0.40686   0.00000  Uiso   1.00
H675   H     0.98960   0.17835   0.38126   0.00000  Uiso   1.00
H676   H     0.83126   0.18207   0.35278   0.00000  Uiso   1.00
H677   H     0.10609   0.04679   0.36921   0.00000  Uiso   1.00
H678   H     0.02005   0.28933   0.42785   0.00000  Uiso   1.00
H679   H     0.67377   0.21269   0.31163   0.00000  Uiso   1.00
H680   H     0.25327   0.92744   0.34629   0.00000  Uiso   1.00
H681   H     0.07183   0.43890   0.46995   0.00000  Uiso   1.00
O682   O     0.63162   0.30629   0.26002   0.00000  Uiso   1.00
O683   O     0.39190   0.93206   0.30549   0.00000  Uiso   1.00
O684   O     0.15386   0.60309   0.46772   0.00000  Uiso   1.00
N685   N     0.78646   0.34598   0.26731   0.00000  Uiso   1.00
N686   N     0.32825   0.07929   0.29971   0.00000  Uiso   1.00
N687   N     0.15865   0.55745   0.41531   0.00000  Uiso   1.00
N688   N     0.72245   0.25183   0.30125   0.00000  Uiso   1.00
N689   N     0.26424   0.98514   0.33365   0.00000  Uiso   1.00
N690   N     0.09463   0.46330   0.44926   0.00000  Uiso   1.00
C691   C     0.59671   0.83589   0.82446   0.00000  Uiso   1.00
C692   C     0.49556   0.81568   0.81701   0.00000  Uiso   1.00
C693   C     0.44617   0.85111   0.79183   0.00000  Uiso   1.00
C694   C     0.35434   0.82425   0.78910   0.00000  Uiso   1.00
C695   C     0.20351   0.80197   0.77422   0.00000  Uiso   1.00
C696   C     0.64487   0.74217   0.82593   0.00000  Uiso   1.00
C697   C     0.72104   0.71580   0.80826   0.00000  Uiso   1.00
C698   C     0.75490   0.62706   0.81305   0.00000  Uiso   1.00
C699   C     0.83592   0.49068   0.81204   0.00000  Uiso   1.00
C700   C     0.59812   0.87395   0.85779   0.00000  Uiso   1.00
C701   C     0.63499   0.95839   0.86691   0.00000  Uiso   1.00
C702   C     0.62950   0.98059   0.89852   0.00000  Uiso   1.00
C703   C     0.63793   0.04883   0.94698   0.00000  Uiso   1.00
C704   C     0.52143   0.72517   0.86438   0.00000  Uiso   1.00
C705   C     0.45468   0.75554   0.83869   0.00000  Uiso   1.00
C706   C     0.36289   0.72861   0.83600   0.00000  Uiso   1.00
C707   C     0.31337   0.76401   0.81082   0.00000  Uiso   1.00
C708   C     0.60399   0.68203   0.84761   0.00000  Uiso   1.00
C709   C     0.63775   0.59330   0.85243   0.00000  Uiso   1.00
C710   C     0.71394   0.56681   0.83477   0.00000  Uiso   1.00
C711   C     0.55723   0.81382   0.87947   0.00000  Uiso   1.00
C712   C     0.55169   0.83589   0.91108   0.00000  Uiso   1.00
C713   C     0.58854   0.92035   0.92024   0.00000  Uiso   1.00
H714   H     0.62855   0.88271   0.80758   0.00000  Uiso   1.00
H715   H     0.47785   0.89765   0.77505   0.00000  Uiso   1.00
H716   H     0.75267   0.76236   0.79149   0.00000  Uiso   1.00
H717   H     0.66662   0.00491   0.85013   0.00000  Uiso   1.00
H718   H     0.29274   0.88766   0.74855   0.00000  Uiso   1.00
H719   H     0.87224   0.60241   0.78321   0.00000  Uiso   1.00
H720   H     0.69080   0.11388   0.90686   0.00000  Uiso   1.00
H721   H     0.48960   0.67835   0.88126   0.00000  Uiso   1.00
H722   H     0.33126   0.68207   0.85278   0.00000  Uiso   1.00
H723   H     0.60609   0.54679   0.86921   0.00000  Uiso   1.00
H724   H     0.52005   0.78933   0.92785   0.00000  Uiso   1.00
H725   H     0.17377   0.71269   0.81163   0.00000  Uiso   1.00
H726   H     0.75327   0.42744   0.84629   0.00000  Uiso   1.00
H727   H     0.57183   0.93890   0.96995   0.00000  Uiso   1.00
O728   O     0.13162   0.80629   0.76002   0.00000  Uiso   1.00
O729   O     0.89190   0.43206   0.80549   0.00000  Uiso   1.00
O730   O     0.65386   0.10309   0.96772   0.00000  Uiso   1.00
N731   N     0.28646   0.84598   0.76731   0.00000  Uiso   1.00
N732   N     0.82825   0.57929   0.79971   0.00000  Uiso   1.00
N733   N     0.65865   0.05745   0.91531   0.00000  Uiso   1.00
N734   N     0.22245   0.75183   0.80125   0.00000  Uiso   1.00
N735   N     0.76424   0.48514   0.83365   0.00000  Uiso   1.00
N736   N     0.59463   0.96330   0.94926   0.00000  Uiso   1.00
