data_job_05755
_audit_creation_date              2018-12-19
_audit_creation_method            'Materials Studio'
_symmetry_space_group_name_H-M    'P1'
_symmetry_Int_Tables_number       1
_symmetry_cell_setting            triclinic
loop_
_symmetry_equiv_pos_as_xyz
  x,y,z
_cell_length_a                    20.1207
_cell_length_b                    52.8004
_cell_length_c                    12.5130
_cell_angle_alpha                 90.0000
_cell_angle_beta                  90.0000
_cell_angle_gamma                 90.0000
loop_
_atom_site_label
_atom_site_type_symbol
_atom_site_fract_x
_atom_site_fract_y
_atom_site_fract_z
_atom_site_U_iso_or_equiv
_atom_site_adp_type
_atom_site_occupancy
C1     C     0.38887   0.57060   0.19245   0.00000  Uiso   1.00
C2     C     0.34447   0.55727   0.11127   0.00000  Uiso   1.00
C3     C     0.36553   0.54627   0.01642   0.00000  Uiso   1.00
C4     C     0.31720   0.53501   0.95306   0.00000  Uiso   1.00
C5     C     0.25844   0.51435   0.82234   0.00000  Uiso   1.00
C6     C     0.36018   0.59714   0.20594   0.00000  Uiso   1.00
C7     C     0.39446   0.61966   0.19070   0.00000  Uiso   1.00
C8     C     0.35936   0.64197   0.20704   0.00000  Uiso   1.00
C9     C     0.32500   0.68321   0.22338   0.00000  Uiso   1.00
C10    C     0.37747   0.55710   0.29861   0.00000  Uiso   1.00
C11    C     0.42629   0.54596   0.36130   0.00000  Uiso   1.00
C12    C     0.40574   0.53456   0.45567   0.00000  Uiso   1.00
C13    C     0.39823   0.51364   0.61589   0.00000  Uiso   1.00
C14    C     0.26558   0.57017   0.24860   0.00000  Uiso   1.00
C15    C     0.27750   0.55703   0.14177   0.00000  Uiso   1.00
C16    C     0.22913   0.54579   0.07854   0.00000  Uiso   1.00
C17    C     0.25012   0.53477   0.98361   0.00000  Uiso   1.00
C18    C     0.29322   0.59691   0.23644   0.00000  Uiso   1.00
C19    C     0.25806   0.61918   0.25282   0.00000  Uiso   1.00
C20    C     0.29227   0.64173   0.23759   0.00000  Uiso   1.00
C21    C     0.31050   0.55687   0.32911   0.00000  Uiso   1.00
C22    C     0.28988   0.54548   0.42341   0.00000  Uiso   1.00
C23    C     0.33866   0.53433   0.48623   0.00000  Uiso   1.00
H24    H     0.44100   0.57078   0.16871   0.00000  Uiso   1.00
H25    H     0.41736   0.54645   0.99284   0.00000  Uiso   1.00
H26    H     0.44628   0.61984   0.16711   0.00000  Uiso   1.00
H27    H     0.47810   0.54615   0.33767   0.00000  Uiso   1.00
H28    H     0.36161   0.51938   0.81129   0.00000  Uiso   1.00
H29    H     0.42260   0.67412   0.17877   0.00000  Uiso   1.00
H30    H     0.48970   0.51872   0.53844   0.00000  Uiso   1.00
H31    H     0.21345   0.56999   0.27235   0.00000  Uiso   1.00
H32    H     0.17731   0.54561   0.10216   0.00000  Uiso   1.00
H33    H     0.20624   0.61900   0.27642   0.00000  Uiso   1.00
H34    H     0.23806   0.54530   0.44699   0.00000  Uiso   1.00
H35    H     0.16678   0.51870   0.90002   0.00000  Uiso   1.00
H36    H     0.22778   0.67343   0.26750   0.00000  Uiso   1.00
H37    H     0.29487   0.51804   0.62717   0.00000  Uiso   1.00
O38    O     0.24453   0.50303   0.74181   0.00000  Uiso   1.00
O39    O     0.32456   0.70603   0.22395   0.00000  Uiso   1.00
O40    O     0.41259   0.50216   0.69583   0.00000  Uiso   1.00
N41    N     0.32072   0.52256   0.85554   0.00000  Uiso   1.00
N42    N     0.37774   0.66723   0.19909   0.00000  Uiso   1.00
N43    N     0.44047   0.52196   0.53537   0.00000  Uiso   1.00
N44    N     0.21588   0.52219   0.90328   0.00000  Uiso   1.00
N45    N     0.27290   0.66686   0.24684   0.00000  Uiso   1.00
N46    N     0.33564   0.52159   0.58311   0.00000  Uiso   1.00
C47    C     0.38887   0.07060   0.69245   0.00000  Uiso   1.00
C48    C     0.34447   0.05727   0.61127   0.00000  Uiso   1.00
C49    C     0.36553   0.04627   0.51642   0.00000  Uiso   1.00
C50    C     0.31720   0.03501   0.45306   0.00000  Uiso   1.00
C51    C     0.25844   0.01435   0.32234   0.00000  Uiso   1.00
C52    C     0.36018   0.09714   0.70594   0.00000  Uiso   1.00
C53    C     0.39446   0.11966   0.69070   0.00000  Uiso   1.00
C54    C     0.35936   0.14197   0.70704   0.00000  Uiso   1.00
C55    C     0.32500   0.18321   0.72338   0.00000  Uiso   1.00
C56    C     0.37747   0.05710   0.79861   0.00000  Uiso   1.00
C57    C     0.42629   0.04596   0.86130   0.00000  Uiso   1.00
C58    C     0.40574   0.03456   0.95567   0.00000  Uiso   1.00
C59    C     0.39823   0.01364   0.11589   0.00000  Uiso   1.00
C60    C     0.26558   0.07017   0.74860   0.00000  Uiso   1.00
C61    C     0.27750   0.05703   0.64177   0.00000  Uiso   1.00
C62    C     0.22913   0.04579   0.57854   0.00000  Uiso   1.00
C63    C     0.25012   0.03477   0.48361   0.00000  Uiso   1.00
C64    C     0.29322   0.09691   0.73644   0.00000  Uiso   1.00
C65    C     0.25806   0.11918   0.75282   0.00000  Uiso   1.00
C66    C     0.29227   0.14173   0.73759   0.00000  Uiso   1.00
C67    C     0.31050   0.05687   0.82911   0.00000  Uiso   1.00
C68    C     0.28988   0.04548   0.92341   0.00000  Uiso   1.00
C69    C     0.33866   0.03433   0.98623   0.00000  Uiso   1.00
H70    H     0.44100   0.07078   0.66871   0.00000  Uiso   1.00
H71    H     0.41736   0.04645   0.49284   0.00000  Uiso   1.00
H72    H     0.44628   0.11984   0.66711   0.00000  Uiso   1.00
H73    H     0.47810   0.04615   0.83767   0.00000  Uiso   1.00
H74    H     0.36161   0.01938   0.31129   0.00000  Uiso   1.00
H75    H     0.42260   0.17412   0.67877   0.00000  Uiso   1.00
H76    H     0.48970   0.01872   0.03844   0.00000  Uiso   1.00
H77    H     0.21345   0.06999   0.77235   0.00000  Uiso   1.00
H78    H     0.17731   0.04561   0.60216   0.00000  Uiso   1.00
H79    H     0.20624   0.11900   0.77642   0.00000  Uiso   1.00
H80    H     0.23806   0.04530   0.94699   0.00000  Uiso   1.00
H81    H     0.16678   0.01870   0.40002   0.00000  Uiso   1.00
H82    H     0.22778   0.17343   0.76750   0.00000  Uiso   1.00
H83    H     0.29487   0.01804   0.12717   0.00000  Uiso   1.00
O84    O     0.24453   0.00303   0.24181   0.00000  Uiso   1.00
O85    O     0.32456   0.20603   0.72395   0.00000  Uiso   1.00
O86    O     0.41259   0.00216   0.19583   0.00000  Uiso   1.00
N87    N     0.32072   0.02256   0.35554   0.00000  Uiso   1.00
N88    N     0.37774   0.16723   0.69909   0.00000  Uiso   1.00
N89    N     0.44047   0.02196   0.03537   0.00000  Uiso   1.00
N90    N     0.21588   0.02219   0.40328   0.00000  Uiso   1.00
N91    N     0.27290   0.16686   0.74684   0.00000  Uiso   1.00
N92    N     0.33564   0.02159   0.08311   0.00000  Uiso   1.00
C93    C     0.88887   0.57060   0.69245   0.00000  Uiso   1.00
C94    C     0.84447   0.55727   0.61127   0.00000  Uiso   1.00
C95    C     0.86553   0.54627   0.51642   0.00000  Uiso   1.00
C96    C     0.81720   0.53501   0.45306   0.00000  Uiso   1.00
C97    C     0.75844   0.51435   0.32234   0.00000  Uiso   1.00
C98    C     0.86018   0.59714   0.70594   0.00000  Uiso   1.00
C99    C     0.89446   0.61966   0.69070   0.00000  Uiso   1.00
C100   C     0.85936   0.64197   0.70704   0.00000  Uiso   1.00
C101   C     0.82500   0.68321   0.72338   0.00000  Uiso   1.00
C102   C     0.87747   0.55710   0.79861   0.00000  Uiso   1.00
C103   C     0.92629   0.54596   0.86130   0.00000  Uiso   1.00
C104   C     0.90574   0.53456   0.95567   0.00000  Uiso   1.00
C105   C     0.89823   0.51364   0.11589   0.00000  Uiso   1.00
C106   C     0.76558   0.57017   0.74860   0.00000  Uiso   1.00
C107   C     0.77750   0.55703   0.64177   0.00000  Uiso   1.00
C108   C     0.72913   0.54579   0.57854   0.00000  Uiso   1.00
C109   C     0.75012   0.53477   0.48361   0.00000  Uiso   1.00
C110   C     0.79322   0.59691   0.73644   0.00000  Uiso   1.00
C111   C     0.75806   0.61918   0.75282   0.00000  Uiso   1.00
C112   C     0.79227   0.64173   0.73759   0.00000  Uiso   1.00
C113   C     0.81050   0.55687   0.82911   0.00000  Uiso   1.00
C114   C     0.78988   0.54548   0.92341   0.00000  Uiso   1.00
C115   C     0.83866   0.53433   0.98623   0.00000  Uiso   1.00
H116   H     0.94100   0.57078   0.66871   0.00000  Uiso   1.00
H117   H     0.91736   0.54645   0.49284   0.00000  Uiso   1.00
H118   H     0.94628   0.61984   0.66711   0.00000  Uiso   1.00
H119   H     0.97810   0.54615   0.83767   0.00000  Uiso   1.00
H120   H     0.86161   0.51938   0.31129   0.00000  Uiso   1.00
H121   H     0.92260   0.67412   0.67877   0.00000  Uiso   1.00
H122   H     0.98970   0.51872   0.03844   0.00000  Uiso   1.00
H123   H     0.71345   0.56999   0.77235   0.00000  Uiso   1.00
H124   H     0.67731   0.54561   0.60216   0.00000  Uiso   1.00
H125   H     0.70624   0.61900   0.77642   0.00000  Uiso   1.00
H126   H     0.73806   0.54530   0.94699   0.00000  Uiso   1.00
H127   H     0.66678   0.51870   0.40002   0.00000  Uiso   1.00
H128   H     0.72778   0.67343   0.76750   0.00000  Uiso   1.00
H129   H     0.79487   0.51804   0.12717   0.00000  Uiso   1.00
O130   O     0.74453   0.50303   0.24181   0.00000  Uiso   1.00
O131   O     0.82456   0.70603   0.72395   0.00000  Uiso   1.00
O132   O     0.91259   0.50216   0.19583   0.00000  Uiso   1.00
N133   N     0.82072   0.52256   0.35554   0.00000  Uiso   1.00
N134   N     0.87774   0.66723   0.69909   0.00000  Uiso   1.00
N135   N     0.94047   0.52196   0.03537   0.00000  Uiso   1.00
N136   N     0.71588   0.52219   0.40328   0.00000  Uiso   1.00
N137   N     0.77290   0.66686   0.74684   0.00000  Uiso   1.00
N138   N     0.83564   0.52159   0.08311   0.00000  Uiso   1.00
C139   C     0.88887   0.07060   0.19245   0.00000  Uiso   1.00
C140   C     0.84447   0.05727   0.11127   0.00000  Uiso   1.00
C141   C     0.86553   0.04627   0.01642   0.00000  Uiso   1.00
C142   C     0.81720   0.03501   0.95306   0.00000  Uiso   1.00
C143   C     0.75844   0.01435   0.82234   0.00000  Uiso   1.00
C144   C     0.86018   0.09714   0.20594   0.00000  Uiso   1.00
C145   C     0.89446   0.11966   0.19070   0.00000  Uiso   1.00
C146   C     0.85936   0.14197   0.20704   0.00000  Uiso   1.00
C147   C     0.82500   0.18321   0.22338   0.00000  Uiso   1.00
C148   C     0.87747   0.05710   0.29861   0.00000  Uiso   1.00
C149   C     0.92629   0.04596   0.36130   0.00000  Uiso   1.00
C150   C     0.90574   0.03456   0.45567   0.00000  Uiso   1.00
C151   C     0.89823   0.01364   0.61589   0.00000  Uiso   1.00
C152   C     0.76558   0.07017   0.24860   0.00000  Uiso   1.00
C153   C     0.77750   0.05703   0.14177   0.00000  Uiso   1.00
C154   C     0.72913   0.04579   0.07854   0.00000  Uiso   1.00
C155   C     0.75012   0.03477   0.98361   0.00000  Uiso   1.00
C156   C     0.79322   0.09691   0.23644   0.00000  Uiso   1.00
C157   C     0.75806   0.11918   0.25282   0.00000  Uiso   1.00
C158   C     0.79227   0.14173   0.23759   0.00000  Uiso   1.00
C159   C     0.81050   0.05687   0.32911   0.00000  Uiso   1.00
C160   C     0.78988   0.04548   0.42341   0.00000  Uiso   1.00
C161   C     0.83866   0.03433   0.48623   0.00000  Uiso   1.00
H162   H     0.94100   0.07078   0.16871   0.00000  Uiso   1.00
H163   H     0.91736   0.04645   0.99284   0.00000  Uiso   1.00
H164   H     0.94628   0.11984   0.16711   0.00000  Uiso   1.00
H165   H     0.97810   0.04615   0.33767   0.00000  Uiso   1.00
H166   H     0.86161   0.01938   0.81129   0.00000  Uiso   1.00
H167   H     0.92260   0.17412   0.17877   0.00000  Uiso   1.00
H168   H     0.98970   0.01872   0.53844   0.00000  Uiso   1.00
H169   H     0.71345   0.06999   0.27235   0.00000  Uiso   1.00
H170   H     0.67731   0.04561   0.10216   0.00000  Uiso   1.00
H171   H     0.70624   0.11900   0.27642   0.00000  Uiso   1.00
H172   H     0.73806   0.04530   0.44699   0.00000  Uiso   1.00
H173   H     0.66678   0.01870   0.90002   0.00000  Uiso   1.00
H174   H     0.72778   0.17343   0.26750   0.00000  Uiso   1.00
H175   H     0.79487   0.01804   0.62717   0.00000  Uiso   1.00
O176   O     0.74453   0.00303   0.74181   0.00000  Uiso   1.00
O177   O     0.82456   0.20603   0.22395   0.00000  Uiso   1.00
O178   O     0.91259   0.00216   0.69583   0.00000  Uiso   1.00
N179   N     0.82072   0.02256   0.85554   0.00000  Uiso   1.00
N180   N     0.87774   0.16723   0.19909   0.00000  Uiso   1.00
N181   N     0.94047   0.02196   0.53537   0.00000  Uiso   1.00
N182   N     0.71588   0.02219   0.90328   0.00000  Uiso   1.00
N183   N     0.77290   0.16686   0.24684   0.00000  Uiso   1.00
N184   N     0.83564   0.02159   0.58311   0.00000  Uiso   1.00
C185   C     0.61113   0.42940   0.19245   0.00000  Uiso   1.00
C186   C     0.65553   0.44273   0.11127   0.00000  Uiso   1.00
C187   C     0.63447   0.45373   0.01642   0.00000  Uiso   1.00
C188   C     0.68280   0.46499   0.95306   0.00000  Uiso   1.00
C189   C     0.74156   0.48565   0.82234   0.00000  Uiso   1.00
C190   C     0.63982   0.40286   0.20594   0.00000  Uiso   1.00
C191   C     0.60554   0.38034   0.19070   0.00000  Uiso   1.00
C192   C     0.64064   0.35803   0.20704   0.00000  Uiso   1.00
C193   C     0.67500   0.31679   0.22338   0.00000  Uiso   1.00
C194   C     0.62253   0.44290   0.29861   0.00000  Uiso   1.00
C195   C     0.57371   0.45404   0.36130   0.00000  Uiso   1.00
C196   C     0.59426   0.46544   0.45567   0.00000  Uiso   1.00
C197   C     0.60177   0.48636   0.61589   0.00000  Uiso   1.00
C198   C     0.73442   0.42983   0.24860   0.00000  Uiso   1.00
C199   C     0.72250   0.44297   0.14177   0.00000  Uiso   1.00
C200   C     0.77087   0.45421   0.07854   0.00000  Uiso   1.00
C201   C     0.74988   0.46523   0.98361   0.00000  Uiso   1.00
C202   C     0.70678   0.40309   0.23644   0.00000  Uiso   1.00
C203   C     0.74194   0.38082   0.25282   0.00000  Uiso   1.00
C204   C     0.70773   0.35827   0.23759   0.00000  Uiso   1.00
C205   C     0.68950   0.44313   0.32911   0.00000  Uiso   1.00
C206   C     0.71012   0.45452   0.42341   0.00000  Uiso   1.00
C207   C     0.66134   0.46567   0.48623   0.00000  Uiso   1.00
H208   H     0.55900   0.42922   0.16871   0.00000  Uiso   1.00
H209   H     0.58264   0.45355   0.99284   0.00000  Uiso   1.00
H210   H     0.55372   0.38016   0.16711   0.00000  Uiso   1.00
H211   H     0.52190   0.45385   0.33767   0.00000  Uiso   1.00
H212   H     0.63839   0.48062   0.81129   0.00000  Uiso   1.00
H213   H     0.57740   0.32588   0.17877   0.00000  Uiso   1.00
H214   H     0.51030   0.48128   0.53844   0.00000  Uiso   1.00
H215   H     0.78655   0.43001   0.27235   0.00000  Uiso   1.00
H216   H     0.82269   0.45439   0.10216   0.00000  Uiso   1.00
H217   H     0.79376   0.38100   0.27642   0.00000  Uiso   1.00
H218   H     0.76194   0.45470   0.44699   0.00000  Uiso   1.00
H219   H     0.83322   0.48130   0.90002   0.00000  Uiso   1.00
H220   H     0.77222   0.32657   0.26750   0.00000  Uiso   1.00
H221   H     0.70513   0.48196   0.62717   0.00000  Uiso   1.00
O222   O     0.75547   0.49697   0.74181   0.00000  Uiso   1.00
O223   O     0.67544   0.29397   0.22395   0.00000  Uiso   1.00
O224   O     0.58741   0.49784   0.69583   0.00000  Uiso   1.00
N225   N     0.67928   0.47744   0.85554   0.00000  Uiso   1.00
N226   N     0.62226   0.33277   0.19909   0.00000  Uiso   1.00
N227   N     0.55953   0.47804   0.53537   0.00000  Uiso   1.00
N228   N     0.78412   0.47781   0.90328   0.00000  Uiso   1.00
N229   N     0.72710   0.33314   0.24684   0.00000  Uiso   1.00
N230   N     0.66436   0.47841   0.58311   0.00000  Uiso   1.00
C231   C     0.61113   0.92940   0.69245   0.00000  Uiso   1.00
C232   C     0.65553   0.94273   0.61127   0.00000  Uiso   1.00
C233   C     0.63447   0.95373   0.51642   0.00000  Uiso   1.00
C234   C     0.68280   0.96499   0.45306   0.00000  Uiso   1.00
C235   C     0.74156   0.98565   0.32234   0.00000  Uiso   1.00
C236   C     0.63982   0.90286   0.70594   0.00000  Uiso   1.00
C237   C     0.60554   0.88034   0.69070   0.00000  Uiso   1.00
C238   C     0.64064   0.85803   0.70704   0.00000  Uiso   1.00
C239   C     0.67500   0.81679   0.72338   0.00000  Uiso   1.00
C240   C     0.62253   0.94290   0.79861   0.00000  Uiso   1.00
C241   C     0.57371   0.95404   0.86130   0.00000  Uiso   1.00
C242   C     0.59426   0.96544   0.95567   0.00000  Uiso   1.00
C243   C     0.60177   0.98636   0.11589   0.00000  Uiso   1.00
C244   C     0.73442   0.92983   0.74860   0.00000  Uiso   1.00
C245   C     0.72250   0.94297   0.64177   0.00000  Uiso   1.00
C246   C     0.77087   0.95421   0.57854   0.00000  Uiso   1.00
C247   C     0.74988   0.96523   0.48361   0.00000  Uiso   1.00
C248   C     0.70678   0.90309   0.73644   0.00000  Uiso   1.00
C249   C     0.74194   0.88082   0.75282   0.00000  Uiso   1.00
C250   C     0.70773   0.85827   0.73759   0.00000  Uiso   1.00
C251   C     0.68950   0.94313   0.82911   0.00000  Uiso   1.00
C252   C     0.71012   0.95452   0.92341   0.00000  Uiso   1.00
C253   C     0.66134   0.96567   0.98623   0.00000  Uiso   1.00
H254   H     0.55900   0.92922   0.66871   0.00000  Uiso   1.00
H255   H     0.58264   0.95355   0.49284   0.00000  Uiso   1.00
H256   H     0.55372   0.88016   0.66711   0.00000  Uiso   1.00
H257   H     0.52190   0.95385   0.83767   0.00000  Uiso   1.00
H258   H     0.63839   0.98062   0.31129   0.00000  Uiso   1.00
H259   H     0.57740   0.82588   0.67877   0.00000  Uiso   1.00
H260   H     0.51030   0.98128   0.03844   0.00000  Uiso   1.00
H261   H     0.78655   0.93001   0.77235   0.00000  Uiso   1.00
H262   H     0.82269   0.95439   0.60216   0.00000  Uiso   1.00
H263   H     0.79376   0.88100   0.77642   0.00000  Uiso   1.00
H264   H     0.76194   0.95470   0.94699   0.00000  Uiso   1.00
H265   H     0.83322   0.98130   0.40002   0.00000  Uiso   1.00
H266   H     0.77222   0.82657   0.76750   0.00000  Uiso   1.00
H267   H     0.70513   0.98196   0.12717   0.00000  Uiso   1.00
O268   O     0.75547   0.99697   0.24181   0.00000  Uiso   1.00
O269   O     0.67544   0.79397   0.72395   0.00000  Uiso   1.00
O270   O     0.58741   0.99784   0.19583   0.00000  Uiso   1.00
N271   N     0.67928   0.97744   0.35554   0.00000  Uiso   1.00
N272   N     0.62226   0.83277   0.69909   0.00000  Uiso   1.00
N273   N     0.55953   0.97804   0.03537   0.00000  Uiso   1.00
N274   N     0.78412   0.97781   0.40328   0.00000  Uiso   1.00
N275   N     0.72710   0.83314   0.74684   0.00000  Uiso   1.00
N276   N     0.66436   0.97841   0.08311   0.00000  Uiso   1.00
C277   C     0.11113   0.42940   0.69245   0.00000  Uiso   1.00
C278   C     0.15553   0.44273   0.61127   0.00000  Uiso   1.00
C279   C     0.13447   0.45373   0.51642   0.00000  Uiso   1.00
C280   C     0.18280   0.46499   0.45306   0.00000  Uiso   1.00
C281   C     0.24156   0.48565   0.32234   0.00000  Uiso   1.00
C282   C     0.13982   0.40286   0.70594   0.00000  Uiso   1.00
C283   C     0.10554   0.38034   0.69070   0.00000  Uiso   1.00
C284   C     0.14064   0.35803   0.70704   0.00000  Uiso   1.00
C285   C     0.17500   0.31679   0.72338   0.00000  Uiso   1.00
C286   C     0.12253   0.44290   0.79861   0.00000  Uiso   1.00
C287   C     0.07371   0.45404   0.86130   0.00000  Uiso   1.00
C288   C     0.09426   0.46544   0.95567   0.00000  Uiso   1.00
C289   C     0.10177   0.48636   0.11589   0.00000  Uiso   1.00
C290   C     0.23442   0.42983   0.74860   0.00000  Uiso   1.00
C291   C     0.22250   0.44297   0.64177   0.00000  Uiso   1.00
C292   C     0.27087   0.45421   0.57854   0.00000  Uiso   1.00
C293   C     0.24988   0.46523   0.48361   0.00000  Uiso   1.00
C294   C     0.20678   0.40309   0.73644   0.00000  Uiso   1.00
C295   C     0.24194   0.38082   0.75282   0.00000  Uiso   1.00
C296   C     0.20773   0.35827   0.73759   0.00000  Uiso   1.00
C297   C     0.18950   0.44313   0.82911   0.00000  Uiso   1.00
C298   C     0.21012   0.45452   0.92341   0.00000  Uiso   1.00
C299   C     0.16134   0.46567   0.98623   0.00000  Uiso   1.00
H300   H     0.05900   0.42922   0.66871   0.00000  Uiso   1.00
H301   H     0.08264   0.45355   0.49284   0.00000  Uiso   1.00
H302   H     0.05372   0.38016   0.66711   0.00000  Uiso   1.00
H303   H     0.02190   0.45385   0.83767   0.00000  Uiso   1.00
H304   H     0.13839   0.48062   0.31129   0.00000  Uiso   1.00
H305   H     0.07740   0.32588   0.67877   0.00000  Uiso   1.00
H306   H     0.01030   0.48128   0.03844   0.00000  Uiso   1.00
H307   H     0.28655   0.43001   0.77235   0.00000  Uiso   1.00
H308   H     0.32269   0.45439   0.60216   0.00000  Uiso   1.00
H309   H     0.29376   0.38100   0.77642   0.00000  Uiso   1.00
H310   H     0.26194   0.45470   0.94699   0.00000  Uiso   1.00
H311   H     0.33322   0.48130   0.40002   0.00000  Uiso   1.00
H312   H     0.27222   0.32657   0.76750   0.00000  Uiso   1.00
H313   H     0.20513   0.48196   0.12717   0.00000  Uiso   1.00
O314   O     0.25547   0.49697   0.24181   0.00000  Uiso   1.00
O315   O     0.17544   0.29397   0.72395   0.00000  Uiso   1.00
O316   O     0.08741   0.49784   0.19583   0.00000  Uiso   1.00
N317   N     0.17928   0.47744   0.35554   0.00000  Uiso   1.00
N318   N     0.12226   0.33277   0.69909   0.00000  Uiso   1.00
N319   N     0.05953   0.47804   0.03537   0.00000  Uiso   1.00
N320   N     0.28412   0.47781   0.40328   0.00000  Uiso   1.00
N321   N     0.22710   0.33314   0.74684   0.00000  Uiso   1.00
N322   N     0.16436   0.47841   0.08311   0.00000  Uiso   1.00
C323   C     0.11113   0.92940   0.19245   0.00000  Uiso   1.00
C324   C     0.15553   0.94273   0.11127   0.00000  Uiso   1.00
C325   C     0.13447   0.95373   0.01642   0.00000  Uiso   1.00
C326   C     0.18280   0.96499   0.95306   0.00000  Uiso   1.00
C327   C     0.24156   0.98565   0.82234   0.00000  Uiso   1.00
C328   C     0.13982   0.90286   0.20594   0.00000  Uiso   1.00
C329   C     0.10554   0.88034   0.19070   0.00000  Uiso   1.00
C330   C     0.14064   0.85803   0.20704   0.00000  Uiso   1.00
C331   C     0.17500   0.81679   0.22338   0.00000  Uiso   1.00
C332   C     0.12253   0.94290   0.29861   0.00000  Uiso   1.00
C333   C     0.07371   0.95404   0.36130   0.00000  Uiso   1.00
C334   C     0.09426   0.96544   0.45567   0.00000  Uiso   1.00
C335   C     0.10177   0.98636   0.61589   0.00000  Uiso   1.00
C336   C     0.23442   0.92983   0.24860   0.00000  Uiso   1.00
C337   C     0.22250   0.94297   0.14177   0.00000  Uiso   1.00
C338   C     0.27087   0.95421   0.07854   0.00000  Uiso   1.00
C339   C     0.24988   0.96523   0.98361   0.00000  Uiso   1.00
C340   C     0.20678   0.90309   0.23644   0.00000  Uiso   1.00
C341   C     0.24194   0.88082   0.25282   0.00000  Uiso   1.00
C342   C     0.20773   0.85827   0.23759   0.00000  Uiso   1.00
C343   C     0.18950   0.94313   0.32911   0.00000  Uiso   1.00
C344   C     0.21012   0.95452   0.42341   0.00000  Uiso   1.00
C345   C     0.16134   0.96567   0.48623   0.00000  Uiso   1.00
H346   H     0.05900   0.92922   0.16871   0.00000  Uiso   1.00
H347   H     0.08264   0.95355   0.99284   0.00000  Uiso   1.00
H348   H     0.05372   0.88016   0.16711   0.00000  Uiso   1.00
H349   H     0.02190   0.95385   0.33767   0.00000  Uiso   1.00
H350   H     0.13839   0.98062   0.81129   0.00000  Uiso   1.00
H351   H     0.07740   0.82588   0.17877   0.00000  Uiso   1.00
H352   H     0.01030   0.98128   0.53844   0.00000  Uiso   1.00
H353   H     0.28655   0.93001   0.27235   0.00000  Uiso   1.00
H354   H     0.32269   0.95439   0.10216   0.00000  Uiso   1.00
H355   H     0.29376   0.88100   0.27642   0.00000  Uiso   1.00
H356   H     0.26194   0.95470   0.44699   0.00000  Uiso   1.00
H357   H     0.33322   0.98130   0.90002   0.00000  Uiso   1.00
H358   H     0.27222   0.82657   0.26750   0.00000  Uiso   1.00
H359   H     0.20513   0.98196   0.62717   0.00000  Uiso   1.00
O360   O     0.25547   0.99697   0.74181   0.00000  Uiso   1.00
O361   O     0.17544   0.79397   0.22395   0.00000  Uiso   1.00
O362   O     0.08741   0.99784   0.69583   0.00000  Uiso   1.00
N363   N     0.17928   0.97744   0.85554   0.00000  Uiso   1.00
N364   N     0.12226   0.83277   0.19909   0.00000  Uiso   1.00
N365   N     0.05953   0.97804   0.53537   0.00000  Uiso   1.00
N366   N     0.28412   0.97781   0.90328   0.00000  Uiso   1.00
N367   N     0.22710   0.83314   0.24684   0.00000  Uiso   1.00
N368   N     0.16436   0.97841   0.58311   0.00000  Uiso   1.00
C369   C     0.63887   0.67940   0.44245   0.00000  Uiso   1.00
C370   C     0.59447   0.69273   0.36127   0.00000  Uiso   1.00
C371   C     0.61553   0.70373   0.26642   0.00000  Uiso   1.00
C372   C     0.56720   0.71499   0.20306   0.00000  Uiso   1.00
C373   C     0.50844   0.73565   0.07234   0.00000  Uiso   1.00
C374   C     0.61018   0.65286   0.45594   0.00000  Uiso   1.00
C375   C     0.64446   0.63034   0.44070   0.00000  Uiso   1.00
C376   C     0.60936   0.60803   0.45704   0.00000  Uiso   1.00
C377   C     0.57500   0.56679   0.47338   0.00000  Uiso   1.00
C378   C     0.62747   0.69290   0.54861   0.00000  Uiso   1.00
C379   C     0.67629   0.70404   0.61130   0.00000  Uiso   1.00
C380   C     0.65574   0.71544   0.70567   0.00000  Uiso   1.00
C381   C     0.64823   0.73636   0.86589   0.00000  Uiso   1.00
C382   C     0.51558   0.67983   0.49860   0.00000  Uiso   1.00
C383   C     0.52750   0.69297   0.39177   0.00000  Uiso   1.00
C384   C     0.47913   0.70421   0.32854   0.00000  Uiso   1.00
C385   C     0.50012   0.71523   0.23361   0.00000  Uiso   1.00
C386   C     0.54322   0.65309   0.48644   0.00000  Uiso   1.00
C387   C     0.50806   0.63082   0.50282   0.00000  Uiso   1.00
C388   C     0.54227   0.60827   0.48759   0.00000  Uiso   1.00
C389   C     0.56050   0.69313   0.57911   0.00000  Uiso   1.00
C390   C     0.53988   0.70452   0.67341   0.00000  Uiso   1.00
C391   C     0.58866   0.71567   0.73623   0.00000  Uiso   1.00
H392   H     0.69100   0.67922   0.41871   0.00000  Uiso   1.00
H393   H     0.66736   0.70355   0.24284   0.00000  Uiso   1.00
H394   H     0.69628   0.63016   0.41711   0.00000  Uiso   1.00
H395   H     0.72810   0.70385   0.58767   0.00000  Uiso   1.00
H396   H     0.61161   0.73062   0.06129   0.00000  Uiso   1.00
H397   H     0.67260   0.57588   0.42877   0.00000  Uiso   1.00
H398   H     0.73970   0.73128   0.78844   0.00000  Uiso   1.00
H399   H     0.46345   0.68001   0.52235   0.00000  Uiso   1.00
H400   H     0.42731   0.70439   0.35216   0.00000  Uiso   1.00
H401   H     0.45624   0.63100   0.52642   0.00000  Uiso   1.00
H402   H     0.48806   0.70470   0.69699   0.00000  Uiso   1.00
H403   H     0.41678   0.73130   0.15002   0.00000  Uiso   1.00
H404   H     0.47778   0.57657   0.51750   0.00000  Uiso   1.00
H405   H     0.54487   0.73196   0.87717   0.00000  Uiso   1.00
O406   O     0.49453   0.74697   0.99181   0.00000  Uiso   1.00
O407   O     0.57456   0.54397   0.47395   0.00000  Uiso   1.00
O408   O     0.66259   0.74784   0.94583   0.00000  Uiso   1.00
N409   N     0.57072   0.72744   0.10554   0.00000  Uiso   1.00
N410   N     0.62774   0.58277   0.44909   0.00000  Uiso   1.00
N411   N     0.69047   0.72804   0.78537   0.00000  Uiso   1.00
N412   N     0.46588   0.72781   0.15328   0.00000  Uiso   1.00
N413   N     0.52290   0.58314   0.49684   0.00000  Uiso   1.00
N414   N     0.58564   0.72841   0.83311   0.00000  Uiso   1.00
C415   C     0.63887   0.17940   0.94245   0.00000  Uiso   1.00
C416   C     0.59447   0.19273   0.86127   0.00000  Uiso   1.00
C417   C     0.61553   0.20373   0.76642   0.00000  Uiso   1.00
C418   C     0.56720   0.21499   0.70306   0.00000  Uiso   1.00
C419   C     0.50844   0.23565   0.57234   0.00000  Uiso   1.00
C420   C     0.61018   0.15286   0.95594   0.00000  Uiso   1.00
C421   C     0.64446   0.13034   0.94070   0.00000  Uiso   1.00
C422   C     0.60936   0.10803   0.95704   0.00000  Uiso   1.00
C423   C     0.57500   0.06679   0.97338   0.00000  Uiso   1.00
C424   C     0.62747   0.19290   0.04861   0.00000  Uiso   1.00
C425   C     0.67629   0.20404   0.11130   0.00000  Uiso   1.00
C426   C     0.65574   0.21544   0.20567   0.00000  Uiso   1.00
C427   C     0.64823   0.23636   0.36589   0.00000  Uiso   1.00
C428   C     0.51558   0.17983   0.99860   0.00000  Uiso   1.00
C429   C     0.52750   0.19297   0.89177   0.00000  Uiso   1.00
C430   C     0.47913   0.20421   0.82854   0.00000  Uiso   1.00
C431   C     0.50012   0.21523   0.73361   0.00000  Uiso   1.00
C432   C     0.54322   0.15309   0.98644   0.00000  Uiso   1.00
C433   C     0.50806   0.13082   0.00282   0.00000  Uiso   1.00
C434   C     0.54227   0.10827   0.98759   0.00000  Uiso   1.00
C435   C     0.56050   0.19313   0.07911   0.00000  Uiso   1.00
C436   C     0.53988   0.20452   0.17341   0.00000  Uiso   1.00
C437   C     0.58866   0.21567   0.23623   0.00000  Uiso   1.00
H438   H     0.69100   0.17922   0.91871   0.00000  Uiso   1.00
H439   H     0.66736   0.20355   0.74284   0.00000  Uiso   1.00
H440   H     0.69628   0.13016   0.91711   0.00000  Uiso   1.00
H441   H     0.72810   0.20385   0.08767   0.00000  Uiso   1.00
H442   H     0.61161   0.23062   0.56129   0.00000  Uiso   1.00
H443   H     0.67260   0.07588   0.92877   0.00000  Uiso   1.00
H444   H     0.73970   0.23128   0.28844   0.00000  Uiso   1.00
H445   H     0.46345   0.18001   0.02235   0.00000  Uiso   1.00
H446   H     0.42731   0.20439   0.85216   0.00000  Uiso   1.00
H447   H     0.45624   0.13100   0.02642   0.00000  Uiso   1.00
H448   H     0.48806   0.20470   0.19699   0.00000  Uiso   1.00
H449   H     0.41678   0.23130   0.65002   0.00000  Uiso   1.00
H450   H     0.47778   0.07657   0.01750   0.00000  Uiso   1.00
H451   H     0.54487   0.23196   0.37717   0.00000  Uiso   1.00
O452   O     0.49453   0.24697   0.49181   0.00000  Uiso   1.00
O453   O     0.57456   0.04397   0.97395   0.00000  Uiso   1.00
O454   O     0.66259   0.24784   0.44583   0.00000  Uiso   1.00
N455   N     0.57072   0.22744   0.60554   0.00000  Uiso   1.00
N456   N     0.62774   0.08277   0.94909   0.00000  Uiso   1.00
N457   N     0.69047   0.22804   0.28537   0.00000  Uiso   1.00
N458   N     0.46588   0.22781   0.65328   0.00000  Uiso   1.00
N459   N     0.52290   0.08314   0.99684   0.00000  Uiso   1.00
N460   N     0.58564   0.22841   0.33311   0.00000  Uiso   1.00
C461   C     0.13887   0.67940   0.94245   0.00000  Uiso   1.00
C462   C     0.09447   0.69273   0.86127   0.00000  Uiso   1.00
C463   C     0.11553   0.70373   0.76642   0.00000  Uiso   1.00
C464   C     0.06720   0.71499   0.70306   0.00000  Uiso   1.00
C465   C     0.00844   0.73565   0.57234   0.00000  Uiso   1.00
C466   C     0.11018   0.65286   0.95594   0.00000  Uiso   1.00
C467   C     0.14446   0.63034   0.94070   0.00000  Uiso   1.00
C468   C     0.10936   0.60803   0.95704   0.00000  Uiso   1.00
C469   C     0.07500   0.56679   0.97338   0.00000  Uiso   1.00
C470   C     0.12747   0.69290   0.04861   0.00000  Uiso   1.00
C471   C     0.17629   0.70404   0.11130   0.00000  Uiso   1.00
C472   C     0.15574   0.71544   0.20567   0.00000  Uiso   1.00
C473   C     0.14823   0.73636   0.36589   0.00000  Uiso   1.00
C474   C     0.01558   0.67983   0.99860   0.00000  Uiso   1.00
C475   C     0.02750   0.69297   0.89177   0.00000  Uiso   1.00
C476   C     0.97913   0.70421   0.82854   0.00000  Uiso   1.00
C477   C     0.00012   0.71523   0.73361   0.00000  Uiso   1.00
C478   C     0.04322   0.65309   0.98644   0.00000  Uiso   1.00
C479   C     0.00806   0.63082   0.00282   0.00000  Uiso   1.00
C480   C     0.04227   0.60827   0.98759   0.00000  Uiso   1.00
C481   C     0.06050   0.69313   0.07911   0.00000  Uiso   1.00
C482   C     0.03988   0.70452   0.17341   0.00000  Uiso   1.00
C483   C     0.08866   0.71567   0.23623   0.00000  Uiso   1.00
H484   H     0.19100   0.67922   0.91871   0.00000  Uiso   1.00
H485   H     0.16736   0.70355   0.74284   0.00000  Uiso   1.00
H486   H     0.19628   0.63016   0.91711   0.00000  Uiso   1.00
H487   H     0.22810   0.70385   0.08767   0.00000  Uiso   1.00
H488   H     0.11161   0.73062   0.56129   0.00000  Uiso   1.00
H489   H     0.17260   0.57588   0.92877   0.00000  Uiso   1.00
H490   H     0.23970   0.73128   0.28844   0.00000  Uiso   1.00
H491   H     0.96345   0.68001   0.02235   0.00000  Uiso   1.00
H492   H     0.92731   0.70439   0.85216   0.00000  Uiso   1.00
H493   H     0.95624   0.63100   0.02642   0.00000  Uiso   1.00
H494   H     0.98806   0.70470   0.19699   0.00000  Uiso   1.00
H495   H     0.91678   0.73130   0.65002   0.00000  Uiso   1.00
H496   H     0.97778   0.57657   0.01750   0.00000  Uiso   1.00
H497   H     0.04487   0.73196   0.37717   0.00000  Uiso   1.00
O498   O     0.99453   0.74697   0.49181   0.00000  Uiso   1.00
O499   O     0.07456   0.54397   0.97395   0.00000  Uiso   1.00
O500   O     0.16259   0.74784   0.44583   0.00000  Uiso   1.00
N501   N     0.07072   0.72744   0.60554   0.00000  Uiso   1.00
N502   N     0.12774   0.58277   0.94909   0.00000  Uiso   1.00
N503   N     0.19047   0.72804   0.28537   0.00000  Uiso   1.00
N504   N     0.96588   0.72781   0.65328   0.00000  Uiso   1.00
N505   N     0.02290   0.58314   0.99684   0.00000  Uiso   1.00
N506   N     0.08564   0.72841   0.33311   0.00000  Uiso   1.00
C507   C     0.13887   0.17940   0.44245   0.00000  Uiso   1.00
C508   C     0.09447   0.19273   0.36127   0.00000  Uiso   1.00
C509   C     0.11553   0.20373   0.26642   0.00000  Uiso   1.00
C510   C     0.06720   0.21499   0.20306   0.00000  Uiso   1.00
C511   C     0.00844   0.23565   0.07234   0.00000  Uiso   1.00
C512   C     0.11018   0.15286   0.45594   0.00000  Uiso   1.00
C513   C     0.14446   0.13034   0.44070   0.00000  Uiso   1.00
C514   C     0.10936   0.10803   0.45704   0.00000  Uiso   1.00
C515   C     0.07500   0.06679   0.47338   0.00000  Uiso   1.00
C516   C     0.12747   0.19290   0.54861   0.00000  Uiso   1.00
C517   C     0.17629   0.20404   0.61130   0.00000  Uiso   1.00
C518   C     0.15574   0.21544   0.70567   0.00000  Uiso   1.00
C519   C     0.14823   0.23636   0.86589   0.00000  Uiso   1.00
C520   C     0.01558   0.17983   0.49860   0.00000  Uiso   1.00
C521   C     0.02750   0.19297   0.39177   0.00000  Uiso   1.00
C522   C     0.97913   0.20421   0.32854   0.00000  Uiso   1.00
C523   C     0.00012   0.21523   0.23361   0.00000  Uiso   1.00
C524   C     0.04322   0.15309   0.48644   0.00000  Uiso   1.00
C525   C     0.00806   0.13082   0.50282   0.00000  Uiso   1.00
C526   C     0.04227   0.10827   0.48759   0.00000  Uiso   1.00
C527   C     0.06050   0.19313   0.57911   0.00000  Uiso   1.00
C528   C     0.03988   0.20452   0.67341   0.00000  Uiso   1.00
C529   C     0.08866   0.21567   0.73623   0.00000  Uiso   1.00
H530   H     0.19100   0.17922   0.41871   0.00000  Uiso   1.00
H531   H     0.16736   0.20355   0.24284   0.00000  Uiso   1.00
H532   H     0.19628   0.13016   0.41711   0.00000  Uiso   1.00
H533   H     0.22810   0.20385   0.58767   0.00000  Uiso   1.00
H534   H     0.11161   0.23062   0.06129   0.00000  Uiso   1.00
H535   H     0.17260   0.07588   0.42877   0.00000  Uiso   1.00
H536   H     0.23970   0.23128   0.78844   0.00000  Uiso   1.00
H537   H     0.96345   0.18001   0.52235   0.00000  Uiso   1.00
H538   H     0.92731   0.20439   0.35216   0.00000  Uiso   1.00
H539   H     0.95624   0.13100   0.52642   0.00000  Uiso   1.00
H540   H     0.98806   0.20470   0.69699   0.00000  Uiso   1.00
H541   H     0.91678   0.23130   0.15002   0.00000  Uiso   1.00
H542   H     0.97778   0.07657   0.51750   0.00000  Uiso   1.00
H543   H     0.04487   0.23196   0.87717   0.00000  Uiso   1.00
O544   O     0.99453   0.24697   0.99181   0.00000  Uiso   1.00
O545   O     0.07456   0.04397   0.47395   0.00000  Uiso   1.00
O546   O     0.16259   0.24784   0.94583   0.00000  Uiso   1.00
N547   N     0.07072   0.22744   0.10554   0.00000  Uiso   1.00
N548   N     0.12774   0.08277   0.44909   0.00000  Uiso   1.00
N549   N     0.19047   0.22804   0.78537   0.00000  Uiso   1.00
N550   N     0.96588   0.22781   0.15328   0.00000  Uiso   1.00
N551   N     0.02290   0.08314   0.49684   0.00000  Uiso   1.00
N552   N     0.08564   0.22841   0.83311   0.00000  Uiso   1.00
C553   C     0.86113   0.82060   0.44245   0.00000  Uiso   1.00
C554   C     0.90553   0.80727   0.36127   0.00000  Uiso   1.00
C555   C     0.88447   0.79627   0.26642   0.00000  Uiso   1.00
C556   C     0.93280   0.78501   0.20306   0.00000  Uiso   1.00
C557   C     0.99156   0.76435   0.07234   0.00000  Uiso   1.00
C558   C     0.88982   0.84714   0.45594   0.00000  Uiso   1.00
C559   C     0.85554   0.86966   0.44070   0.00000  Uiso   1.00
C560   C     0.89064   0.89197   0.45704   0.00000  Uiso   1.00
C561   C     0.92500   0.93321   0.47338   0.00000  Uiso   1.00
C562   C     0.87253   0.80710   0.54861   0.00000  Uiso   1.00
C563   C     0.82371   0.79596   0.61130   0.00000  Uiso   1.00
C564   C     0.84426   0.78456   0.70567   0.00000  Uiso   1.00
C565   C     0.85177   0.76364   0.86589   0.00000  Uiso   1.00
C566   C     0.98442   0.82017   0.49860   0.00000  Uiso   1.00
C567   C     0.97250   0.80703   0.39177   0.00000  Uiso   1.00
C568   C     0.02087   0.79579   0.32854   0.00000  Uiso   1.00
C569   C     0.99988   0.78477   0.23361   0.00000  Uiso   1.00
C570   C     0.95678   0.84691   0.48644   0.00000  Uiso   1.00
C571   C     0.99194   0.86918   0.50282   0.00000  Uiso   1.00
C572   C     0.95773   0.89173   0.48759   0.00000  Uiso   1.00
C573   C     0.93950   0.80687   0.57911   0.00000  Uiso   1.00
C574   C     0.96012   0.79548   0.67341   0.00000  Uiso   1.00
C575   C     0.91134   0.78433   0.73623   0.00000  Uiso   1.00
H576   H     0.80900   0.82078   0.41871   0.00000  Uiso   1.00
H577   H     0.83264   0.79645   0.24284   0.00000  Uiso   1.00
H578   H     0.80372   0.86984   0.41711   0.00000  Uiso   1.00
H579   H     0.77190   0.79615   0.58767   0.00000  Uiso   1.00
H580   H     0.88839   0.76938   0.06129   0.00000  Uiso   1.00
H581   H     0.82740   0.92412   0.42877   0.00000  Uiso   1.00
H582   H     0.76030   0.76872   0.78844   0.00000  Uiso   1.00
H583   H     0.03655   0.81999   0.52235   0.00000  Uiso   1.00
H584   H     0.07269   0.79561   0.35216   0.00000  Uiso   1.00
H585   H     0.04376   0.86900   0.52642   0.00000  Uiso   1.00
H586   H     0.01194   0.79530   0.69699   0.00000  Uiso   1.00
H587   H     0.08322   0.76870   0.15002   0.00000  Uiso   1.00
H588   H     0.02222   0.92343   0.51750   0.00000  Uiso   1.00
H589   H     0.95513   0.76804   0.87717   0.00000  Uiso   1.00
O590   O     0.00547   0.75303   0.99181   0.00000  Uiso   1.00
O591   O     0.92544   0.95603   0.47395   0.00000  Uiso   1.00
O592   O     0.83741   0.75216   0.94583   0.00000  Uiso   1.00
N593   N     0.92928   0.77256   0.10554   0.00000  Uiso   1.00
N594   N     0.87226   0.91723   0.44909   0.00000  Uiso   1.00
N595   N     0.80953   0.77196   0.78537   0.00000  Uiso   1.00
N596   N     0.03412   0.77219   0.15328   0.00000  Uiso   1.00
N597   N     0.97710   0.91686   0.49684   0.00000  Uiso   1.00
N598   N     0.91436   0.77159   0.83311   0.00000  Uiso   1.00
C599   C     0.86113   0.32060   0.94245   0.00000  Uiso   1.00
C600   C     0.90553   0.30727   0.86127   0.00000  Uiso   1.00
C601   C     0.88447   0.29627   0.76642   0.00000  Uiso   1.00
C602   C     0.93280   0.28501   0.70306   0.00000  Uiso   1.00
C603   C     0.99156   0.26435   0.57234   0.00000  Uiso   1.00
C604   C     0.88982   0.34714   0.95594   0.00000  Uiso   1.00
C605   C     0.85554   0.36966   0.94070   0.00000  Uiso   1.00
C606   C     0.89064   0.39197   0.95704   0.00000  Uiso   1.00
C607   C     0.92500   0.43321   0.97338   0.00000  Uiso   1.00
C608   C     0.87253   0.30710   0.04861   0.00000  Uiso   1.00
C609   C     0.82371   0.29596   0.11130   0.00000  Uiso   1.00
C610   C     0.84426   0.28456   0.20567   0.00000  Uiso   1.00
C611   C     0.85177   0.26364   0.36589   0.00000  Uiso   1.00
C612   C     0.98442   0.32017   0.99860   0.00000  Uiso   1.00
C613   C     0.97250   0.30703   0.89177   0.00000  Uiso   1.00
C614   C     0.02087   0.29579   0.82854   0.00000  Uiso   1.00
C615   C     0.99988   0.28477   0.73361   0.00000  Uiso   1.00
C616   C     0.95678   0.34691   0.98644   0.00000  Uiso   1.00
C617   C     0.99194   0.36918   0.00282   0.00000  Uiso   1.00
C618   C     0.95773   0.39173   0.98759   0.00000  Uiso   1.00
C619   C     0.93950   0.30687   0.07911   0.00000  Uiso   1.00
C620   C     0.96012   0.29548   0.17341   0.00000  Uiso   1.00
C621   C     0.91134   0.28433   0.23623   0.00000  Uiso   1.00
H622   H     0.80900   0.32078   0.91871   0.00000  Uiso   1.00
H623   H     0.83264   0.29645   0.74284   0.00000  Uiso   1.00
H624   H     0.80372   0.36984   0.91711   0.00000  Uiso   1.00
H625   H     0.77190   0.29615   0.08767   0.00000  Uiso   1.00
H626   H     0.88839   0.26938   0.56129   0.00000  Uiso   1.00
H627   H     0.82740   0.42412   0.92877   0.00000  Uiso   1.00
H628   H     0.76030   0.26872   0.28844   0.00000  Uiso   1.00
H629   H     0.03655   0.31999   0.02235   0.00000  Uiso   1.00
H630   H     0.07269   0.29561   0.85216   0.00000  Uiso   1.00
H631   H     0.04376   0.36900   0.02642   0.00000  Uiso   1.00
H632   H     0.01194   0.29530   0.19699   0.00000  Uiso   1.00
H633   H     0.08322   0.26870   0.65002   0.00000  Uiso   1.00
H634   H     0.02222   0.42343   0.01750   0.00000  Uiso   1.00
H635   H     0.95513   0.26804   0.37717   0.00000  Uiso   1.00
O636   O     0.00547   0.25303   0.49181   0.00000  Uiso   1.00
O637   O     0.92544   0.45603   0.97395   0.00000  Uiso   1.00
O638   O     0.83741   0.25216   0.44583   0.00000  Uiso   1.00
N639   N     0.92928   0.27256   0.60554   0.00000  Uiso   1.00
N640   N     0.87226   0.41723   0.94909   0.00000  Uiso   1.00
N641   N     0.80953   0.27196   0.28537   0.00000  Uiso   1.00
N642   N     0.03412   0.27219   0.65328   0.00000  Uiso   1.00
N643   N     0.97710   0.41686   0.99684   0.00000  Uiso   1.00
N644   N     0.91436   0.27159   0.33311   0.00000  Uiso   1.00
C645   C     0.36113   0.82060   0.94245   0.00000  Uiso   1.00
C646   C     0.40553   0.80727   0.86127   0.00000  Uiso   1.00
C647   C     0.38447   0.79627   0.76642   0.00000  Uiso   1.00
C648   C     0.43280   0.78501   0.70306   0.00000  Uiso   1.00
C649   C     0.49156   0.76435   0.57234   0.00000  Uiso   1.00
C650   C     0.38982   0.84714   0.95594   0.00000  Uiso   1.00
C651   C     0.35554   0.86966   0.94070   0.00000  Uiso   1.00
C652   C     0.39064   0.89197   0.95704   0.00000  Uiso   1.00
C653   C     0.42500   0.93321   0.97338   0.00000  Uiso   1.00
C654   C     0.37253   0.80710   0.04861   0.00000  Uiso   1.00
C655   C     0.32371   0.79596   0.11130   0.00000  Uiso   1.00
C656   C     0.34426   0.78456   0.20567   0.00000  Uiso   1.00
C657   C     0.35177   0.76364   0.36589   0.00000  Uiso   1.00
C658   C     0.48442   0.82017   0.99860   0.00000  Uiso   1.00
C659   C     0.47250   0.80703   0.89177   0.00000  Uiso   1.00
C660   C     0.52087   0.79579   0.82854   0.00000  Uiso   1.00
C661   C     0.49988   0.78477   0.73361   0.00000  Uiso   1.00
C662   C     0.45678   0.84691   0.98644   0.00000  Uiso   1.00
C663   C     0.49194   0.86918   0.00282   0.00000  Uiso   1.00
C664   C     0.45773   0.89173   0.98759   0.00000  Uiso   1.00
C665   C     0.43950   0.80687   0.07911   0.00000  Uiso   1.00
C666   C     0.46012   0.79548   0.17341   0.00000  Uiso   1.00
C667   C     0.41134   0.78433   0.23623   0.00000  Uiso   1.00
H668   H     0.30900   0.82078   0.91871   0.00000  Uiso   1.00
H669   H     0.33264   0.79645   0.74284   0.00000  Uiso   1.00
H670   H     0.30372   0.86984   0.91711   0.00000  Uiso   1.00
H671   H     0.27190   0.79615   0.08767   0.00000  Uiso   1.00
H672   H     0.38839   0.76938   0.56129   0.00000  Uiso   1.00
H673   H     0.32740   0.92412   0.92877   0.00000  Uiso   1.00
H674   H     0.26030   0.76872   0.28844   0.00000  Uiso   1.00
H675   H     0.53655   0.81999   0.02235   0.00000  Uiso   1.00
H676   H     0.57269   0.79561   0.85216   0.00000  Uiso   1.00
H677   H     0.54376   0.86900   0.02642   0.00000  Uiso   1.00
H678   H     0.51194   0.79530   0.19699   0.00000  Uiso   1.00
H679   H     0.58322   0.76870   0.65002   0.00000  Uiso   1.00
H680   H     0.52222   0.92343   0.01750   0.00000  Uiso   1.00
H681   H     0.45513   0.76804   0.37717   0.00000  Uiso   1.00
O682   O     0.50547   0.75303   0.49181   0.00000  Uiso   1.00
O683   O     0.42544   0.95603   0.97395   0.00000  Uiso   1.00
O684   O     0.33741   0.75216   0.44583   0.00000  Uiso   1.00
N685   N     0.42928   0.77256   0.60554   0.00000  Uiso   1.00
N686   N     0.37226   0.91723   0.94909   0.00000  Uiso   1.00
N687   N     0.30953   0.77196   0.28537   0.00000  Uiso   1.00
N688   N     0.53412   0.77219   0.65328   0.00000  Uiso   1.00
N689   N     0.47710   0.91686   0.99684   0.00000  Uiso   1.00
N690   N     0.41436   0.77159   0.33311   0.00000  Uiso   1.00
C691   C     0.36113   0.32060   0.44245   0.00000  Uiso   1.00
C692   C     0.40553   0.30727   0.36127   0.00000  Uiso   1.00
C693   C     0.38447   0.29627   0.26642   0.00000  Uiso   1.00
C694   C     0.43280   0.28501   0.20306   0.00000  Uiso   1.00
C695   C     0.49156   0.26435   0.07234   0.00000  Uiso   1.00
C696   C     0.38982   0.34714   0.45594   0.00000  Uiso   1.00
C697   C     0.35554   0.36966   0.44070   0.00000  Uiso   1.00
C698   C     0.39064   0.39197   0.45704   0.00000  Uiso   1.00
C699   C     0.42500   0.43321   0.47338   0.00000  Uiso   1.00
C700   C     0.37253   0.30710   0.54861   0.00000  Uiso   1.00
C701   C     0.32371   0.29596   0.61130   0.00000  Uiso   1.00
C702   C     0.34426   0.28456   0.70567   0.00000  Uiso   1.00
C703   C     0.35177   0.26364   0.86589   0.00000  Uiso   1.00
C704   C     0.48442   0.32017   0.49860   0.00000  Uiso   1.00
C705   C     0.47250   0.30703   0.39177   0.00000  Uiso   1.00
C706   C     0.52087   0.29579   0.32854   0.00000  Uiso   1.00
C707   C     0.49988   0.28477   0.23361   0.00000  Uiso   1.00
C708   C     0.45678   0.34691   0.48644   0.00000  Uiso   1.00
C709   C     0.49194   0.36918   0.50282   0.00000  Uiso   1.00
C710   C     0.45773   0.39173   0.48759   0.00000  Uiso   1.00
C711   C     0.43950   0.30687   0.57911   0.00000  Uiso   1.00
C712   C     0.46012   0.29548   0.67341   0.00000  Uiso   1.00
C713   C     0.41134   0.28433   0.73623   0.00000  Uiso   1.00
H714   H     0.30900   0.32078   0.41871   0.00000  Uiso   1.00
H715   H     0.33264   0.29645   0.24284   0.00000  Uiso   1.00
H716   H     0.30372   0.36984   0.41711   0.00000  Uiso   1.00
H717   H     0.27190   0.29615   0.58767   0.00000  Uiso   1.00
H718   H     0.38839   0.26938   0.06129   0.00000  Uiso   1.00
H719   H     0.32740   0.42412   0.42877   0.00000  Uiso   1.00
H720   H     0.26030   0.26872   0.78844   0.00000  Uiso   1.00
H721   H     0.53655   0.31999   0.52235   0.00000  Uiso   1.00
H722   H     0.57269   0.29561   0.35216   0.00000  Uiso   1.00
H723   H     0.54376   0.36900   0.52642   0.00000  Uiso   1.00
H724   H     0.51194   0.29530   0.69699   0.00000  Uiso   1.00
H725   H     0.58322   0.26870   0.15002   0.00000  Uiso   1.00
H726   H     0.52222   0.42343   0.51750   0.00000  Uiso   1.00
H727   H     0.45513   0.26804   0.87717   0.00000  Uiso   1.00
O728   O     0.50547   0.25303   0.99181   0.00000  Uiso   1.00
O729   O     0.42544   0.45603   0.47395   0.00000  Uiso   1.00
O730   O     0.33741   0.25216   0.94583   0.00000  Uiso   1.00
N731   N     0.42928   0.27256   0.10554   0.00000  Uiso   1.00
N732   N     0.37226   0.41723   0.44909   0.00000  Uiso   1.00
N733   N     0.30953   0.27196   0.78537   0.00000  Uiso   1.00
N734   N     0.53412   0.27219   0.15328   0.00000  Uiso   1.00
N735   N     0.47710   0.41686   0.49684   0.00000  Uiso   1.00
N736   N     0.41436   0.27159   0.83311   0.00000  Uiso   1.00
