data_job_02536
_audit_creation_date              2018-12-19
_audit_creation_method            'Materials Studio'
_symmetry_space_group_name_H-M    'P1'
_symmetry_Int_Tables_number       1
_symmetry_cell_setting            triclinic
loop_
_symmetry_equiv_pos_as_xyz
  x,y,z
_cell_length_a                    26.3519
_cell_length_b                    26.3519
_cell_length_c                    15.4588
_cell_angle_alpha                 90.0000
_cell_angle_beta                  90.0000
_cell_angle_gamma                 90.0000
loop_
_atom_site_label
_atom_site_type_symbol
_atom_site_fract_x
_atom_site_fract_y
_atom_site_fract_z
_atom_site_U_iso_or_equiv
_atom_site_adp_type
_atom_site_occupancy
C1     C     0.03713   0.76531   0.36237   0.00000  Uiso   1.00
C2     C     0.07315   0.79138   0.42552   0.00000  Uiso   1.00
C3     C     0.06361   0.83636   0.46928   0.00000  Uiso   1.00
C4     C     0.10140   0.85398   0.52417   0.00000  Uiso   1.00
C5     C     0.15039   0.89849   0.62057   0.00000  Uiso   1.00
C6     C     0.06656   0.75948   0.27802   0.00000  Uiso   1.00
C7     C     0.05148   0.77765   0.19776   0.00000  Uiso   1.00
C8     C     0.08373   0.76841   0.12850   0.00000  Uiso   1.00
C9     C     0.12247   0.76337   0.99589   0.00000  Uiso   1.00
C10    C     0.02930   0.71171   0.39705   0.00000  Uiso   1.00
C11    C     0.98288   0.68970   0.41687   0.00000  Uiso   1.00
C12    C     0.98376   0.64024   0.44780   0.00000  Uiso   1.00
C13    C     0.96464   0.56103   0.50001   0.00000  Uiso   1.00
C14    C     0.12120   0.71662   0.38205   0.00000  Uiso   1.00
C15    C     0.11881   0.76493   0.43620   0.00000  Uiso   1.00
C16    C     0.15662   0.78248   0.49106   0.00000  Uiso   1.00
C17    C     0.14715   0.82748   0.53489   0.00000  Uiso   1.00
C18    C     0.11222   0.73304   0.28871   0.00000  Uiso   1.00
C19    C     0.14450   0.72377   0.21954   0.00000  Uiso   1.00
C20    C     0.12947   0.74192   0.13921   0.00000  Uiso   1.00
C21    C     0.07496   0.68526   0.40775   0.00000  Uiso   1.00
C22    C     0.07590   0.63583   0.43865   0.00000  Uiso   1.00
C23    C     0.02950   0.61375   0.45851   0.00000  Uiso   1.00
H24    H     0.00158   0.78591   0.35404   0.00000  Uiso   1.00
H25    H     0.02827   0.85682   0.46098   0.00000  Uiso   1.00
H26    H     0.01614   0.79811   0.18951   0.00000  Uiso   1.00
H27    H     0.94755   0.71018   0.40858   0.00000  Uiso   1.00
H28    H     0.07800   0.92379   0.58423   0.00000  Uiso   1.00
H29    H     0.05242   0.79998   0.01182   0.00000  Uiso   1.00
H30    H     0.90780   0.61456   0.47377   0.00000  Uiso   1.00
H31    H     0.15675   0.69602   0.39038   0.00000  Uiso   1.00
H32    H     0.19196   0.76201   0.49932   0.00000  Uiso   1.00
H33    H     0.17983   0.70330   0.22784   0.00000  Uiso   1.00
H34    H     0.11125   0.61537   0.44692   0.00000  Uiso   1.00
H35    H     0.21086   0.84683   0.61534   0.00000  Uiso   1.00
H36    H     0.18528   0.72302   0.04293   0.00000  Uiso   1.00
H37    H     0.04066   0.53761   0.50489   0.00000  Uiso   1.00
O38    O     0.16480   0.93035   0.67077   0.00000  Uiso   1.00
O39    O     0.13123   0.76791   0.91979   0.00000  Uiso   1.00
O40    O     0.94149   0.52465   0.52587   0.00000  Uiso   1.00
N41    N     0.10443   0.89662   0.57662   0.00000  Uiso   1.00
N42    N     0.08052   0.78087   0.04145   0.00000  Uiso   1.00
N43    N     0.94531   0.60752   0.47331   0.00000  Uiso   1.00
N44    N     0.17593   0.85521   0.59336   0.00000  Uiso   1.00
N45    N     0.15201   0.73946   0.05819   0.00000  Uiso   1.00
N46    N     0.01680   0.56611   0.49006   0.00000  Uiso   1.00
C47    C     0.53713   0.26531   0.86237   0.00000  Uiso   1.00
C48    C     0.57315   0.29138   0.92552   0.00000  Uiso   1.00
C49    C     0.56361   0.33636   0.96928   0.00000  Uiso   1.00
C50    C     0.60140   0.35398   0.02417   0.00000  Uiso   1.00
C51    C     0.65039   0.39849   0.12057   0.00000  Uiso   1.00
C52    C     0.56656   0.25948   0.77802   0.00000  Uiso   1.00
C53    C     0.55148   0.27765   0.69776   0.00000  Uiso   1.00
C54    C     0.58373   0.26841   0.62850   0.00000  Uiso   1.00
C55    C     0.62247   0.26337   0.49589   0.00000  Uiso   1.00
C56    C     0.52930   0.21171   0.89705   0.00000  Uiso   1.00
C57    C     0.48288   0.18970   0.91687   0.00000  Uiso   1.00
C58    C     0.48376   0.14024   0.94780   0.00000  Uiso   1.00
C59    C     0.46464   0.06103   0.00001   0.00000  Uiso   1.00
C60    C     0.62120   0.21662   0.88205   0.00000  Uiso   1.00
C61    C     0.61881   0.26493   0.93620   0.00000  Uiso   1.00
C62    C     0.65662   0.28248   0.99106   0.00000  Uiso   1.00
C63    C     0.64715   0.32748   0.03489   0.00000  Uiso   1.00
C64    C     0.61222   0.23304   0.78871   0.00000  Uiso   1.00
C65    C     0.64450   0.22377   0.71954   0.00000  Uiso   1.00
C66    C     0.62947   0.24192   0.63921   0.00000  Uiso   1.00
C67    C     0.57496   0.18526   0.90775   0.00000  Uiso   1.00
C68    C     0.57590   0.13583   0.93865   0.00000  Uiso   1.00
C69    C     0.52950   0.11375   0.95851   0.00000  Uiso   1.00
H70    H     0.50158   0.28591   0.85404   0.00000  Uiso   1.00
H71    H     0.52827   0.35682   0.96098   0.00000  Uiso   1.00
H72    H     0.51614   0.29811   0.68951   0.00000  Uiso   1.00
H73    H     0.44755   0.21018   0.90858   0.00000  Uiso   1.00
H74    H     0.57800   0.42379   0.08423   0.00000  Uiso   1.00
H75    H     0.55242   0.29998   0.51182   0.00000  Uiso   1.00
H76    H     0.40780   0.11456   0.97377   0.00000  Uiso   1.00
H77    H     0.65675   0.19602   0.89038   0.00000  Uiso   1.00
H78    H     0.69196   0.26201   0.99932   0.00000  Uiso   1.00
H79    H     0.67983   0.20330   0.72784   0.00000  Uiso   1.00
H80    H     0.61125   0.11537   0.94692   0.00000  Uiso   1.00
H81    H     0.71086   0.34683   0.11534   0.00000  Uiso   1.00
H82    H     0.68528   0.22302   0.54293   0.00000  Uiso   1.00
H83    H     0.54066   0.03761   0.00489   0.00000  Uiso   1.00
O84    O     0.66480   0.43035   0.17077   0.00000  Uiso   1.00
O85    O     0.63123   0.26791   0.41979   0.00000  Uiso   1.00
O86    O     0.44149   0.02465   0.02587   0.00000  Uiso   1.00
N87    N     0.60443   0.39662   0.07662   0.00000  Uiso   1.00
N88    N     0.58052   0.28087   0.54145   0.00000  Uiso   1.00
N89    N     0.44531   0.10752   0.97331   0.00000  Uiso   1.00
N90    N     0.67593   0.35521   0.09336   0.00000  Uiso   1.00
N91    N     0.65201   0.23946   0.55819   0.00000  Uiso   1.00
N92    N     0.51680   0.06611   0.99006   0.00000  Uiso   1.00
C93    C     0.46287   0.73469   0.86237   0.00000  Uiso   1.00
C94    C     0.42685   0.70862   0.92552   0.00000  Uiso   1.00
C95    C     0.43639   0.66364   0.96928   0.00000  Uiso   1.00
C96    C     0.39860   0.64602   0.02417   0.00000  Uiso   1.00
C97    C     0.34961   0.60151   0.12057   0.00000  Uiso   1.00
C98    C     0.43344   0.74052   0.77802   0.00000  Uiso   1.00
C99    C     0.44852   0.72235   0.69776   0.00000  Uiso   1.00
C100   C     0.41627   0.73159   0.62850   0.00000  Uiso   1.00
C101   C     0.37753   0.73663   0.49589   0.00000  Uiso   1.00
C102   C     0.47070   0.78829   0.89705   0.00000  Uiso   1.00
C103   C     0.51712   0.81030   0.91687   0.00000  Uiso   1.00
C104   C     0.51624   0.85976   0.94780   0.00000  Uiso   1.00
C105   C     0.53536   0.93897   0.00001   0.00000  Uiso   1.00
C106   C     0.37880   0.78338   0.88205   0.00000  Uiso   1.00
C107   C     0.38119   0.73507   0.93620   0.00000  Uiso   1.00
C108   C     0.34338   0.71752   0.99106   0.00000  Uiso   1.00
C109   C     0.35285   0.67252   0.03489   0.00000  Uiso   1.00
C110   C     0.38778   0.76696   0.78871   0.00000  Uiso   1.00
C111   C     0.35550   0.77623   0.71954   0.00000  Uiso   1.00
C112   C     0.37053   0.75808   0.63921   0.00000  Uiso   1.00
C113   C     0.42504   0.81474   0.90775   0.00000  Uiso   1.00
C114   C     0.42410   0.86417   0.93865   0.00000  Uiso   1.00
C115   C     0.47050   0.88625   0.95851   0.00000  Uiso   1.00
H116   H     0.49842   0.71409   0.85404   0.00000  Uiso   1.00
H117   H     0.47173   0.64318   0.96098   0.00000  Uiso   1.00
H118   H     0.48386   0.70189   0.68951   0.00000  Uiso   1.00
H119   H     0.55245   0.78982   0.90858   0.00000  Uiso   1.00
H120   H     0.42200   0.57621   0.08423   0.00000  Uiso   1.00
H121   H     0.44758   0.70002   0.51182   0.00000  Uiso   1.00
H122   H     0.59220   0.88544   0.97377   0.00000  Uiso   1.00
H123   H     0.34325   0.80398   0.89038   0.00000  Uiso   1.00
H124   H     0.30804   0.73799   0.99932   0.00000  Uiso   1.00
H125   H     0.32017   0.79670   0.72784   0.00000  Uiso   1.00
H126   H     0.38875   0.88463   0.94692   0.00000  Uiso   1.00
H127   H     0.28914   0.65317   0.11534   0.00000  Uiso   1.00
H128   H     0.31472   0.77698   0.54293   0.00000  Uiso   1.00
H129   H     0.45934   0.96239   0.00489   0.00000  Uiso   1.00
O130   O     0.33520   0.56965   0.17077   0.00000  Uiso   1.00
O131   O     0.36877   0.73209   0.41979   0.00000  Uiso   1.00
O132   O     0.55851   0.97535   0.02587   0.00000  Uiso   1.00
N133   N     0.39557   0.60338   0.07662   0.00000  Uiso   1.00
N134   N     0.41948   0.71913   0.54145   0.00000  Uiso   1.00
N135   N     0.55469   0.89248   0.97331   0.00000  Uiso   1.00
N136   N     0.32407   0.64479   0.09336   0.00000  Uiso   1.00
N137   N     0.34799   0.76054   0.55819   0.00000  Uiso   1.00
N138   N     0.48320   0.93389   0.99006   0.00000  Uiso   1.00
C139   C     0.96287   0.23469   0.36237   0.00000  Uiso   1.00
C140   C     0.92685   0.20862   0.42552   0.00000  Uiso   1.00
C141   C     0.93639   0.16364   0.46928   0.00000  Uiso   1.00
C142   C     0.89860   0.14602   0.52417   0.00000  Uiso   1.00
C143   C     0.84961   0.10151   0.62057   0.00000  Uiso   1.00
C144   C     0.93344   0.24052   0.27802   0.00000  Uiso   1.00
C145   C     0.94852   0.22235   0.19776   0.00000  Uiso   1.00
C146   C     0.91627   0.23159   0.12850   0.00000  Uiso   1.00
C147   C     0.87753   0.23663   0.99589   0.00000  Uiso   1.00
C148   C     0.97070   0.28829   0.39705   0.00000  Uiso   1.00
C149   C     0.01712   0.31030   0.41687   0.00000  Uiso   1.00
C150   C     0.01624   0.35976   0.44780   0.00000  Uiso   1.00
C151   C     0.03536   0.43897   0.50001   0.00000  Uiso   1.00
C152   C     0.87880   0.28338   0.38205   0.00000  Uiso   1.00
C153   C     0.88119   0.23507   0.43620   0.00000  Uiso   1.00
C154   C     0.84338   0.21752   0.49106   0.00000  Uiso   1.00
C155   C     0.85285   0.17252   0.53489   0.00000  Uiso   1.00
C156   C     0.88778   0.26696   0.28871   0.00000  Uiso   1.00
C157   C     0.85550   0.27623   0.21954   0.00000  Uiso   1.00
C158   C     0.87053   0.25808   0.13921   0.00000  Uiso   1.00
C159   C     0.92504   0.31474   0.40775   0.00000  Uiso   1.00
C160   C     0.92410   0.36417   0.43865   0.00000  Uiso   1.00
C161   C     0.97050   0.38625   0.45851   0.00000  Uiso   1.00
H162   H     0.99842   0.21409   0.35404   0.00000  Uiso   1.00
H163   H     0.97173   0.14318   0.46098   0.00000  Uiso   1.00
H164   H     0.98386   0.20189   0.18951   0.00000  Uiso   1.00
H165   H     0.05245   0.28982   0.40858   0.00000  Uiso   1.00
H166   H     0.92200   0.07621   0.58423   0.00000  Uiso   1.00
H167   H     0.94758   0.20002   0.01182   0.00000  Uiso   1.00
H168   H     0.09220   0.38544   0.47377   0.00000  Uiso   1.00
H169   H     0.84325   0.30398   0.39038   0.00000  Uiso   1.00
H170   H     0.80804   0.23799   0.49932   0.00000  Uiso   1.00
H171   H     0.82017   0.29670   0.22784   0.00000  Uiso   1.00
H172   H     0.88875   0.38463   0.44692   0.00000  Uiso   1.00
H173   H     0.78914   0.15317   0.61534   0.00000  Uiso   1.00
H174   H     0.81472   0.27698   0.04293   0.00000  Uiso   1.00
H175   H     0.95934   0.46239   0.50489   0.00000  Uiso   1.00
O176   O     0.83520   0.06965   0.67077   0.00000  Uiso   1.00
O177   O     0.86877   0.23209   0.91979   0.00000  Uiso   1.00
O178   O     0.05851   0.47535   0.52587   0.00000  Uiso   1.00
N179   N     0.89557   0.10338   0.57662   0.00000  Uiso   1.00
N180   N     0.91948   0.21913   0.04145   0.00000  Uiso   1.00
N181   N     0.05469   0.39248   0.47331   0.00000  Uiso   1.00
N182   N     0.82407   0.14479   0.59336   0.00000  Uiso   1.00
N183   N     0.84799   0.26054   0.05819   0.00000  Uiso   1.00
N184   N     0.98320   0.43389   0.49006   0.00000  Uiso   1.00
C185   C     0.23469   0.53713   0.61237   0.00000  Uiso   1.00
C186   C     0.20862   0.57315   0.67552   0.00000  Uiso   1.00
C187   C     0.16364   0.56361   0.71928   0.00000  Uiso   1.00
C188   C     0.14602   0.60140   0.77417   0.00000  Uiso   1.00
C189   C     0.10151   0.65039   0.87057   0.00000  Uiso   1.00
C190   C     0.24052   0.56656   0.52802   0.00000  Uiso   1.00
C191   C     0.22235   0.55148   0.44776   0.00000  Uiso   1.00
C192   C     0.23159   0.58373   0.37850   0.00000  Uiso   1.00
C193   C     0.23663   0.62247   0.24589   0.00000  Uiso   1.00
C194   C     0.28829   0.52930   0.64705   0.00000  Uiso   1.00
C195   C     0.31030   0.48288   0.66687   0.00000  Uiso   1.00
C196   C     0.35976   0.48376   0.69780   0.00000  Uiso   1.00
C197   C     0.43897   0.46464   0.75001   0.00000  Uiso   1.00
C198   C     0.28338   0.62120   0.63205   0.00000  Uiso   1.00
C199   C     0.23507   0.61881   0.68620   0.00000  Uiso   1.00
C200   C     0.21752   0.65662   0.74106   0.00000  Uiso   1.00
C201   C     0.17252   0.64715   0.78489   0.00000  Uiso   1.00
C202   C     0.26696   0.61222   0.53871   0.00000  Uiso   1.00
C203   C     0.27623   0.64450   0.46954   0.00000  Uiso   1.00
C204   C     0.25808   0.62947   0.38921   0.00000  Uiso   1.00
C205   C     0.31474   0.57496   0.65775   0.00000  Uiso   1.00
C206   C     0.36417   0.57590   0.68865   0.00000  Uiso   1.00
C207   C     0.38625   0.52950   0.70851   0.00000  Uiso   1.00
H208   H     0.21409   0.50158   0.60404   0.00000  Uiso   1.00
H209   H     0.14318   0.52827   0.71098   0.00000  Uiso   1.00
H210   H     0.20189   0.51614   0.43951   0.00000  Uiso   1.00
H211   H     0.28982   0.44755   0.65858   0.00000  Uiso   1.00
H212   H     0.07621   0.57800   0.83423   0.00000  Uiso   1.00
H213   H     0.20002   0.55242   0.26182   0.00000  Uiso   1.00
H214   H     0.38544   0.40780   0.72377   0.00000  Uiso   1.00
H215   H     0.30398   0.65675   0.64038   0.00000  Uiso   1.00
H216   H     0.23799   0.69196   0.74932   0.00000  Uiso   1.00
H217   H     0.29670   0.67983   0.47784   0.00000  Uiso   1.00
H218   H     0.38463   0.61125   0.69692   0.00000  Uiso   1.00
H219   H     0.15317   0.71086   0.86534   0.00000  Uiso   1.00
H220   H     0.27698   0.68528   0.29293   0.00000  Uiso   1.00
H221   H     0.46239   0.54066   0.75489   0.00000  Uiso   1.00
O222   O     0.06965   0.66480   0.92077   0.00000  Uiso   1.00
O223   O     0.23209   0.63123   0.16979   0.00000  Uiso   1.00
O224   O     0.47535   0.44149   0.77587   0.00000  Uiso   1.00
N225   N     0.10338   0.60443   0.82662   0.00000  Uiso   1.00
N226   N     0.21913   0.58052   0.29145   0.00000  Uiso   1.00
N227   N     0.39248   0.44531   0.72331   0.00000  Uiso   1.00
N228   N     0.14479   0.67593   0.84336   0.00000  Uiso   1.00
N229   N     0.26054   0.65201   0.30819   0.00000  Uiso   1.00
N230   N     0.43389   0.51680   0.74006   0.00000  Uiso   1.00
C231   C     0.73469   0.03713   0.11237   0.00000  Uiso   1.00
C232   C     0.70862   0.07315   0.17552   0.00000  Uiso   1.00
C233   C     0.66364   0.06361   0.21928   0.00000  Uiso   1.00
C234   C     0.64602   0.10140   0.27417   0.00000  Uiso   1.00
C235   C     0.60151   0.15039   0.37057   0.00000  Uiso   1.00
C236   C     0.74052   0.06656   0.02802   0.00000  Uiso   1.00
C237   C     0.72235   0.05148   0.94776   0.00000  Uiso   1.00
C238   C     0.73159   0.08373   0.87850   0.00000  Uiso   1.00
C239   C     0.73663   0.12247   0.74589   0.00000  Uiso   1.00
C240   C     0.78829   0.02930   0.14705   0.00000  Uiso   1.00
C241   C     0.81030   0.98288   0.16687   0.00000  Uiso   1.00
C242   C     0.85976   0.98376   0.19780   0.00000  Uiso   1.00
C243   C     0.93897   0.96464   0.25001   0.00000  Uiso   1.00
C244   C     0.78338   0.12120   0.13205   0.00000  Uiso   1.00
C245   C     0.73507   0.11881   0.18620   0.00000  Uiso   1.00
C246   C     0.71752   0.15662   0.24106   0.00000  Uiso   1.00
C247   C     0.67252   0.14715   0.28489   0.00000  Uiso   1.00
C248   C     0.76696   0.11222   0.03871   0.00000  Uiso   1.00
C249   C     0.77623   0.14450   0.96954   0.00000  Uiso   1.00
C250   C     0.75808   0.12947   0.88921   0.00000  Uiso   1.00
C251   C     0.81474   0.07496   0.15775   0.00000  Uiso   1.00
C252   C     0.86417   0.07590   0.18865   0.00000  Uiso   1.00
C253   C     0.88625   0.02950   0.20851   0.00000  Uiso   1.00
H254   H     0.71409   0.00158   0.10404   0.00000  Uiso   1.00
H255   H     0.64318   0.02827   0.21098   0.00000  Uiso   1.00
H256   H     0.70189   0.01614   0.93951   0.00000  Uiso   1.00
H257   H     0.78982   0.94755   0.15858   0.00000  Uiso   1.00
H258   H     0.57621   0.07800   0.33423   0.00000  Uiso   1.00
H259   H     0.70002   0.05242   0.76182   0.00000  Uiso   1.00
H260   H     0.88544   0.90780   0.22377   0.00000  Uiso   1.00
H261   H     0.80398   0.15675   0.14038   0.00000  Uiso   1.00
H262   H     0.73799   0.19196   0.24932   0.00000  Uiso   1.00
H263   H     0.79670   0.17983   0.97784   0.00000  Uiso   1.00
H264   H     0.88463   0.11125   0.19692   0.00000  Uiso   1.00
H265   H     0.65317   0.21086   0.36534   0.00000  Uiso   1.00
H266   H     0.77698   0.18528   0.79293   0.00000  Uiso   1.00
H267   H     0.96239   0.04066   0.25489   0.00000  Uiso   1.00
O268   O     0.56965   0.16480   0.42077   0.00000  Uiso   1.00
O269   O     0.73209   0.13123   0.66979   0.00000  Uiso   1.00
O270   O     0.97535   0.94149   0.27587   0.00000  Uiso   1.00
N271   N     0.60338   0.10443   0.32662   0.00000  Uiso   1.00
N272   N     0.71913   0.08052   0.79145   0.00000  Uiso   1.00
N273   N     0.89248   0.94531   0.22331   0.00000  Uiso   1.00
N274   N     0.64479   0.17593   0.34336   0.00000  Uiso   1.00
N275   N     0.76054   0.15201   0.80819   0.00000  Uiso   1.00
N276   N     0.93389   0.01680   0.24006   0.00000  Uiso   1.00
C277   C     0.26531   0.96287   0.11237   0.00000  Uiso   1.00
C278   C     0.29138   0.92685   0.17552   0.00000  Uiso   1.00
C279   C     0.33636   0.93639   0.21928   0.00000  Uiso   1.00
C280   C     0.35398   0.89860   0.27417   0.00000  Uiso   1.00
C281   C     0.39849   0.84961   0.37057   0.00000  Uiso   1.00
C282   C     0.25948   0.93344   0.02802   0.00000  Uiso   1.00
C283   C     0.27765   0.94852   0.94776   0.00000  Uiso   1.00
C284   C     0.26841   0.91627   0.87850   0.00000  Uiso   1.00
C285   C     0.26337   0.87753   0.74589   0.00000  Uiso   1.00
C286   C     0.21171   0.97070   0.14705   0.00000  Uiso   1.00
C287   C     0.18970   0.01712   0.16687   0.00000  Uiso   1.00
C288   C     0.14024   0.01624   0.19780   0.00000  Uiso   1.00
C289   C     0.06103   0.03536   0.25001   0.00000  Uiso   1.00
C290   C     0.21662   0.87880   0.13205   0.00000  Uiso   1.00
C291   C     0.26493   0.88119   0.18620   0.00000  Uiso   1.00
C292   C     0.28248   0.84338   0.24106   0.00000  Uiso   1.00
C293   C     0.32748   0.85285   0.28489   0.00000  Uiso   1.00
C294   C     0.23304   0.88778   0.03871   0.00000  Uiso   1.00
C295   C     0.22377   0.85550   0.96954   0.00000  Uiso   1.00
C296   C     0.24192   0.87053   0.88921   0.00000  Uiso   1.00
C297   C     0.18526   0.92504   0.15775   0.00000  Uiso   1.00
C298   C     0.13583   0.92410   0.18865   0.00000  Uiso   1.00
C299   C     0.11375   0.97050   0.20851   0.00000  Uiso   1.00
H300   H     0.28591   0.99842   0.10404   0.00000  Uiso   1.00
H301   H     0.35682   0.97173   0.21098   0.00000  Uiso   1.00
H302   H     0.29811   0.98386   0.93951   0.00000  Uiso   1.00
H303   H     0.21018   0.05245   0.15858   0.00000  Uiso   1.00
H304   H     0.42379   0.92200   0.33423   0.00000  Uiso   1.00
H305   H     0.29998   0.94758   0.76182   0.00000  Uiso   1.00
H306   H     0.11456   0.09220   0.22377   0.00000  Uiso   1.00
H307   H     0.19602   0.84325   0.14038   0.00000  Uiso   1.00
H308   H     0.26201   0.80804   0.24932   0.00000  Uiso   1.00
H309   H     0.20330   0.82017   0.97784   0.00000  Uiso   1.00
H310   H     0.11537   0.88875   0.19692   0.00000  Uiso   1.00
H311   H     0.34683   0.78914   0.36534   0.00000  Uiso   1.00
H312   H     0.22302   0.81472   0.79293   0.00000  Uiso   1.00
H313   H     0.03761   0.95934   0.25489   0.00000  Uiso   1.00
O314   O     0.43035   0.83520   0.42077   0.00000  Uiso   1.00
O315   O     0.26791   0.86877   0.66979   0.00000  Uiso   1.00
O316   O     0.02465   0.05851   0.27587   0.00000  Uiso   1.00
N317   N     0.39662   0.89557   0.32662   0.00000  Uiso   1.00
N318   N     0.28087   0.91948   0.79145   0.00000  Uiso   1.00
N319   N     0.10752   0.05469   0.22331   0.00000  Uiso   1.00
N320   N     0.35521   0.82407   0.34336   0.00000  Uiso   1.00
N321   N     0.23946   0.84799   0.80819   0.00000  Uiso   1.00
N322   N     0.06611   0.98320   0.24006   0.00000  Uiso   1.00
C323   C     0.76531   0.46287   0.61237   0.00000  Uiso   1.00
C324   C     0.79138   0.42685   0.67552   0.00000  Uiso   1.00
C325   C     0.83636   0.43639   0.71928   0.00000  Uiso   1.00
C326   C     0.85398   0.39860   0.77417   0.00000  Uiso   1.00
C327   C     0.89849   0.34961   0.87057   0.00000  Uiso   1.00
C328   C     0.75948   0.43344   0.52802   0.00000  Uiso   1.00
C329   C     0.77765   0.44852   0.44776   0.00000  Uiso   1.00
C330   C     0.76841   0.41627   0.37850   0.00000  Uiso   1.00
C331   C     0.76337   0.37753   0.24589   0.00000  Uiso   1.00
C332   C     0.71171   0.47070   0.64705   0.00000  Uiso   1.00
C333   C     0.68970   0.51712   0.66687   0.00000  Uiso   1.00
C334   C     0.64024   0.51624   0.69780   0.00000  Uiso   1.00
C335   C     0.56103   0.53536   0.75001   0.00000  Uiso   1.00
C336   C     0.71662   0.37880   0.63205   0.00000  Uiso   1.00
C337   C     0.76493   0.38119   0.68620   0.00000  Uiso   1.00
C338   C     0.78248   0.34338   0.74106   0.00000  Uiso   1.00
C339   C     0.82748   0.35285   0.78489   0.00000  Uiso   1.00
C340   C     0.73304   0.38778   0.53871   0.00000  Uiso   1.00
C341   C     0.72377   0.35550   0.46954   0.00000  Uiso   1.00
C342   C     0.74192   0.37053   0.38921   0.00000  Uiso   1.00
C343   C     0.68526   0.42504   0.65775   0.00000  Uiso   1.00
C344   C     0.63583   0.42410   0.68865   0.00000  Uiso   1.00
C345   C     0.61375   0.47050   0.70851   0.00000  Uiso   1.00
H346   H     0.78591   0.49842   0.60404   0.00000  Uiso   1.00
H347   H     0.85682   0.47173   0.71098   0.00000  Uiso   1.00
H348   H     0.79811   0.48386   0.43951   0.00000  Uiso   1.00
H349   H     0.71018   0.55245   0.65858   0.00000  Uiso   1.00
H350   H     0.92379   0.42200   0.83423   0.00000  Uiso   1.00
H351   H     0.79998   0.44758   0.26182   0.00000  Uiso   1.00
H352   H     0.61456   0.59220   0.72377   0.00000  Uiso   1.00
H353   H     0.69602   0.34325   0.64038   0.00000  Uiso   1.00
H354   H     0.76201   0.30804   0.74932   0.00000  Uiso   1.00
H355   H     0.70330   0.32017   0.47784   0.00000  Uiso   1.00
H356   H     0.61537   0.38875   0.69692   0.00000  Uiso   1.00
H357   H     0.84683   0.28914   0.86534   0.00000  Uiso   1.00
H358   H     0.72302   0.31472   0.29293   0.00000  Uiso   1.00
H359   H     0.53761   0.45934   0.75489   0.00000  Uiso   1.00
O360   O     0.93035   0.33520   0.92077   0.00000  Uiso   1.00
O361   O     0.76791   0.36877   0.16979   0.00000  Uiso   1.00
O362   O     0.52465   0.55851   0.77587   0.00000  Uiso   1.00
N363   N     0.89662   0.39557   0.82662   0.00000  Uiso   1.00
N364   N     0.78087   0.41948   0.29145   0.00000  Uiso   1.00
N365   N     0.60752   0.55469   0.72331   0.00000  Uiso   1.00
N366   N     0.85521   0.32407   0.84336   0.00000  Uiso   1.00
N367   N     0.73946   0.34799   0.30819   0.00000  Uiso   1.00
N368   N     0.56611   0.48320   0.74006   0.00000  Uiso   1.00
C369   C     0.96287   0.73469   0.88763   0.00000  Uiso   1.00
C370   C     0.92685   0.70862   0.82448   0.00000  Uiso   1.00
C371   C     0.93639   0.66364   0.78072   0.00000  Uiso   1.00
C372   C     0.89860   0.64602   0.72583   0.00000  Uiso   1.00
C373   C     0.84961   0.60151   0.62943   0.00000  Uiso   1.00
C374   C     0.93344   0.74052   0.97198   0.00000  Uiso   1.00
C375   C     0.94852   0.72235   0.05224   0.00000  Uiso   1.00
C376   C     0.91627   0.73159   0.12150   0.00000  Uiso   1.00
C377   C     0.87753   0.73663   0.25411   0.00000  Uiso   1.00
C378   C     0.97070   0.78829   0.85295   0.00000  Uiso   1.00
C379   C     0.01712   0.81030   0.83313   0.00000  Uiso   1.00
C380   C     0.01624   0.85976   0.80220   0.00000  Uiso   1.00
C381   C     0.03536   0.93897   0.74999   0.00000  Uiso   1.00
C382   C     0.87880   0.78338   0.86795   0.00000  Uiso   1.00
C383   C     0.88119   0.73507   0.81380   0.00000  Uiso   1.00
C384   C     0.84338   0.71752   0.75894   0.00000  Uiso   1.00
C385   C     0.85285   0.67252   0.71511   0.00000  Uiso   1.00
C386   C     0.88778   0.76696   0.96129   0.00000  Uiso   1.00
C387   C     0.85550   0.77623   0.03046   0.00000  Uiso   1.00
C388   C     0.87053   0.75808   0.11079   0.00000  Uiso   1.00
C389   C     0.92504   0.81474   0.84225   0.00000  Uiso   1.00
C390   C     0.92410   0.86417   0.81135   0.00000  Uiso   1.00
C391   C     0.97050   0.88625   0.79149   0.00000  Uiso   1.00
H392   H     0.99842   0.71409   0.89596   0.00000  Uiso   1.00
H393   H     0.97173   0.64318   0.78902   0.00000  Uiso   1.00
H394   H     0.98386   0.70189   0.06049   0.00000  Uiso   1.00
H395   H     0.05245   0.78982   0.84142   0.00000  Uiso   1.00
H396   H     0.92200   0.57621   0.66577   0.00000  Uiso   1.00
H397   H     0.94758   0.70002   0.23818   0.00000  Uiso   1.00
H398   H     0.09220   0.88544   0.77623   0.00000  Uiso   1.00
H399   H     0.84325   0.80398   0.85962   0.00000  Uiso   1.00
H400   H     0.80804   0.73799   0.75068   0.00000  Uiso   1.00
H401   H     0.82017   0.79670   0.02216   0.00000  Uiso   1.00
H402   H     0.88875   0.88463   0.80308   0.00000  Uiso   1.00
H403   H     0.78914   0.65317   0.63466   0.00000  Uiso   1.00
H404   H     0.81472   0.77698   0.20707   0.00000  Uiso   1.00
H405   H     0.95934   0.96239   0.74511   0.00000  Uiso   1.00
O406   O     0.83520   0.56965   0.57923   0.00000  Uiso   1.00
O407   O     0.86877   0.73209   0.33021   0.00000  Uiso   1.00
O408   O     0.05851   0.97535   0.72413   0.00000  Uiso   1.00
N409   N     0.89557   0.60338   0.67338   0.00000  Uiso   1.00
N410   N     0.91948   0.71913   0.20855   0.00000  Uiso   1.00
N411   N     0.05469   0.89248   0.77669   0.00000  Uiso   1.00
N412   N     0.82407   0.64479   0.65664   0.00000  Uiso   1.00
N413   N     0.84799   0.76054   0.19181   0.00000  Uiso   1.00
N414   N     0.98320   0.93389   0.75994   0.00000  Uiso   1.00
C415   C     0.46287   0.23469   0.38763   0.00000  Uiso   1.00
C416   C     0.42685   0.20862   0.32448   0.00000  Uiso   1.00
C417   C     0.43639   0.16364   0.28072   0.00000  Uiso   1.00
C418   C     0.39860   0.14602   0.22583   0.00000  Uiso   1.00
C419   C     0.34961   0.10151   0.12943   0.00000  Uiso   1.00
C420   C     0.43344   0.24052   0.47198   0.00000  Uiso   1.00
C421   C     0.44852   0.22235   0.55224   0.00000  Uiso   1.00
C422   C     0.41627   0.23159   0.62150   0.00000  Uiso   1.00
C423   C     0.37753   0.23663   0.75411   0.00000  Uiso   1.00
C424   C     0.47070   0.28829   0.35295   0.00000  Uiso   1.00
C425   C     0.51712   0.31030   0.33313   0.00000  Uiso   1.00
C426   C     0.51624   0.35976   0.30220   0.00000  Uiso   1.00
C427   C     0.53536   0.43897   0.24999   0.00000  Uiso   1.00
C428   C     0.37880   0.28338   0.36795   0.00000  Uiso   1.00
C429   C     0.38119   0.23507   0.31380   0.00000  Uiso   1.00
C430   C     0.34338   0.21752   0.25894   0.00000  Uiso   1.00
C431   C     0.35285   0.17252   0.21511   0.00000  Uiso   1.00
C432   C     0.38778   0.26696   0.46129   0.00000  Uiso   1.00
C433   C     0.35550   0.27623   0.53046   0.00000  Uiso   1.00
C434   C     0.37053   0.25808   0.61079   0.00000  Uiso   1.00
C435   C     0.42504   0.31474   0.34225   0.00000  Uiso   1.00
C436   C     0.42410   0.36417   0.31135   0.00000  Uiso   1.00
C437   C     0.47050   0.38625   0.29149   0.00000  Uiso   1.00
H438   H     0.49842   0.21409   0.39596   0.00000  Uiso   1.00
H439   H     0.47173   0.14318   0.28902   0.00000  Uiso   1.00
H440   H     0.48386   0.20189   0.56049   0.00000  Uiso   1.00
H441   H     0.55245   0.28982   0.34142   0.00000  Uiso   1.00
H442   H     0.42200   0.07621   0.16577   0.00000  Uiso   1.00
H443   H     0.44758   0.20002   0.73818   0.00000  Uiso   1.00
H444   H     0.59220   0.38544   0.27623   0.00000  Uiso   1.00
H445   H     0.34325   0.30398   0.35962   0.00000  Uiso   1.00
H446   H     0.30804   0.23799   0.25068   0.00000  Uiso   1.00
H447   H     0.32017   0.29670   0.52216   0.00000  Uiso   1.00
H448   H     0.38875   0.38463   0.30308   0.00000  Uiso   1.00
H449   H     0.28914   0.15317   0.13466   0.00000  Uiso   1.00
H450   H     0.31472   0.27698   0.70707   0.00000  Uiso   1.00
H451   H     0.45934   0.46239   0.24511   0.00000  Uiso   1.00
O452   O     0.33520   0.06965   0.07923   0.00000  Uiso   1.00
O453   O     0.36877   0.23209   0.83021   0.00000  Uiso   1.00
O454   O     0.55851   0.47535   0.22413   0.00000  Uiso   1.00
N455   N     0.39557   0.10338   0.17338   0.00000  Uiso   1.00
N456   N     0.41948   0.21913   0.70855   0.00000  Uiso   1.00
N457   N     0.55469   0.39248   0.27669   0.00000  Uiso   1.00
N458   N     0.32407   0.14479   0.15664   0.00000  Uiso   1.00
N459   N     0.34799   0.26054   0.69181   0.00000  Uiso   1.00
N460   N     0.48320   0.43389   0.25994   0.00000  Uiso   1.00
C461   C     0.53713   0.76531   0.38763   0.00000  Uiso   1.00
C462   C     0.57315   0.79138   0.32448   0.00000  Uiso   1.00
C463   C     0.56361   0.83636   0.28072   0.00000  Uiso   1.00
C464   C     0.60140   0.85398   0.22583   0.00000  Uiso   1.00
C465   C     0.65039   0.89849   0.12943   0.00000  Uiso   1.00
C466   C     0.56656   0.75948   0.47198   0.00000  Uiso   1.00
C467   C     0.55148   0.77765   0.55224   0.00000  Uiso   1.00
C468   C     0.58373   0.76841   0.62150   0.00000  Uiso   1.00
C469   C     0.62247   0.76337   0.75411   0.00000  Uiso   1.00
C470   C     0.52930   0.71171   0.35295   0.00000  Uiso   1.00
C471   C     0.48288   0.68970   0.33313   0.00000  Uiso   1.00
C472   C     0.48376   0.64024   0.30220   0.00000  Uiso   1.00
C473   C     0.46464   0.56103   0.24999   0.00000  Uiso   1.00
C474   C     0.62120   0.71662   0.36795   0.00000  Uiso   1.00
C475   C     0.61881   0.76493   0.31380   0.00000  Uiso   1.00
C476   C     0.65662   0.78248   0.25894   0.00000  Uiso   1.00
C477   C     0.64715   0.82748   0.21511   0.00000  Uiso   1.00
C478   C     0.61222   0.73304   0.46129   0.00000  Uiso   1.00
C479   C     0.64450   0.72377   0.53046   0.00000  Uiso   1.00
C480   C     0.62947   0.74192   0.61079   0.00000  Uiso   1.00
C481   C     0.57496   0.68526   0.34225   0.00000  Uiso   1.00
C482   C     0.57590   0.63583   0.31135   0.00000  Uiso   1.00
C483   C     0.52950   0.61375   0.29149   0.00000  Uiso   1.00
H484   H     0.50158   0.78591   0.39596   0.00000  Uiso   1.00
H485   H     0.52827   0.85682   0.28902   0.00000  Uiso   1.00
H486   H     0.51614   0.79811   0.56049   0.00000  Uiso   1.00
H487   H     0.44755   0.71018   0.34142   0.00000  Uiso   1.00
H488   H     0.57800   0.92379   0.16577   0.00000  Uiso   1.00
H489   H     0.55242   0.79998   0.73818   0.00000  Uiso   1.00
H490   H     0.40780   0.61456   0.27623   0.00000  Uiso   1.00
H491   H     0.65675   0.69602   0.35962   0.00000  Uiso   1.00
H492   H     0.69196   0.76201   0.25068   0.00000  Uiso   1.00
H493   H     0.67983   0.70330   0.52216   0.00000  Uiso   1.00
H494   H     0.61125   0.61537   0.30308   0.00000  Uiso   1.00
H495   H     0.71086   0.84683   0.13466   0.00000  Uiso   1.00
H496   H     0.68528   0.72302   0.70707   0.00000  Uiso   1.00
H497   H     0.54066   0.53761   0.24511   0.00000  Uiso   1.00
O498   O     0.66480   0.93035   0.07923   0.00000  Uiso   1.00
O499   O     0.63123   0.76791   0.83021   0.00000  Uiso   1.00
O500   O     0.44149   0.52465   0.22413   0.00000  Uiso   1.00
N501   N     0.60443   0.89662   0.17338   0.00000  Uiso   1.00
N502   N     0.58052   0.78087   0.70855   0.00000  Uiso   1.00
N503   N     0.44531   0.60752   0.27669   0.00000  Uiso   1.00
N504   N     0.67593   0.85521   0.15664   0.00000  Uiso   1.00
N505   N     0.65201   0.73946   0.69181   0.00000  Uiso   1.00
N506   N     0.51680   0.56611   0.25994   0.00000  Uiso   1.00
C507   C     0.03713   0.26531   0.88763   0.00000  Uiso   1.00
C508   C     0.07315   0.29138   0.82448   0.00000  Uiso   1.00
C509   C     0.06361   0.33636   0.78072   0.00000  Uiso   1.00
C510   C     0.10140   0.35398   0.72583   0.00000  Uiso   1.00
C511   C     0.15039   0.39849   0.62943   0.00000  Uiso   1.00
C512   C     0.06656   0.25948   0.97198   0.00000  Uiso   1.00
C513   C     0.05148   0.27765   0.05224   0.00000  Uiso   1.00
C514   C     0.08373   0.26841   0.12150   0.00000  Uiso   1.00
C515   C     0.12247   0.26337   0.25411   0.00000  Uiso   1.00
C516   C     0.02930   0.21171   0.85295   0.00000  Uiso   1.00
C517   C     0.98288   0.18970   0.83313   0.00000  Uiso   1.00
C518   C     0.98376   0.14024   0.80220   0.00000  Uiso   1.00
C519   C     0.96464   0.06103   0.74999   0.00000  Uiso   1.00
C520   C     0.12120   0.21662   0.86795   0.00000  Uiso   1.00
C521   C     0.11881   0.26493   0.81380   0.00000  Uiso   1.00
C522   C     0.15662   0.28248   0.75894   0.00000  Uiso   1.00
C523   C     0.14715   0.32748   0.71511   0.00000  Uiso   1.00
C524   C     0.11222   0.23304   0.96129   0.00000  Uiso   1.00
C525   C     0.14450   0.22377   0.03046   0.00000  Uiso   1.00
C526   C     0.12947   0.24192   0.11079   0.00000  Uiso   1.00
C527   C     0.07496   0.18526   0.84225   0.00000  Uiso   1.00
C528   C     0.07590   0.13583   0.81135   0.00000  Uiso   1.00
C529   C     0.02950   0.11375   0.79149   0.00000  Uiso   1.00
H530   H     0.00158   0.28591   0.89596   0.00000  Uiso   1.00
H531   H     0.02827   0.35682   0.78902   0.00000  Uiso   1.00
H532   H     0.01614   0.29811   0.06049   0.00000  Uiso   1.00
H533   H     0.94755   0.21018   0.84142   0.00000  Uiso   1.00
H534   H     0.07800   0.42379   0.66577   0.00000  Uiso   1.00
H535   H     0.05242   0.29998   0.23818   0.00000  Uiso   1.00
H536   H     0.90780   0.11456   0.77623   0.00000  Uiso   1.00
H537   H     0.15675   0.19602   0.85962   0.00000  Uiso   1.00
H538   H     0.19196   0.26201   0.75068   0.00000  Uiso   1.00
H539   H     0.17983   0.20330   0.02216   0.00000  Uiso   1.00
H540   H     0.11125   0.11537   0.80308   0.00000  Uiso   1.00
H541   H     0.21086   0.34683   0.63466   0.00000  Uiso   1.00
H542   H     0.18528   0.22302   0.20707   0.00000  Uiso   1.00
H543   H     0.04066   0.03761   0.74511   0.00000  Uiso   1.00
O544   O     0.16480   0.43035   0.57923   0.00000  Uiso   1.00
O545   O     0.13123   0.26791   0.33021   0.00000  Uiso   1.00
O546   O     0.94149   0.02465   0.72413   0.00000  Uiso   1.00
N547   N     0.10443   0.39662   0.67338   0.00000  Uiso   1.00
N548   N     0.08052   0.28087   0.20855   0.00000  Uiso   1.00
N549   N     0.94531   0.10752   0.77669   0.00000  Uiso   1.00
N550   N     0.17593   0.35521   0.65664   0.00000  Uiso   1.00
N551   N     0.15201   0.23946   0.19181   0.00000  Uiso   1.00
N552   N     0.01680   0.06611   0.75994   0.00000  Uiso   1.00
C553   C     0.76531   0.96287   0.63763   0.00000  Uiso   1.00
C554   C     0.79138   0.92685   0.57448   0.00000  Uiso   1.00
C555   C     0.83636   0.93639   0.53072   0.00000  Uiso   1.00
C556   C     0.85398   0.89860   0.47583   0.00000  Uiso   1.00
C557   C     0.89849   0.84961   0.37943   0.00000  Uiso   1.00
C558   C     0.75948   0.93344   0.72198   0.00000  Uiso   1.00
C559   C     0.77765   0.94852   0.80224   0.00000  Uiso   1.00
C560   C     0.76841   0.91627   0.87150   0.00000  Uiso   1.00
C561   C     0.76337   0.87753   0.00411   0.00000  Uiso   1.00
C562   C     0.71171   0.97070   0.60295   0.00000  Uiso   1.00
C563   C     0.68970   0.01712   0.58313   0.00000  Uiso   1.00
C564   C     0.64024   0.01624   0.55220   0.00000  Uiso   1.00
C565   C     0.56103   0.03536   0.49999   0.00000  Uiso   1.00
C566   C     0.71662   0.87880   0.61795   0.00000  Uiso   1.00
C567   C     0.76493   0.88119   0.56380   0.00000  Uiso   1.00
C568   C     0.78248   0.84338   0.50894   0.00000  Uiso   1.00
C569   C     0.82748   0.85285   0.46511   0.00000  Uiso   1.00
C570   C     0.73304   0.88778   0.71129   0.00000  Uiso   1.00
C571   C     0.72377   0.85550   0.78046   0.00000  Uiso   1.00
C572   C     0.74192   0.87053   0.86079   0.00000  Uiso   1.00
C573   C     0.68526   0.92504   0.59225   0.00000  Uiso   1.00
C574   C     0.63583   0.92410   0.56135   0.00000  Uiso   1.00
C575   C     0.61375   0.97050   0.54149   0.00000  Uiso   1.00
H576   H     0.78591   0.99842   0.64596   0.00000  Uiso   1.00
H577   H     0.85682   0.97173   0.53902   0.00000  Uiso   1.00
H578   H     0.79811   0.98386   0.81049   0.00000  Uiso   1.00
H579   H     0.71018   0.05245   0.59142   0.00000  Uiso   1.00
H580   H     0.92379   0.92200   0.41577   0.00000  Uiso   1.00
H581   H     0.79998   0.94758   0.98818   0.00000  Uiso   1.00
H582   H     0.61456   0.09220   0.52623   0.00000  Uiso   1.00
H583   H     0.69602   0.84325   0.60962   0.00000  Uiso   1.00
H584   H     0.76201   0.80804   0.50068   0.00000  Uiso   1.00
H585   H     0.70330   0.82017   0.77216   0.00000  Uiso   1.00
H586   H     0.61537   0.88875   0.55308   0.00000  Uiso   1.00
H587   H     0.84683   0.78914   0.38466   0.00000  Uiso   1.00
H588   H     0.72302   0.81472   0.95707   0.00000  Uiso   1.00
H589   H     0.53761   0.95934   0.49511   0.00000  Uiso   1.00
O590   O     0.93035   0.83520   0.32923   0.00000  Uiso   1.00
O591   O     0.76791   0.86877   0.08021   0.00000  Uiso   1.00
O592   O     0.52465   0.05851   0.47413   0.00000  Uiso   1.00
N593   N     0.89662   0.89557   0.42338   0.00000  Uiso   1.00
N594   N     0.78087   0.91948   0.95855   0.00000  Uiso   1.00
N595   N     0.60752   0.05469   0.52669   0.00000  Uiso   1.00
N596   N     0.85521   0.82407   0.40664   0.00000  Uiso   1.00
N597   N     0.73946   0.84799   0.94181   0.00000  Uiso   1.00
N598   N     0.56611   0.98320   0.50994   0.00000  Uiso   1.00
C599   C     0.26531   0.46287   0.13763   0.00000  Uiso   1.00
C600   C     0.29138   0.42685   0.07448   0.00000  Uiso   1.00
C601   C     0.33636   0.43639   0.03072   0.00000  Uiso   1.00
C602   C     0.35398   0.39860   0.97583   0.00000  Uiso   1.00
C603   C     0.39849   0.34961   0.87943   0.00000  Uiso   1.00
C604   C     0.25948   0.43344   0.22198   0.00000  Uiso   1.00
C605   C     0.27765   0.44852   0.30224   0.00000  Uiso   1.00
C606   C     0.26841   0.41627   0.37150   0.00000  Uiso   1.00
C607   C     0.26337   0.37753   0.50411   0.00000  Uiso   1.00
C608   C     0.21171   0.47070   0.10295   0.00000  Uiso   1.00
C609   C     0.18970   0.51712   0.08313   0.00000  Uiso   1.00
C610   C     0.14024   0.51624   0.05220   0.00000  Uiso   1.00
C611   C     0.06103   0.53536   0.99999   0.00000  Uiso   1.00
C612   C     0.21662   0.37880   0.11795   0.00000  Uiso   1.00
C613   C     0.26493   0.38119   0.06380   0.00000  Uiso   1.00
C614   C     0.28248   0.34338   0.00894   0.00000  Uiso   1.00
C615   C     0.32748   0.35285   0.96511   0.00000  Uiso   1.00
C616   C     0.23304   0.38778   0.21129   0.00000  Uiso   1.00
C617   C     0.22377   0.35550   0.28046   0.00000  Uiso   1.00
C618   C     0.24192   0.37053   0.36079   0.00000  Uiso   1.00
C619   C     0.18526   0.42504   0.09225   0.00000  Uiso   1.00
C620   C     0.13583   0.42410   0.06135   0.00000  Uiso   1.00
C621   C     0.11375   0.47050   0.04149   0.00000  Uiso   1.00
H622   H     0.28591   0.49842   0.14596   0.00000  Uiso   1.00
H623   H     0.35682   0.47173   0.03902   0.00000  Uiso   1.00
H624   H     0.29811   0.48386   0.31049   0.00000  Uiso   1.00
H625   H     0.21018   0.55245   0.09142   0.00000  Uiso   1.00
H626   H     0.42379   0.42200   0.91577   0.00000  Uiso   1.00
H627   H     0.29998   0.44758   0.48818   0.00000  Uiso   1.00
H628   H     0.11456   0.59220   0.02623   0.00000  Uiso   1.00
H629   H     0.19602   0.34325   0.10962   0.00000  Uiso   1.00
H630   H     0.26201   0.30804   0.00068   0.00000  Uiso   1.00
H631   H     0.20330   0.32017   0.27216   0.00000  Uiso   1.00
H632   H     0.11537   0.38875   0.05308   0.00000  Uiso   1.00
H633   H     0.34683   0.28914   0.88466   0.00000  Uiso   1.00
H634   H     0.22302   0.31472   0.45707   0.00000  Uiso   1.00
H635   H     0.03761   0.45934   0.99511   0.00000  Uiso   1.00
O636   O     0.43035   0.33520   0.82923   0.00000  Uiso   1.00
O637   O     0.26791   0.36877   0.58021   0.00000  Uiso   1.00
O638   O     0.02465   0.55851   0.97413   0.00000  Uiso   1.00
N639   N     0.39662   0.39557   0.92338   0.00000  Uiso   1.00
N640   N     0.28087   0.41948   0.45855   0.00000  Uiso   1.00
N641   N     0.10752   0.55469   0.02669   0.00000  Uiso   1.00
N642   N     0.35521   0.32407   0.90664   0.00000  Uiso   1.00
N643   N     0.23946   0.34799   0.44181   0.00000  Uiso   1.00
N644   N     0.06611   0.48320   0.00994   0.00000  Uiso   1.00
C645   C     0.73469   0.53713   0.13763   0.00000  Uiso   1.00
C646   C     0.70862   0.57315   0.07448   0.00000  Uiso   1.00
C647   C     0.66364   0.56361   0.03072   0.00000  Uiso   1.00
C648   C     0.64602   0.60140   0.97583   0.00000  Uiso   1.00
C649   C     0.60151   0.65039   0.87943   0.00000  Uiso   1.00
C650   C     0.74052   0.56656   0.22198   0.00000  Uiso   1.00
C651   C     0.72235   0.55148   0.30224   0.00000  Uiso   1.00
C652   C     0.73159   0.58373   0.37150   0.00000  Uiso   1.00
C653   C     0.73663   0.62247   0.50411   0.00000  Uiso   1.00
C654   C     0.78829   0.52930   0.10295   0.00000  Uiso   1.00
C655   C     0.81030   0.48288   0.08313   0.00000  Uiso   1.00
C656   C     0.85976   0.48376   0.05220   0.00000  Uiso   1.00
C657   C     0.93897   0.46464   0.99999   0.00000  Uiso   1.00
C658   C     0.78338   0.62120   0.11795   0.00000  Uiso   1.00
C659   C     0.73507   0.61881   0.06380   0.00000  Uiso   1.00
C660   C     0.71752   0.65662   0.00894   0.00000  Uiso   1.00
C661   C     0.67252   0.64715   0.96511   0.00000  Uiso   1.00
C662   C     0.76696   0.61222   0.21129   0.00000  Uiso   1.00
C663   C     0.77623   0.64450   0.28046   0.00000  Uiso   1.00
C664   C     0.75808   0.62947   0.36079   0.00000  Uiso   1.00
C665   C     0.81474   0.57496   0.09225   0.00000  Uiso   1.00
C666   C     0.86417   0.57590   0.06135   0.00000  Uiso   1.00
C667   C     0.88625   0.52950   0.04149   0.00000  Uiso   1.00
H668   H     0.71409   0.50158   0.14596   0.00000  Uiso   1.00
H669   H     0.64318   0.52827   0.03902   0.00000  Uiso   1.00
H670   H     0.70189   0.51614   0.31049   0.00000  Uiso   1.00
H671   H     0.78982   0.44755   0.09142   0.00000  Uiso   1.00
H672   H     0.57621   0.57800   0.91577   0.00000  Uiso   1.00
H673   H     0.70002   0.55242   0.48818   0.00000  Uiso   1.00
H674   H     0.88544   0.40780   0.02623   0.00000  Uiso   1.00
H675   H     0.80398   0.65675   0.10962   0.00000  Uiso   1.00
H676   H     0.73799   0.69196   0.00068   0.00000  Uiso   1.00
H677   H     0.79670   0.67983   0.27216   0.00000  Uiso   1.00
H678   H     0.88463   0.61125   0.05308   0.00000  Uiso   1.00
H679   H     0.65317   0.71086   0.88466   0.00000  Uiso   1.00
H680   H     0.77698   0.68528   0.45707   0.00000  Uiso   1.00
H681   H     0.96239   0.54066   0.99511   0.00000  Uiso   1.00
O682   O     0.56965   0.66480   0.82923   0.00000  Uiso   1.00
O683   O     0.73209   0.63123   0.58021   0.00000  Uiso   1.00
O684   O     0.97535   0.44149   0.97413   0.00000  Uiso   1.00
N685   N     0.60338   0.60443   0.92338   0.00000  Uiso   1.00
N686   N     0.71913   0.58052   0.45855   0.00000  Uiso   1.00
N687   N     0.89248   0.44531   0.02669   0.00000  Uiso   1.00
N688   N     0.64479   0.67593   0.90664   0.00000  Uiso   1.00
N689   N     0.76054   0.65201   0.44181   0.00000  Uiso   1.00
N690   N     0.93389   0.51680   0.00994   0.00000  Uiso   1.00
C691   C     0.23469   0.03713   0.63763   0.00000  Uiso   1.00
C692   C     0.20862   0.07315   0.57448   0.00000  Uiso   1.00
C693   C     0.16364   0.06361   0.53072   0.00000  Uiso   1.00
C694   C     0.14602   0.10140   0.47583   0.00000  Uiso   1.00
C695   C     0.10151   0.15039   0.37943   0.00000  Uiso   1.00
C696   C     0.24052   0.06656   0.72198   0.00000  Uiso   1.00
C697   C     0.22235   0.05148   0.80224   0.00000  Uiso   1.00
C698   C     0.23159   0.08373   0.87150   0.00000  Uiso   1.00
C699   C     0.23663   0.12247   0.00411   0.00000  Uiso   1.00
C700   C     0.28829   0.02930   0.60295   0.00000  Uiso   1.00
C701   C     0.31030   0.98288   0.58313   0.00000  Uiso   1.00
C702   C     0.35976   0.98376   0.55220   0.00000  Uiso   1.00
C703   C     0.43897   0.96464   0.49999   0.00000  Uiso   1.00
C704   C     0.28338   0.12120   0.61795   0.00000  Uiso   1.00
C705   C     0.23507   0.11881   0.56380   0.00000  Uiso   1.00
C706   C     0.21752   0.15662   0.50894   0.00000  Uiso   1.00
C707   C     0.17252   0.14715   0.46511   0.00000  Uiso   1.00
C708   C     0.26696   0.11222   0.71129   0.00000  Uiso   1.00
C709   C     0.27623   0.14450   0.78046   0.00000  Uiso   1.00
C710   C     0.25808   0.12947   0.86079   0.00000  Uiso   1.00
C711   C     0.31474   0.07496   0.59225   0.00000  Uiso   1.00
C712   C     0.36417   0.07590   0.56135   0.00000  Uiso   1.00
C713   C     0.38625   0.02950   0.54149   0.00000  Uiso   1.00
H714   H     0.21409   0.00158   0.64596   0.00000  Uiso   1.00
H715   H     0.14318   0.02827   0.53902   0.00000  Uiso   1.00
H716   H     0.20189   0.01614   0.81049   0.00000  Uiso   1.00
H717   H     0.28982   0.94755   0.59142   0.00000  Uiso   1.00
H718   H     0.07621   0.07800   0.41577   0.00000  Uiso   1.00
H719   H     0.20002   0.05242   0.98818   0.00000  Uiso   1.00
H720   H     0.38544   0.90780   0.52623   0.00000  Uiso   1.00
H721   H     0.30398   0.15675   0.60962   0.00000  Uiso   1.00
H722   H     0.23799   0.19196   0.50068   0.00000  Uiso   1.00
H723   H     0.29670   0.17983   0.77216   0.00000  Uiso   1.00
H724   H     0.38463   0.11125   0.55308   0.00000  Uiso   1.00
H725   H     0.15317   0.21086   0.38466   0.00000  Uiso   1.00
H726   H     0.27698   0.18528   0.95707   0.00000  Uiso   1.00
H727   H     0.46239   0.04066   0.49511   0.00000  Uiso   1.00
O728   O     0.06965   0.16480   0.32923   0.00000  Uiso   1.00
O729   O     0.23209   0.13123   0.08021   0.00000  Uiso   1.00
O730   O     0.47535   0.94149   0.47413   0.00000  Uiso   1.00
N731   N     0.10338   0.10443   0.42338   0.00000  Uiso   1.00
N732   N     0.21913   0.08052   0.95855   0.00000  Uiso   1.00
N733   N     0.39248   0.94531   0.52669   0.00000  Uiso   1.00
N734   N     0.14479   0.17593   0.40664   0.00000  Uiso   1.00
N735   N     0.26054   0.15201   0.94181   0.00000  Uiso   1.00
N736   N     0.43389   0.01680   0.50994   0.00000  Uiso   1.00
