data_job_04952
_audit_creation_date              2018-12-19
_audit_creation_method            'Materials Studio'
_symmetry_space_group_name_H-M    'P1'
_symmetry_Int_Tables_number       1
_symmetry_cell_setting            triclinic
loop_
_symmetry_equiv_pos_as_xyz
  x,y,z
_cell_length_a                    20.5016
_cell_length_b                    42.0040
_cell_length_c                    13.8672
_cell_angle_alpha                 90.0000
_cell_angle_beta                  90.0000
_cell_angle_gamma                 90.0000
loop_
_atom_site_label
_atom_site_type_symbol
_atom_site_fract_x
_atom_site_fract_y
_atom_site_fract_z
_atom_site_U_iso_or_equiv
_atom_site_adp_type
_atom_site_occupancy
C1     C     0.67985   0.19244   0.66199   0.00000  Uiso   1.00
C2     C     0.65358   0.18742   0.76374   0.00000  Uiso   1.00
C3     C     0.59503   0.19916   0.79918   0.00000  Uiso   1.00
C4     C     0.57975   0.19195   0.89424   0.00000  Uiso   1.00
C5     C     0.53261   0.18695   0.04350   0.00000  Uiso   1.00
C6     C     0.74702   0.20753   0.67390   0.00000  Uiso   1.00
C7     C     0.76703   0.23618   0.63380   0.00000  Uiso   1.00
C8     C     0.83042   0.24589   0.65323   0.00000  Uiso   1.00
C9     C     0.92836   0.27211   0.66296   0.00000  Uiso   1.00
C10    C     0.69171   0.15928   0.62083   0.00000  Uiso   1.00
C11    C     0.66524   0.14736   0.53608   0.00000  Uiso   1.00
C12    C     0.68208   0.11645   0.51081   0.00000  Uiso   1.00
C13    C     0.69416   0.06774   0.43814   0.00000  Uiso   1.00
C14    C     0.75684   0.15874   0.76778   0.00000  Uiso   1.00
C15    C     0.69540   0.16911   0.82120   0.00000  Uiso   1.00
C16    C     0.68020   0.16187   0.91623   0.00000  Uiso   1.00
C17    C     0.62164   0.17361   0.95180   0.00000  Uiso   1.00
C18    C     0.78884   0.18923   0.73136   0.00000  Uiso   1.00
C19    C     0.85221   0.19889   0.75085   0.00000  Uiso   1.00
C20    C     0.87231   0.22756   0.71080   0.00000  Uiso   1.00
C21    C     0.73353   0.14097   0.67829   0.00000  Uiso   1.00
C22    C     0.75042   0.11007   0.65314   0.00000  Uiso   1.00
C23    C     0.72397   0.09811   0.56838   0.00000  Uiso   1.00
H24    H     0.64730   0.20669   0.61725   0.00000  Uiso   1.00
H25    H     0.56268   0.21333   0.75469   0.00000  Uiso   1.00
H26    H     0.73466   0.25034   0.58933   0.00000  Uiso   1.00
H27    H     0.63289   0.16153   0.49164   0.00000  Uiso   1.00
H28    H     0.48732   0.21263   0.93242   0.00000  Uiso   1.00
H29    H     0.84996   0.29066   0.58372   0.00000  Uiso   1.00
H30    H     0.63535   0.10339   0.37771   0.00000  Uiso   1.00
H31    H     0.78940   0.14448   0.81252   0.00000  Uiso   1.00
H32    H     0.71257   0.14771   0.96068   0.00000  Uiso   1.00
H33    H     0.88456   0.18472   0.79532   0.00000  Uiso   1.00
H34    H     0.78278   0.09591   0.69762   0.00000  Uiso   1.00
H35    H     0.60898   0.15937   0.09961   0.00000  Uiso   1.00
H36    H     0.97162   0.23740   0.75090   0.00000  Uiso   1.00
H37    H     0.75701   0.05013   0.54490   0.00000  Uiso   1.00
O38    O     0.49506   0.18925   0.10996   0.00000  Uiso   1.00
O39    O     0.97083   0.29163   0.65247   0.00000  Uiso   1.00
O40    O     0.68926   0.04593   0.38219   0.00000  Uiso   1.00
N41    N     0.52649   0.19965   0.95143   0.00000  Uiso   1.00
N42    N     0.86553   0.27261   0.62543   0.00000  Uiso   1.00
N43    N     0.66490   0.09753   0.43281   0.00000  Uiso   1.00
N44    N     0.59195   0.17099   0.04139   0.00000  Uiso   1.00
N45    N     0.93100   0.24395   0.71539   0.00000  Uiso   1.00
N46    N     0.73036   0.06887   0.52277   0.00000  Uiso   1.00
C47    C     0.32426   0.13316   0.82532   0.00000  Uiso   1.00
C48    C     0.35393   0.13039   0.72483   0.00000  Uiso   1.00
C49    C     0.41399   0.14244   0.69658   0.00000  Uiso   1.00
C50    C     0.43238   0.13741   0.60143   0.00000  Uiso   1.00
C51    C     0.48456   0.13563   0.45520   0.00000  Uiso   1.00
C52    C     0.25806   0.14910   0.81180   0.00000  Uiso   1.00
C53    C     0.23752   0.17688   0.85669   0.00000  Uiso   1.00
C54    C     0.17519   0.18760   0.83476   0.00000  Uiso   1.00
C55    C     0.07852   0.21485   0.82360   0.00000  Uiso   1.00
C56    C     0.30998   0.09921   0.85796   0.00000  Uiso   1.00
C57    C     0.33307   0.08503   0.94167   0.00000  Uiso   1.00
C58    C     0.31445   0.05375   0.95861   0.00000  Uiso   1.00
C59    C     0.29838   0.00352   0.01911   0.00000  Uiso   1.00
C60    C     0.25011   0.10281   0.70658   0.00000  Uiso   1.00
C61    C     0.31365   0.11391   0.66034   0.00000  Uiso   1.00
C62    C     0.33196   0.10886   0.56521   0.00000  Uiso   1.00
C63    C     0.39204   0.12090   0.53682   0.00000  Uiso   1.00
C64    C     0.21778   0.13262   0.74731   0.00000  Uiso   1.00
C65    C     0.15548   0.14330   0.72532   0.00000  Uiso   1.00
C66    C     0.13485   0.17109   0.77015   0.00000  Uiso   1.00
C67    C     0.26970   0.08272   0.79346   0.00000  Uiso   1.00
C68    C     0.25104   0.05145   0.81029   0.00000  Uiso   1.00
C69    C     0.27410   0.03723   0.89400   0.00000  Uiso   1.00
H70    H     0.35562   0.14600   0.87554   0.00000  Uiso   1.00
H71    H     0.44515   0.15520   0.74651   0.00000  Uiso   1.00
H72    H     0.26869   0.18963   0.90660   0.00000  Uiso   1.00
H73    H     0.36424   0.09780   0.99156   0.00000  Uiso   1.00
H74    H     0.52664   0.15813   0.57502   0.00000  Uiso   1.00
H75    H     0.15457   0.23073   0.91260   0.00000  Uiso   1.00
H76    H     0.35604   0.03708   0.09175   0.00000  Uiso   1.00
H77    H     0.21875   0.08998   0.65637   0.00000  Uiso   1.00
H78    H     0.30078   0.09610   0.51532   0.00000  Uiso   1.00
H79    H     0.12432   0.13053   0.67541   0.00000  Uiso   1.00
H80    H     0.21987   0.03870   0.76036   0.00000  Uiso   1.00
H81    H     0.40946   0.11017   0.38737   0.00000  Uiso   1.00
H82    H     0.03739   0.18277   0.72495   0.00000  Uiso   1.00
H83    H     0.23886   0.98912   0.90410   0.00000  Uiso   1.00
O84    O     0.52446   0.13920   0.39235   0.00000  Uiso   1.00
O85    O     0.03632   0.23444   0.83526   0.00000  Uiso   1.00
O86    O     0.30065   0.98038   0.07029   0.00000  Uiso   1.00
N87    N     0.48781   0.14600   0.55021   0.00000  Uiso   1.00
N88    N     0.13995   0.21388   0.86582   0.00000  Uiso   1.00
N89    N     0.32830   0.03283   0.03333   0.00000  Uiso   1.00
N90    N     0.42476   0.12019   0.44924   0.00000  Uiso   1.00
N91    N     0.07690   0.18807   0.76485   0.00000  Uiso   1.00
N92    N     0.26524   0.00702   0.93235   0.00000  Uiso   1.00
C93    C     0.67985   0.69244   0.16199   0.00000  Uiso   1.00
C94    C     0.65358   0.68742   0.26374   0.00000  Uiso   1.00
C95    C     0.59503   0.69916   0.29918   0.00000  Uiso   1.00
C96    C     0.57975   0.69195   0.39424   0.00000  Uiso   1.00
C97    C     0.53261   0.68695   0.54350   0.00000  Uiso   1.00
C98    C     0.74702   0.70753   0.17390   0.00000  Uiso   1.00
C99    C     0.76703   0.73618   0.13380   0.00000  Uiso   1.00
C100   C     0.83042   0.74589   0.15323   0.00000  Uiso   1.00
C101   C     0.92836   0.77211   0.16296   0.00000  Uiso   1.00
C102   C     0.69171   0.65928   0.12083   0.00000  Uiso   1.00
C103   C     0.66524   0.64736   0.03608   0.00000  Uiso   1.00
C104   C     0.68208   0.61645   0.01081   0.00000  Uiso   1.00
C105   C     0.69416   0.56774   0.93814   0.00000  Uiso   1.00
C106   C     0.75684   0.65874   0.26778   0.00000  Uiso   1.00
C107   C     0.69540   0.66911   0.32120   0.00000  Uiso   1.00
C108   C     0.68020   0.66187   0.41623   0.00000  Uiso   1.00
C109   C     0.62164   0.67361   0.45180   0.00000  Uiso   1.00
C110   C     0.78884   0.68923   0.23136   0.00000  Uiso   1.00
C111   C     0.85221   0.69889   0.25085   0.00000  Uiso   1.00
C112   C     0.87231   0.72756   0.21080   0.00000  Uiso   1.00
C113   C     0.73353   0.64097   0.17829   0.00000  Uiso   1.00
C114   C     0.75042   0.61007   0.15314   0.00000  Uiso   1.00
C115   C     0.72397   0.59811   0.06838   0.00000  Uiso   1.00
H116   H     0.64730   0.70669   0.11725   0.00000  Uiso   1.00
H117   H     0.56268   0.71333   0.25469   0.00000  Uiso   1.00
H118   H     0.73466   0.75034   0.08933   0.00000  Uiso   1.00
H119   H     0.63289   0.66153   0.99164   0.00000  Uiso   1.00
H120   H     0.48732   0.71263   0.43242   0.00000  Uiso   1.00
H121   H     0.84996   0.79066   0.08372   0.00000  Uiso   1.00
H122   H     0.63535   0.60339   0.87771   0.00000  Uiso   1.00
H123   H     0.78940   0.64448   0.31252   0.00000  Uiso   1.00
H124   H     0.71257   0.64771   0.46068   0.00000  Uiso   1.00
H125   H     0.88456   0.68472   0.29532   0.00000  Uiso   1.00
H126   H     0.78278   0.59591   0.19762   0.00000  Uiso   1.00
H127   H     0.60898   0.65937   0.59961   0.00000  Uiso   1.00
H128   H     0.97162   0.73740   0.25090   0.00000  Uiso   1.00
H129   H     0.75701   0.55013   0.04490   0.00000  Uiso   1.00
O130   O     0.49506   0.68925   0.60996   0.00000  Uiso   1.00
O131   O     0.97083   0.79163   0.15247   0.00000  Uiso   1.00
O132   O     0.68926   0.54593   0.88219   0.00000  Uiso   1.00
N133   N     0.52649   0.69965   0.45143   0.00000  Uiso   1.00
N134   N     0.86553   0.77261   0.12543   0.00000  Uiso   1.00
N135   N     0.66490   0.59753   0.93281   0.00000  Uiso   1.00
N136   N     0.59195   0.67099   0.54139   0.00000  Uiso   1.00
N137   N     0.93100   0.74395   0.21539   0.00000  Uiso   1.00
N138   N     0.73036   0.56887   0.02277   0.00000  Uiso   1.00
C139   C     0.32426   0.63316   0.32532   0.00000  Uiso   1.00
C140   C     0.35393   0.63039   0.22483   0.00000  Uiso   1.00
C141   C     0.41399   0.64244   0.19658   0.00000  Uiso   1.00
C142   C     0.43238   0.63741   0.10143   0.00000  Uiso   1.00
C143   C     0.48456   0.63563   0.95520   0.00000  Uiso   1.00
C144   C     0.25806   0.64910   0.31180   0.00000  Uiso   1.00
C145   C     0.23752   0.67688   0.35669   0.00000  Uiso   1.00
C146   C     0.17519   0.68760   0.33476   0.00000  Uiso   1.00
C147   C     0.07852   0.71485   0.32360   0.00000  Uiso   1.00
C148   C     0.30998   0.59921   0.35796   0.00000  Uiso   1.00
C149   C     0.33307   0.58503   0.44167   0.00000  Uiso   1.00
C150   C     0.31445   0.55375   0.45861   0.00000  Uiso   1.00
C151   C     0.29838   0.50352   0.51911   0.00000  Uiso   1.00
C152   C     0.25011   0.60281   0.20658   0.00000  Uiso   1.00
C153   C     0.31365   0.61391   0.16034   0.00000  Uiso   1.00
C154   C     0.33196   0.60886   0.06521   0.00000  Uiso   1.00
C155   C     0.39204   0.62090   0.03682   0.00000  Uiso   1.00
C156   C     0.21778   0.63262   0.24731   0.00000  Uiso   1.00
C157   C     0.15548   0.64330   0.22532   0.00000  Uiso   1.00
C158   C     0.13485   0.67109   0.27015   0.00000  Uiso   1.00
C159   C     0.26970   0.58272   0.29346   0.00000  Uiso   1.00
C160   C     0.25104   0.55145   0.31029   0.00000  Uiso   1.00
C161   C     0.27410   0.53723   0.39400   0.00000  Uiso   1.00
H162   H     0.35562   0.64600   0.37554   0.00000  Uiso   1.00
H163   H     0.44515   0.65520   0.24651   0.00000  Uiso   1.00
H164   H     0.26869   0.68963   0.40660   0.00000  Uiso   1.00
H165   H     0.36424   0.59780   0.49156   0.00000  Uiso   1.00
H166   H     0.52664   0.65813   0.07502   0.00000  Uiso   1.00
H167   H     0.15457   0.73073   0.41260   0.00000  Uiso   1.00
H168   H     0.35604   0.53708   0.59175   0.00000  Uiso   1.00
H169   H     0.21875   0.58998   0.15637   0.00000  Uiso   1.00
H170   H     0.30078   0.59610   0.01532   0.00000  Uiso   1.00
H171   H     0.12432   0.63053   0.17541   0.00000  Uiso   1.00
H172   H     0.21987   0.53870   0.26036   0.00000  Uiso   1.00
H173   H     0.40946   0.61017   0.88737   0.00000  Uiso   1.00
H174   H     0.03739   0.68277   0.22495   0.00000  Uiso   1.00
H175   H     0.23886   0.48912   0.40410   0.00000  Uiso   1.00
O176   O     0.52446   0.63920   0.89235   0.00000  Uiso   1.00
O177   O     0.03632   0.73444   0.33526   0.00000  Uiso   1.00
O178   O     0.30065   0.48038   0.57029   0.00000  Uiso   1.00
N179   N     0.48781   0.64600   0.05021   0.00000  Uiso   1.00
N180   N     0.13995   0.71388   0.36582   0.00000  Uiso   1.00
N181   N     0.32830   0.53283   0.53333   0.00000  Uiso   1.00
N182   N     0.42476   0.62019   0.94924   0.00000  Uiso   1.00
N183   N     0.07690   0.68807   0.26485   0.00000  Uiso   1.00
N184   N     0.26524   0.50702   0.43235   0.00000  Uiso   1.00
C185   C     0.32015   0.80756   0.66199   0.00000  Uiso   1.00
C186   C     0.34642   0.81258   0.76374   0.00000  Uiso   1.00
C187   C     0.40497   0.80084   0.79918   0.00000  Uiso   1.00
C188   C     0.42025   0.80805   0.89424   0.00000  Uiso   1.00
C189   C     0.46739   0.81305   0.04350   0.00000  Uiso   1.00
C190   C     0.25298   0.79247   0.67390   0.00000  Uiso   1.00
C191   C     0.23297   0.76382   0.63380   0.00000  Uiso   1.00
C192   C     0.16958   0.75411   0.65323   0.00000  Uiso   1.00
C193   C     0.07164   0.72789   0.66296   0.00000  Uiso   1.00
C194   C     0.30829   0.84072   0.62083   0.00000  Uiso   1.00
C195   C     0.33476   0.85264   0.53608   0.00000  Uiso   1.00
C196   C     0.31792   0.88355   0.51081   0.00000  Uiso   1.00
C197   C     0.30584   0.93226   0.43814   0.00000  Uiso   1.00
C198   C     0.24316   0.84126   0.76778   0.00000  Uiso   1.00
C199   C     0.30460   0.83089   0.82120   0.00000  Uiso   1.00
C200   C     0.31980   0.83813   0.91623   0.00000  Uiso   1.00
C201   C     0.37836   0.82639   0.95180   0.00000  Uiso   1.00
C202   C     0.21116   0.81077   0.73136   0.00000  Uiso   1.00
C203   C     0.14779   0.80111   0.75085   0.00000  Uiso   1.00
C204   C     0.12769   0.77244   0.71080   0.00000  Uiso   1.00
C205   C     0.26647   0.85903   0.67829   0.00000  Uiso   1.00
C206   C     0.24958   0.88993   0.65314   0.00000  Uiso   1.00
C207   C     0.27603   0.90189   0.56838   0.00000  Uiso   1.00
H208   H     0.35270   0.79331   0.61725   0.00000  Uiso   1.00
H209   H     0.43732   0.78667   0.75469   0.00000  Uiso   1.00
H210   H     0.26534   0.74966   0.58933   0.00000  Uiso   1.00
H211   H     0.36711   0.83847   0.49164   0.00000  Uiso   1.00
H212   H     0.51268   0.78737   0.93242   0.00000  Uiso   1.00
H213   H     0.15004   0.70934   0.58372   0.00000  Uiso   1.00
H214   H     0.36465   0.89661   0.37771   0.00000  Uiso   1.00
H215   H     0.21060   0.85552   0.81252   0.00000  Uiso   1.00
H216   H     0.28743   0.85229   0.96068   0.00000  Uiso   1.00
H217   H     0.11544   0.81528   0.79532   0.00000  Uiso   1.00
H218   H     0.21722   0.90409   0.69762   0.00000  Uiso   1.00
H219   H     0.39102   0.84063   0.09961   0.00000  Uiso   1.00
H220   H     0.02838   0.76260   0.75090   0.00000  Uiso   1.00
H221   H     0.24299   0.94987   0.54490   0.00000  Uiso   1.00
O222   O     0.50494   0.81075   0.10996   0.00000  Uiso   1.00
O223   O     0.02917   0.70837   0.65247   0.00000  Uiso   1.00
O224   O     0.31074   0.95407   0.38219   0.00000  Uiso   1.00
N225   N     0.47351   0.80035   0.95143   0.00000  Uiso   1.00
N226   N     0.13447   0.72739   0.62543   0.00000  Uiso   1.00
N227   N     0.33510   0.90247   0.43281   0.00000  Uiso   1.00
N228   N     0.40805   0.82901   0.04139   0.00000  Uiso   1.00
N229   N     0.06900   0.75605   0.71539   0.00000  Uiso   1.00
N230   N     0.26964   0.93113   0.52277   0.00000  Uiso   1.00
C231   C     0.67574   0.86684   0.82532   0.00000  Uiso   1.00
C232   C     0.64607   0.86961   0.72483   0.00000  Uiso   1.00
C233   C     0.58601   0.85756   0.69658   0.00000  Uiso   1.00
C234   C     0.56762   0.86259   0.60143   0.00000  Uiso   1.00
C235   C     0.51544   0.86437   0.45520   0.00000  Uiso   1.00
C236   C     0.74194   0.85090   0.81180   0.00000  Uiso   1.00
C237   C     0.76248   0.82312   0.85669   0.00000  Uiso   1.00
C238   C     0.82481   0.81240   0.83476   0.00000  Uiso   1.00
C239   C     0.92148   0.78515   0.82360   0.00000  Uiso   1.00
C240   C     0.69002   0.90079   0.85796   0.00000  Uiso   1.00
C241   C     0.66693   0.91497   0.94167   0.00000  Uiso   1.00
C242   C     0.68555   0.94625   0.95861   0.00000  Uiso   1.00
C243   C     0.70162   0.99648   0.01911   0.00000  Uiso   1.00
C244   C     0.74989   0.89719   0.70658   0.00000  Uiso   1.00
C245   C     0.68635   0.88609   0.66034   0.00000  Uiso   1.00
C246   C     0.66804   0.89114   0.56521   0.00000  Uiso   1.00
C247   C     0.60796   0.87910   0.53682   0.00000  Uiso   1.00
C248   C     0.78222   0.86738   0.74731   0.00000  Uiso   1.00
C249   C     0.84452   0.85670   0.72532   0.00000  Uiso   1.00
C250   C     0.86515   0.82891   0.77015   0.00000  Uiso   1.00
C251   C     0.73030   0.91728   0.79346   0.00000  Uiso   1.00
C252   C     0.74896   0.94855   0.81029   0.00000  Uiso   1.00
C253   C     0.72590   0.96277   0.89400   0.00000  Uiso   1.00
H254   H     0.64438   0.85400   0.87554   0.00000  Uiso   1.00
H255   H     0.55485   0.84480   0.74651   0.00000  Uiso   1.00
H256   H     0.73131   0.81037   0.90660   0.00000  Uiso   1.00
H257   H     0.63576   0.90220   0.99156   0.00000  Uiso   1.00
H258   H     0.47336   0.84187   0.57502   0.00000  Uiso   1.00
H259   H     0.84543   0.76927   0.91260   0.00000  Uiso   1.00
H260   H     0.64396   0.96292   0.09175   0.00000  Uiso   1.00
H261   H     0.78125   0.91002   0.65637   0.00000  Uiso   1.00
H262   H     0.69922   0.90390   0.51532   0.00000  Uiso   1.00
H263   H     0.87568   0.86947   0.67541   0.00000  Uiso   1.00
H264   H     0.78013   0.96130   0.76036   0.00000  Uiso   1.00
H265   H     0.59054   0.88983   0.38737   0.00000  Uiso   1.00
H266   H     0.96261   0.81723   0.72495   0.00000  Uiso   1.00
H267   H     0.76114   0.01088   0.90410   0.00000  Uiso   1.00
O268   O     0.47554   0.86080   0.39235   0.00000  Uiso   1.00
O269   O     0.96368   0.76556   0.83526   0.00000  Uiso   1.00
O270   O     0.69935   0.01962   0.07029   0.00000  Uiso   1.00
N271   N     0.51219   0.85400   0.55021   0.00000  Uiso   1.00
N272   N     0.86005   0.78612   0.86582   0.00000  Uiso   1.00
N273   N     0.67170   0.96717   0.03333   0.00000  Uiso   1.00
N274   N     0.57524   0.87981   0.44924   0.00000  Uiso   1.00
N275   N     0.92310   0.81193   0.76485   0.00000  Uiso   1.00
N276   N     0.73476   0.99298   0.93235   0.00000  Uiso   1.00
C277   C     0.32015   0.30756   0.16199   0.00000  Uiso   1.00
C278   C     0.34642   0.31258   0.26374   0.00000  Uiso   1.00
C279   C     0.40497   0.30084   0.29918   0.00000  Uiso   1.00
C280   C     0.42025   0.30805   0.39424   0.00000  Uiso   1.00
C281   C     0.46739   0.31305   0.54350   0.00000  Uiso   1.00
C282   C     0.25298   0.29247   0.17390   0.00000  Uiso   1.00
C283   C     0.23297   0.26382   0.13380   0.00000  Uiso   1.00
C284   C     0.16958   0.25411   0.15323   0.00000  Uiso   1.00
C285   C     0.07164   0.22789   0.16296   0.00000  Uiso   1.00
C286   C     0.30829   0.34072   0.12083   0.00000  Uiso   1.00
C287   C     0.33476   0.35264   0.03608   0.00000  Uiso   1.00
C288   C     0.31792   0.38355   0.01081   0.00000  Uiso   1.00
C289   C     0.30584   0.43226   0.93814   0.00000  Uiso   1.00
C290   C     0.24316   0.34126   0.26778   0.00000  Uiso   1.00
C291   C     0.30460   0.33089   0.32120   0.00000  Uiso   1.00
C292   C     0.31980   0.33813   0.41623   0.00000  Uiso   1.00
C293   C     0.37836   0.32639   0.45180   0.00000  Uiso   1.00
C294   C     0.21116   0.31077   0.23136   0.00000  Uiso   1.00
C295   C     0.14779   0.30111   0.25085   0.00000  Uiso   1.00
C296   C     0.12769   0.27244   0.21080   0.00000  Uiso   1.00
C297   C     0.26647   0.35903   0.17829   0.00000  Uiso   1.00
C298   C     0.24958   0.38993   0.15314   0.00000  Uiso   1.00
C299   C     0.27603   0.40189   0.06838   0.00000  Uiso   1.00
H300   H     0.35270   0.29331   0.11725   0.00000  Uiso   1.00
H301   H     0.43732   0.28667   0.25469   0.00000  Uiso   1.00
H302   H     0.26534   0.24966   0.08933   0.00000  Uiso   1.00
H303   H     0.36711   0.33847   0.99164   0.00000  Uiso   1.00
H304   H     0.51268   0.28737   0.43242   0.00000  Uiso   1.00
H305   H     0.15004   0.20934   0.08372   0.00000  Uiso   1.00
H306   H     0.36465   0.39661   0.87771   0.00000  Uiso   1.00
H307   H     0.21060   0.35552   0.31252   0.00000  Uiso   1.00
H308   H     0.28743   0.35229   0.46068   0.00000  Uiso   1.00
H309   H     0.11544   0.31528   0.29532   0.00000  Uiso   1.00
H310   H     0.21722   0.40409   0.19762   0.00000  Uiso   1.00
H311   H     0.39102   0.34063   0.59961   0.00000  Uiso   1.00
H312   H     0.02838   0.26260   0.25090   0.00000  Uiso   1.00
H313   H     0.24299   0.44987   0.04490   0.00000  Uiso   1.00
O314   O     0.50494   0.31075   0.60996   0.00000  Uiso   1.00
O315   O     0.02917   0.20837   0.15247   0.00000  Uiso   1.00
O316   O     0.31074   0.45407   0.88219   0.00000  Uiso   1.00
N317   N     0.47351   0.30035   0.45143   0.00000  Uiso   1.00
N318   N     0.13447   0.22739   0.12543   0.00000  Uiso   1.00
N319   N     0.33510   0.40247   0.93281   0.00000  Uiso   1.00
N320   N     0.40805   0.32901   0.54139   0.00000  Uiso   1.00
N321   N     0.06900   0.25605   0.21539   0.00000  Uiso   1.00
N322   N     0.26964   0.43113   0.02277   0.00000  Uiso   1.00
C323   C     0.67574   0.36684   0.32532   0.00000  Uiso   1.00
C324   C     0.64607   0.36961   0.22483   0.00000  Uiso   1.00
C325   C     0.58601   0.35756   0.19658   0.00000  Uiso   1.00
C326   C     0.56762   0.36259   0.10143   0.00000  Uiso   1.00
C327   C     0.51544   0.36437   0.95520   0.00000  Uiso   1.00
C328   C     0.74194   0.35090   0.31180   0.00000  Uiso   1.00
C329   C     0.76248   0.32312   0.35669   0.00000  Uiso   1.00
C330   C     0.82481   0.31240   0.33476   0.00000  Uiso   1.00
C331   C     0.92148   0.28515   0.32360   0.00000  Uiso   1.00
C332   C     0.69002   0.40079   0.35796   0.00000  Uiso   1.00
C333   C     0.66693   0.41497   0.44167   0.00000  Uiso   1.00
C334   C     0.68555   0.44625   0.45861   0.00000  Uiso   1.00
C335   C     0.70162   0.49648   0.51911   0.00000  Uiso   1.00
C336   C     0.74989   0.39719   0.20658   0.00000  Uiso   1.00
C337   C     0.68635   0.38609   0.16034   0.00000  Uiso   1.00
C338   C     0.66804   0.39114   0.06521   0.00000  Uiso   1.00
C339   C     0.60796   0.37910   0.03682   0.00000  Uiso   1.00
C340   C     0.78222   0.36738   0.24731   0.00000  Uiso   1.00
C341   C     0.84452   0.35670   0.22532   0.00000  Uiso   1.00
C342   C     0.86515   0.32891   0.27015   0.00000  Uiso   1.00
C343   C     0.73030   0.41728   0.29346   0.00000  Uiso   1.00
C344   C     0.74896   0.44855   0.31029   0.00000  Uiso   1.00
C345   C     0.72590   0.46277   0.39400   0.00000  Uiso   1.00
H346   H     0.64438   0.35400   0.37554   0.00000  Uiso   1.00
H347   H     0.55485   0.34480   0.24651   0.00000  Uiso   1.00
H348   H     0.73131   0.31037   0.40660   0.00000  Uiso   1.00
H349   H     0.63576   0.40220   0.49156   0.00000  Uiso   1.00
H350   H     0.47336   0.34187   0.07502   0.00000  Uiso   1.00
H351   H     0.84543   0.26927   0.41260   0.00000  Uiso   1.00
H352   H     0.64396   0.46292   0.59175   0.00000  Uiso   1.00
H353   H     0.78125   0.41002   0.15637   0.00000  Uiso   1.00
H354   H     0.69922   0.40390   0.01532   0.00000  Uiso   1.00
H355   H     0.87568   0.36947   0.17541   0.00000  Uiso   1.00
H356   H     0.78013   0.46130   0.26036   0.00000  Uiso   1.00
H357   H     0.59054   0.38983   0.88737   0.00000  Uiso   1.00
H358   H     0.96261   0.31723   0.22495   0.00000  Uiso   1.00
H359   H     0.76114   0.51088   0.40410   0.00000  Uiso   1.00
O360   O     0.47554   0.36080   0.89235   0.00000  Uiso   1.00
O361   O     0.96368   0.26556   0.33526   0.00000  Uiso   1.00
O362   O     0.69935   0.51962   0.57029   0.00000  Uiso   1.00
N363   N     0.51219   0.35400   0.05021   0.00000  Uiso   1.00
N364   N     0.86005   0.28612   0.36582   0.00000  Uiso   1.00
N365   N     0.67170   0.46717   0.53333   0.00000  Uiso   1.00
N366   N     0.57524   0.37981   0.94924   0.00000  Uiso   1.00
N367   N     0.92310   0.31193   0.26485   0.00000  Uiso   1.00
N368   N     0.73476   0.49298   0.43235   0.00000  Uiso   1.00
C369   C     0.17985   0.30756   0.66199   0.00000  Uiso   1.00
C370   C     0.15358   0.31258   0.76374   0.00000  Uiso   1.00
C371   C     0.09503   0.30084   0.79918   0.00000  Uiso   1.00
C372   C     0.07975   0.30805   0.89424   0.00000  Uiso   1.00
C373   C     0.03261   0.31305   0.04350   0.00000  Uiso   1.00
C374   C     0.24702   0.29247   0.67390   0.00000  Uiso   1.00
C375   C     0.26703   0.26382   0.63380   0.00000  Uiso   1.00
C376   C     0.33042   0.25411   0.65323   0.00000  Uiso   1.00
C377   C     0.42836   0.22789   0.66296   0.00000  Uiso   1.00
C378   C     0.19171   0.34072   0.62083   0.00000  Uiso   1.00
C379   C     0.16524   0.35264   0.53608   0.00000  Uiso   1.00
C380   C     0.18208   0.38355   0.51081   0.00000  Uiso   1.00
C381   C     0.19416   0.43226   0.43814   0.00000  Uiso   1.00
C382   C     0.25684   0.34126   0.76778   0.00000  Uiso   1.00
C383   C     0.19540   0.33089   0.82120   0.00000  Uiso   1.00
C384   C     0.18020   0.33813   0.91623   0.00000  Uiso   1.00
C385   C     0.12164   0.32639   0.95180   0.00000  Uiso   1.00
C386   C     0.28884   0.31077   0.73136   0.00000  Uiso   1.00
C387   C     0.35221   0.30111   0.75085   0.00000  Uiso   1.00
C388   C     0.37231   0.27244   0.71080   0.00000  Uiso   1.00
C389   C     0.23353   0.35903   0.67829   0.00000  Uiso   1.00
C390   C     0.25042   0.38993   0.65314   0.00000  Uiso   1.00
C391   C     0.22397   0.40189   0.56838   0.00000  Uiso   1.00
H392   H     0.14730   0.29331   0.61725   0.00000  Uiso   1.00
H393   H     0.06268   0.28667   0.75469   0.00000  Uiso   1.00
H394   H     0.23466   0.24966   0.58933   0.00000  Uiso   1.00
H395   H     0.13289   0.33847   0.49164   0.00000  Uiso   1.00
H396   H     0.98732   0.28737   0.93242   0.00000  Uiso   1.00
H397   H     0.34996   0.20934   0.58372   0.00000  Uiso   1.00
H398   H     0.13535   0.39661   0.37771   0.00000  Uiso   1.00
H399   H     0.28940   0.35552   0.81252   0.00000  Uiso   1.00
H400   H     0.21257   0.35229   0.96068   0.00000  Uiso   1.00
H401   H     0.38456   0.31528   0.79532   0.00000  Uiso   1.00
H402   H     0.28278   0.40409   0.69762   0.00000  Uiso   1.00
H403   H     0.10898   0.34063   0.09961   0.00000  Uiso   1.00
H404   H     0.47162   0.26260   0.75090   0.00000  Uiso   1.00
H405   H     0.25701   0.44987   0.54490   0.00000  Uiso   1.00
O406   O     0.99506   0.31075   0.10996   0.00000  Uiso   1.00
O407   O     0.47083   0.20837   0.65247   0.00000  Uiso   1.00
O408   O     0.18926   0.45407   0.38219   0.00000  Uiso   1.00
N409   N     0.02649   0.30035   0.95143   0.00000  Uiso   1.00
N410   N     0.36553   0.22739   0.62543   0.00000  Uiso   1.00
N411   N     0.16490   0.40247   0.43281   0.00000  Uiso   1.00
N412   N     0.09195   0.32901   0.04139   0.00000  Uiso   1.00
N413   N     0.43100   0.25605   0.71539   0.00000  Uiso   1.00
N414   N     0.23036   0.43113   0.52277   0.00000  Uiso   1.00
C415   C     0.82426   0.36684   0.82532   0.00000  Uiso   1.00
C416   C     0.85393   0.36961   0.72483   0.00000  Uiso   1.00
C417   C     0.91399   0.35756   0.69658   0.00000  Uiso   1.00
C418   C     0.93238   0.36259   0.60143   0.00000  Uiso   1.00
C419   C     0.98456   0.36437   0.45520   0.00000  Uiso   1.00
C420   C     0.75806   0.35090   0.81180   0.00000  Uiso   1.00
C421   C     0.73752   0.32312   0.85669   0.00000  Uiso   1.00
C422   C     0.67519   0.31240   0.83476   0.00000  Uiso   1.00
C423   C     0.57852   0.28515   0.82360   0.00000  Uiso   1.00
C424   C     0.80998   0.40079   0.85796   0.00000  Uiso   1.00
C425   C     0.83307   0.41497   0.94167   0.00000  Uiso   1.00
C426   C     0.81445   0.44625   0.95861   0.00000  Uiso   1.00
C427   C     0.79838   0.49648   0.01911   0.00000  Uiso   1.00
C428   C     0.75011   0.39719   0.70658   0.00000  Uiso   1.00
C429   C     0.81365   0.38609   0.66034   0.00000  Uiso   1.00
C430   C     0.83196   0.39114   0.56521   0.00000  Uiso   1.00
C431   C     0.89204   0.37910   0.53682   0.00000  Uiso   1.00
C432   C     0.71778   0.36738   0.74731   0.00000  Uiso   1.00
C433   C     0.65548   0.35670   0.72532   0.00000  Uiso   1.00
C434   C     0.63485   0.32891   0.77015   0.00000  Uiso   1.00
C435   C     0.76970   0.41728   0.79346   0.00000  Uiso   1.00
C436   C     0.75104   0.44855   0.81029   0.00000  Uiso   1.00
C437   C     0.77410   0.46277   0.89400   0.00000  Uiso   1.00
H438   H     0.85562   0.35400   0.87554   0.00000  Uiso   1.00
H439   H     0.94515   0.34480   0.74651   0.00000  Uiso   1.00
H440   H     0.76869   0.31037   0.90660   0.00000  Uiso   1.00
H441   H     0.86424   0.40220   0.99156   0.00000  Uiso   1.00
H442   H     0.02664   0.34187   0.57502   0.00000  Uiso   1.00
H443   H     0.65457   0.26927   0.91260   0.00000  Uiso   1.00
H444   H     0.85604   0.46292   0.09175   0.00000  Uiso   1.00
H445   H     0.71875   0.41002   0.65637   0.00000  Uiso   1.00
H446   H     0.80078   0.40390   0.51532   0.00000  Uiso   1.00
H447   H     0.62432   0.36947   0.67541   0.00000  Uiso   1.00
H448   H     0.71987   0.46130   0.76036   0.00000  Uiso   1.00
H449   H     0.90946   0.38983   0.38737   0.00000  Uiso   1.00
H450   H     0.53739   0.31723   0.72495   0.00000  Uiso   1.00
H451   H     0.73886   0.51088   0.90410   0.00000  Uiso   1.00
O452   O     0.02446   0.36080   0.39235   0.00000  Uiso   1.00
O453   O     0.53632   0.26556   0.83526   0.00000  Uiso   1.00
O454   O     0.80065   0.51962   0.07029   0.00000  Uiso   1.00
N455   N     0.98781   0.35400   0.55021   0.00000  Uiso   1.00
N456   N     0.63995   0.28612   0.86582   0.00000  Uiso   1.00
N457   N     0.82830   0.46717   0.03333   0.00000  Uiso   1.00
N458   N     0.92476   0.37981   0.44924   0.00000  Uiso   1.00
N459   N     0.57690   0.31193   0.76485   0.00000  Uiso   1.00
N460   N     0.76524   0.49298   0.93235   0.00000  Uiso   1.00
C461   C     0.17985   0.80756   0.16199   0.00000  Uiso   1.00
C462   C     0.15358   0.81258   0.26374   0.00000  Uiso   1.00
C463   C     0.09503   0.80084   0.29918   0.00000  Uiso   1.00
C464   C     0.07975   0.80805   0.39424   0.00000  Uiso   1.00
C465   C     0.03261   0.81305   0.54350   0.00000  Uiso   1.00
C466   C     0.24702   0.79247   0.17390   0.00000  Uiso   1.00
C467   C     0.26703   0.76382   0.13380   0.00000  Uiso   1.00
C468   C     0.33042   0.75411   0.15323   0.00000  Uiso   1.00
C469   C     0.42836   0.72789   0.16296   0.00000  Uiso   1.00
C470   C     0.19171   0.84072   0.12083   0.00000  Uiso   1.00
C471   C     0.16524   0.85264   0.03608   0.00000  Uiso   1.00
C472   C     0.18208   0.88355   0.01081   0.00000  Uiso   1.00
C473   C     0.19416   0.93226   0.93814   0.00000  Uiso   1.00
C474   C     0.25684   0.84126   0.26778   0.00000  Uiso   1.00
C475   C     0.19540   0.83089   0.32120   0.00000  Uiso   1.00
C476   C     0.18020   0.83813   0.41623   0.00000  Uiso   1.00
C477   C     0.12164   0.82639   0.45180   0.00000  Uiso   1.00
C478   C     0.28884   0.81077   0.23136   0.00000  Uiso   1.00
C479   C     0.35221   0.80111   0.25085   0.00000  Uiso   1.00
C480   C     0.37231   0.77244   0.21080   0.00000  Uiso   1.00
C481   C     0.23353   0.85903   0.17829   0.00000  Uiso   1.00
C482   C     0.25042   0.88993   0.15314   0.00000  Uiso   1.00
C483   C     0.22397   0.90189   0.06838   0.00000  Uiso   1.00
H484   H     0.14730   0.79331   0.11725   0.00000  Uiso   1.00
H485   H     0.06268   0.78667   0.25469   0.00000  Uiso   1.00
H486   H     0.23466   0.74966   0.08933   0.00000  Uiso   1.00
H487   H     0.13289   0.83847   0.99164   0.00000  Uiso   1.00
H488   H     0.98732   0.78737   0.43242   0.00000  Uiso   1.00
H489   H     0.34996   0.70934   0.08372   0.00000  Uiso   1.00
H490   H     0.13535   0.89661   0.87771   0.00000  Uiso   1.00
H491   H     0.28940   0.85552   0.31252   0.00000  Uiso   1.00
H492   H     0.21257   0.85229   0.46068   0.00000  Uiso   1.00
H493   H     0.38456   0.81528   0.29532   0.00000  Uiso   1.00
H494   H     0.28278   0.90409   0.19762   0.00000  Uiso   1.00
H495   H     0.10898   0.84063   0.59961   0.00000  Uiso   1.00
H496   H     0.47162   0.76260   0.25090   0.00000  Uiso   1.00
H497   H     0.25701   0.94987   0.04490   0.00000  Uiso   1.00
O498   O     0.99506   0.81075   0.60996   0.00000  Uiso   1.00
O499   O     0.47083   0.70837   0.15247   0.00000  Uiso   1.00
O500   O     0.18926   0.95407   0.88219   0.00000  Uiso   1.00
N501   N     0.02649   0.80035   0.45143   0.00000  Uiso   1.00
N502   N     0.36553   0.72739   0.12543   0.00000  Uiso   1.00
N503   N     0.16490   0.90247   0.93281   0.00000  Uiso   1.00
N504   N     0.09195   0.82901   0.54139   0.00000  Uiso   1.00
N505   N     0.43100   0.75605   0.21539   0.00000  Uiso   1.00
N506   N     0.23036   0.93113   0.02277   0.00000  Uiso   1.00
C507   C     0.82426   0.86684   0.32532   0.00000  Uiso   1.00
C508   C     0.85393   0.86961   0.22483   0.00000  Uiso   1.00
C509   C     0.91399   0.85756   0.19658   0.00000  Uiso   1.00
C510   C     0.93238   0.86259   0.10143   0.00000  Uiso   1.00
C511   C     0.98456   0.86437   0.95520   0.00000  Uiso   1.00
C512   C     0.75806   0.85090   0.31180   0.00000  Uiso   1.00
C513   C     0.73752   0.82312   0.35669   0.00000  Uiso   1.00
C514   C     0.67519   0.81240   0.33476   0.00000  Uiso   1.00
C515   C     0.57852   0.78515   0.32360   0.00000  Uiso   1.00
C516   C     0.80998   0.90079   0.35796   0.00000  Uiso   1.00
C517   C     0.83307   0.91497   0.44167   0.00000  Uiso   1.00
C518   C     0.81445   0.94625   0.45861   0.00000  Uiso   1.00
C519   C     0.79838   0.99648   0.51911   0.00000  Uiso   1.00
C520   C     0.75011   0.89719   0.20658   0.00000  Uiso   1.00
C521   C     0.81365   0.88609   0.16034   0.00000  Uiso   1.00
C522   C     0.83196   0.89114   0.06521   0.00000  Uiso   1.00
C523   C     0.89204   0.87910   0.03682   0.00000  Uiso   1.00
C524   C     0.71778   0.86738   0.24731   0.00000  Uiso   1.00
C525   C     0.65548   0.85670   0.22532   0.00000  Uiso   1.00
C526   C     0.63485   0.82891   0.27015   0.00000  Uiso   1.00
C527   C     0.76970   0.91728   0.29346   0.00000  Uiso   1.00
C528   C     0.75104   0.94855   0.31029   0.00000  Uiso   1.00
C529   C     0.77410   0.96277   0.39400   0.00000  Uiso   1.00
H530   H     0.85562   0.85400   0.37554   0.00000  Uiso   1.00
H531   H     0.94515   0.84480   0.24651   0.00000  Uiso   1.00
H532   H     0.76869   0.81037   0.40660   0.00000  Uiso   1.00
H533   H     0.86424   0.90220   0.49156   0.00000  Uiso   1.00
H534   H     0.02664   0.84187   0.07502   0.00000  Uiso   1.00
H535   H     0.65457   0.76927   0.41260   0.00000  Uiso   1.00
H536   H     0.85604   0.96292   0.59175   0.00000  Uiso   1.00
H537   H     0.71875   0.91002   0.15637   0.00000  Uiso   1.00
H538   H     0.80078   0.90390   0.01532   0.00000  Uiso   1.00
H539   H     0.62432   0.86947   0.17541   0.00000  Uiso   1.00
H540   H     0.71987   0.96130   0.26036   0.00000  Uiso   1.00
H541   H     0.90946   0.88983   0.88737   0.00000  Uiso   1.00
H542   H     0.53739   0.81723   0.22495   0.00000  Uiso   1.00
H543   H     0.73886   0.01088   0.40410   0.00000  Uiso   1.00
O544   O     0.02446   0.86080   0.89235   0.00000  Uiso   1.00
O545   O     0.53632   0.76556   0.33526   0.00000  Uiso   1.00
O546   O     0.80065   0.01962   0.57029   0.00000  Uiso   1.00
N547   N     0.98781   0.85400   0.05021   0.00000  Uiso   1.00
N548   N     0.63995   0.78612   0.36582   0.00000  Uiso   1.00
N549   N     0.82830   0.96717   0.53333   0.00000  Uiso   1.00
N550   N     0.92476   0.87981   0.94924   0.00000  Uiso   1.00
N551   N     0.57690   0.81193   0.26485   0.00000  Uiso   1.00
N552   N     0.76524   0.99298   0.43235   0.00000  Uiso   1.00
C553   C     0.82015   0.69244   0.66199   0.00000  Uiso   1.00
C554   C     0.84642   0.68742   0.76374   0.00000  Uiso   1.00
C555   C     0.90497   0.69916   0.79918   0.00000  Uiso   1.00
C556   C     0.92025   0.69195   0.89424   0.00000  Uiso   1.00
C557   C     0.96739   0.68695   0.04350   0.00000  Uiso   1.00
C558   C     0.75298   0.70753   0.67390   0.00000  Uiso   1.00
C559   C     0.73297   0.73618   0.63380   0.00000  Uiso   1.00
C560   C     0.66958   0.74589   0.65323   0.00000  Uiso   1.00
C561   C     0.57164   0.77211   0.66296   0.00000  Uiso   1.00
C562   C     0.80829   0.65928   0.62083   0.00000  Uiso   1.00
C563   C     0.83476   0.64736   0.53608   0.00000  Uiso   1.00
C564   C     0.81792   0.61645   0.51081   0.00000  Uiso   1.00
C565   C     0.80584   0.56774   0.43814   0.00000  Uiso   1.00
C566   C     0.74316   0.65874   0.76778   0.00000  Uiso   1.00
C567   C     0.80460   0.66911   0.82120   0.00000  Uiso   1.00
C568   C     0.81980   0.66187   0.91623   0.00000  Uiso   1.00
C569   C     0.87836   0.67361   0.95180   0.00000  Uiso   1.00
C570   C     0.71116   0.68923   0.73136   0.00000  Uiso   1.00
C571   C     0.64779   0.69889   0.75085   0.00000  Uiso   1.00
C572   C     0.62769   0.72756   0.71080   0.00000  Uiso   1.00
C573   C     0.76647   0.64097   0.67829   0.00000  Uiso   1.00
C574   C     0.74958   0.61007   0.65314   0.00000  Uiso   1.00
C575   C     0.77603   0.59811   0.56838   0.00000  Uiso   1.00
H576   H     0.85270   0.70669   0.61725   0.00000  Uiso   1.00
H577   H     0.93732   0.71333   0.75469   0.00000  Uiso   1.00
H578   H     0.76534   0.75034   0.58933   0.00000  Uiso   1.00
H579   H     0.86711   0.66153   0.49164   0.00000  Uiso   1.00
H580   H     0.01268   0.71263   0.93242   0.00000  Uiso   1.00
H581   H     0.65004   0.79066   0.58372   0.00000  Uiso   1.00
H582   H     0.86465   0.60339   0.37771   0.00000  Uiso   1.00
H583   H     0.71060   0.64448   0.81252   0.00000  Uiso   1.00
H584   H     0.78743   0.64771   0.96068   0.00000  Uiso   1.00
H585   H     0.61544   0.68472   0.79532   0.00000  Uiso   1.00
H586   H     0.71722   0.59591   0.69762   0.00000  Uiso   1.00
H587   H     0.89102   0.65937   0.09961   0.00000  Uiso   1.00
H588   H     0.52838   0.73740   0.75090   0.00000  Uiso   1.00
H589   H     0.74299   0.55013   0.54490   0.00000  Uiso   1.00
O590   O     0.00494   0.68925   0.10996   0.00000  Uiso   1.00
O591   O     0.52917   0.79163   0.65247   0.00000  Uiso   1.00
O592   O     0.81074   0.54593   0.38219   0.00000  Uiso   1.00
N593   N     0.97351   0.69965   0.95143   0.00000  Uiso   1.00
N594   N     0.63447   0.77261   0.62543   0.00000  Uiso   1.00
N595   N     0.83510   0.59753   0.43281   0.00000  Uiso   1.00
N596   N     0.90805   0.67099   0.04139   0.00000  Uiso   1.00
N597   N     0.56900   0.74395   0.71539   0.00000  Uiso   1.00
N598   N     0.76964   0.56887   0.52277   0.00000  Uiso   1.00
C599   C     0.17574   0.63316   0.82532   0.00000  Uiso   1.00
C600   C     0.14607   0.63039   0.72483   0.00000  Uiso   1.00
C601   C     0.08601   0.64244   0.69658   0.00000  Uiso   1.00
C602   C     0.06762   0.63741   0.60143   0.00000  Uiso   1.00
C603   C     0.01544   0.63563   0.45520   0.00000  Uiso   1.00
C604   C     0.24194   0.64910   0.81180   0.00000  Uiso   1.00
C605   C     0.26248   0.67688   0.85669   0.00000  Uiso   1.00
C606   C     0.32481   0.68760   0.83476   0.00000  Uiso   1.00
C607   C     0.42148   0.71485   0.82360   0.00000  Uiso   1.00
C608   C     0.19002   0.59921   0.85796   0.00000  Uiso   1.00
C609   C     0.16693   0.58503   0.94167   0.00000  Uiso   1.00
C610   C     0.18555   0.55375   0.95861   0.00000  Uiso   1.00
C611   C     0.20162   0.50352   0.01911   0.00000  Uiso   1.00
C612   C     0.24989   0.60281   0.70658   0.00000  Uiso   1.00
C613   C     0.18635   0.61391   0.66034   0.00000  Uiso   1.00
C614   C     0.16804   0.60886   0.56521   0.00000  Uiso   1.00
C615   C     0.10796   0.62090   0.53682   0.00000  Uiso   1.00
C616   C     0.28222   0.63262   0.74731   0.00000  Uiso   1.00
C617   C     0.34452   0.64330   0.72532   0.00000  Uiso   1.00
C618   C     0.36515   0.67109   0.77015   0.00000  Uiso   1.00
C619   C     0.23030   0.58272   0.79346   0.00000  Uiso   1.00
C620   C     0.24896   0.55145   0.81029   0.00000  Uiso   1.00
C621   C     0.22590   0.53723   0.89400   0.00000  Uiso   1.00
H622   H     0.14438   0.64600   0.87554   0.00000  Uiso   1.00
H623   H     0.05485   0.65520   0.74651   0.00000  Uiso   1.00
H624   H     0.23131   0.68963   0.90660   0.00000  Uiso   1.00
H625   H     0.13576   0.59780   0.99156   0.00000  Uiso   1.00
H626   H     0.97336   0.65813   0.57502   0.00000  Uiso   1.00
H627   H     0.34543   0.73073   0.91260   0.00000  Uiso   1.00
H628   H     0.14396   0.53708   0.09175   0.00000  Uiso   1.00
H629   H     0.28125   0.58998   0.65637   0.00000  Uiso   1.00
H630   H     0.19922   0.59610   0.51532   0.00000  Uiso   1.00
H631   H     0.37568   0.63053   0.67541   0.00000  Uiso   1.00
H632   H     0.28013   0.53870   0.76036   0.00000  Uiso   1.00
H633   H     0.09054   0.61017   0.38737   0.00000  Uiso   1.00
H634   H     0.46261   0.68277   0.72495   0.00000  Uiso   1.00
H635   H     0.26114   0.48912   0.90410   0.00000  Uiso   1.00
O636   O     0.97554   0.63920   0.39235   0.00000  Uiso   1.00
O637   O     0.46368   0.73444   0.83526   0.00000  Uiso   1.00
O638   O     0.19935   0.48038   0.07029   0.00000  Uiso   1.00
N639   N     0.01219   0.64600   0.55021   0.00000  Uiso   1.00
N640   N     0.36005   0.71388   0.86582   0.00000  Uiso   1.00
N641   N     0.17170   0.53283   0.03333   0.00000  Uiso   1.00
N642   N     0.07524   0.62019   0.44924   0.00000  Uiso   1.00
N643   N     0.42310   0.68807   0.76485   0.00000  Uiso   1.00
N644   N     0.23476   0.50702   0.93235   0.00000  Uiso   1.00
C645   C     0.82015   0.19244   0.16199   0.00000  Uiso   1.00
C646   C     0.84642   0.18742   0.26374   0.00000  Uiso   1.00
C647   C     0.90497   0.19916   0.29918   0.00000  Uiso   1.00
C648   C     0.92025   0.19195   0.39424   0.00000  Uiso   1.00
C649   C     0.96739   0.18695   0.54350   0.00000  Uiso   1.00
C650   C     0.75298   0.20753   0.17390   0.00000  Uiso   1.00
C651   C     0.73297   0.23618   0.13380   0.00000  Uiso   1.00
C652   C     0.66958   0.24589   0.15323   0.00000  Uiso   1.00
C653   C     0.57164   0.27211   0.16296   0.00000  Uiso   1.00
C654   C     0.80829   0.15928   0.12083   0.00000  Uiso   1.00
C655   C     0.83476   0.14736   0.03608   0.00000  Uiso   1.00
C656   C     0.81792   0.11645   0.01081   0.00000  Uiso   1.00
C657   C     0.80584   0.06774   0.93814   0.00000  Uiso   1.00
C658   C     0.74316   0.15874   0.26778   0.00000  Uiso   1.00
C659   C     0.80460   0.16911   0.32120   0.00000  Uiso   1.00
C660   C     0.81980   0.16187   0.41623   0.00000  Uiso   1.00
C661   C     0.87836   0.17361   0.45180   0.00000  Uiso   1.00
C662   C     0.71116   0.18923   0.23136   0.00000  Uiso   1.00
C663   C     0.64779   0.19889   0.25085   0.00000  Uiso   1.00
C664   C     0.62769   0.22756   0.21080   0.00000  Uiso   1.00
C665   C     0.76647   0.14097   0.17829   0.00000  Uiso   1.00
C666   C     0.74958   0.11007   0.15314   0.00000  Uiso   1.00
C667   C     0.77603   0.09811   0.06838   0.00000  Uiso   1.00
H668   H     0.85270   0.20669   0.11725   0.00000  Uiso   1.00
H669   H     0.93732   0.21333   0.25469   0.00000  Uiso   1.00
H670   H     0.76534   0.25034   0.08933   0.00000  Uiso   1.00
H671   H     0.86711   0.16153   0.99164   0.00000  Uiso   1.00
H672   H     0.01268   0.21263   0.43242   0.00000  Uiso   1.00
H673   H     0.65004   0.29066   0.08372   0.00000  Uiso   1.00
H674   H     0.86465   0.10339   0.87771   0.00000  Uiso   1.00
H675   H     0.71060   0.14448   0.31252   0.00000  Uiso   1.00
H676   H     0.78743   0.14771   0.46068   0.00000  Uiso   1.00
H677   H     0.61544   0.18472   0.29532   0.00000  Uiso   1.00
H678   H     0.71722   0.09591   0.19762   0.00000  Uiso   1.00
H679   H     0.89102   0.15937   0.59961   0.00000  Uiso   1.00
H680   H     0.52838   0.23740   0.25090   0.00000  Uiso   1.00
H681   H     0.74299   0.05013   0.04490   0.00000  Uiso   1.00
O682   O     0.00494   0.18925   0.60996   0.00000  Uiso   1.00
O683   O     0.52917   0.29163   0.15247   0.00000  Uiso   1.00
O684   O     0.81074   0.04593   0.88219   0.00000  Uiso   1.00
N685   N     0.97351   0.19965   0.45143   0.00000  Uiso   1.00
N686   N     0.63447   0.27261   0.12543   0.00000  Uiso   1.00
N687   N     0.83510   0.09753   0.93281   0.00000  Uiso   1.00
N688   N     0.90805   0.17099   0.54139   0.00000  Uiso   1.00
N689   N     0.56900   0.24395   0.21539   0.00000  Uiso   1.00
N690   N     0.76964   0.06887   0.02277   0.00000  Uiso   1.00
C691   C     0.17574   0.13316   0.32532   0.00000  Uiso   1.00
C692   C     0.14607   0.13039   0.22483   0.00000  Uiso   1.00
C693   C     0.08601   0.14244   0.19658   0.00000  Uiso   1.00
C694   C     0.06762   0.13741   0.10143   0.00000  Uiso   1.00
C695   C     0.01544   0.13563   0.95520   0.00000  Uiso   1.00
C696   C     0.24194   0.14910   0.31180   0.00000  Uiso   1.00
C697   C     0.26248   0.17688   0.35669   0.00000  Uiso   1.00
C698   C     0.32481   0.18760   0.33476   0.00000  Uiso   1.00
C699   C     0.42148   0.21485   0.32360   0.00000  Uiso   1.00
C700   C     0.19002   0.09921   0.35796   0.00000  Uiso   1.00
C701   C     0.16693   0.08503   0.44167   0.00000  Uiso   1.00
C702   C     0.18555   0.05375   0.45861   0.00000  Uiso   1.00
C703   C     0.20162   0.00352   0.51911   0.00000  Uiso   1.00
C704   C     0.24989   0.10281   0.20658   0.00000  Uiso   1.00
C705   C     0.18635   0.11391   0.16034   0.00000  Uiso   1.00
C706   C     0.16804   0.10886   0.06521   0.00000  Uiso   1.00
C707   C     0.10796   0.12090   0.03682   0.00000  Uiso   1.00
C708   C     0.28222   0.13262   0.24731   0.00000  Uiso   1.00
C709   C     0.34452   0.14330   0.22532   0.00000  Uiso   1.00
C710   C     0.36515   0.17109   0.27015   0.00000  Uiso   1.00
C711   C     0.23030   0.08272   0.29346   0.00000  Uiso   1.00
C712   C     0.24896   0.05145   0.31029   0.00000  Uiso   1.00
C713   C     0.22590   0.03723   0.39400   0.00000  Uiso   1.00
H714   H     0.14438   0.14600   0.37554   0.00000  Uiso   1.00
H715   H     0.05485   0.15520   0.24651   0.00000  Uiso   1.00
H716   H     0.23131   0.18963   0.40660   0.00000  Uiso   1.00
H717   H     0.13576   0.09780   0.49156   0.00000  Uiso   1.00
H718   H     0.97336   0.15813   0.07502   0.00000  Uiso   1.00
H719   H     0.34543   0.23073   0.41260   0.00000  Uiso   1.00
H720   H     0.14396   0.03708   0.59175   0.00000  Uiso   1.00
H721   H     0.28125   0.08998   0.15637   0.00000  Uiso   1.00
H722   H     0.19922   0.09610   0.01532   0.00000  Uiso   1.00
H723   H     0.37568   0.13053   0.17541   0.00000  Uiso   1.00
H724   H     0.28013   0.03870   0.26036   0.00000  Uiso   1.00
H725   H     0.09054   0.11017   0.88737   0.00000  Uiso   1.00
H726   H     0.46261   0.18277   0.22495   0.00000  Uiso   1.00
H727   H     0.26114   0.98912   0.40410   0.00000  Uiso   1.00
O728   O     0.97554   0.13920   0.89235   0.00000  Uiso   1.00
O729   O     0.46368   0.23444   0.33526   0.00000  Uiso   1.00
O730   O     0.19935   0.98038   0.57029   0.00000  Uiso   1.00
N731   N     0.01219   0.14600   0.05021   0.00000  Uiso   1.00
N732   N     0.36005   0.21388   0.36582   0.00000  Uiso   1.00
N733   N     0.17170   0.03283   0.53333   0.00000  Uiso   1.00
N734   N     0.07524   0.12019   0.94924   0.00000  Uiso   1.00
N735   N     0.42310   0.18807   0.26485   0.00000  Uiso   1.00
N736   N     0.23476   0.00702   0.43235   0.00000  Uiso   1.00
