data_job_00851
_audit_creation_date              2018-12-19
_audit_creation_method            'Materials Studio'
_symmetry_space_group_name_H-M    'P1'
_symmetry_Int_Tables_number       1
_symmetry_cell_setting            triclinic
loop_
_symmetry_equiv_pos_as_xyz
  x,y,z
_cell_length_a                    43.0806
_cell_length_b                    32.2053
_cell_length_c                    7.2740
_cell_angle_alpha                 90.0000
_cell_angle_beta                  90.0000
_cell_angle_gamma                 90.0000
loop_
_atom_site_label
_atom_site_type_symbol
_atom_site_fract_x
_atom_site_fract_y
_atom_site_fract_z
_atom_site_U_iso_or_equiv
_atom_site_adp_type
_atom_site_occupancy
C1     C     0.60188   0.58049   0.93082   0.00000  Uiso   1.00
C2     C     0.57989   0.61562   0.87792   0.00000  Uiso   1.00
C3     C     0.56797   0.64532   0.99677   0.00000  Uiso   1.00
C4     C     0.54822   0.67485   0.92163   0.00000  Uiso   1.00
C5     C     0.51520   0.72942   0.86800   0.00000  Uiso   1.00
C6     C     0.58597   0.54043   0.87080   0.00000  Uiso   1.00
C7     C     0.57916   0.50690   0.98367   0.00000  Uiso   1.00
C8     C     0.56453   0.47314   0.90251   0.00000  Uiso   1.00
C9     C     0.54097   0.41095   0.83781   0.00000  Uiso   1.00
C10    C     0.63028   0.58519   0.80744   0.00000  Uiso   1.00
C11    C     0.66073   0.58929   0.86703   0.00000  Uiso   1.00
C12    C     0.68341   0.59321   0.73253   0.00000  Uiso   1.00
C13    C     0.72866   0.60052   0.56944   0.00000  Uiso   1.00
C14    C     0.58802   0.58015   0.58601   0.00000  Uiso   1.00
C15    C     0.57236   0.61543   0.69063   0.00000  Uiso   1.00
C16    C     0.55263   0.64494   0.61528   0.00000  Uiso   1.00
C17    C     0.54067   0.67467   0.73400   0.00000  Uiso   1.00
C18    C     0.57844   0.54024   0.68352   0.00000  Uiso   1.00
C19    C     0.56382   0.50652   0.60218   0.00000  Uiso   1.00
C20    C     0.55699   0.47295   0.71489   0.00000  Uiso   1.00
C21    C     0.62275   0.58501   0.62015   0.00000  Uiso   1.00
C22    C     0.64539   0.58892   0.48553   0.00000  Uiso   1.00
C23    C     0.67587   0.59302   0.54490   0.00000  Uiso   1.00
H24    H     0.60774   0.58064   0.07662   0.00000  Uiso   1.00
H25    H     0.57380   0.64545   0.14171   0.00000  Uiso   1.00
H26    H     0.58499   0.50705   0.12859   0.00000  Uiso   1.00
H27    H     0.66655   0.58943   0.01197   0.00000  Uiso   1.00
H28    H     0.53283   0.71721   0.13128   0.00000  Uiso   1.00
H29    H     0.55644   0.42539   0.10362   0.00000  Uiso   1.00
H30    H     0.72843   0.59911   0.85770   0.00000  Uiso   1.00
H31    H     0.58216   0.58001   0.44019   0.00000  Uiso   1.00
H32    H     0.54680   0.64479   0.47034   0.00000  Uiso   1.00
H33    H     0.55800   0.50639   0.45724   0.00000  Uiso   1.00
H34    H     0.63956   0.58877   0.34062   0.00000  Uiso   1.00
H35    H     0.51092   0.71667   0.58638   0.00000  Uiso   1.00
H36    H     0.53453   0.42485   0.55872   0.00000  Uiso   1.00
H37    H     0.70652   0.59857   0.31280   0.00000  Uiso   1.00
O38    O     0.49907   0.75956   0.89016   0.00000  Uiso   1.00
O39    O     0.53006   0.37670   0.85387   0.00000  Uiso   1.00
O40    O     0.75570   0.60461   0.53123   0.00000  Uiso   1.00
N41    N     0.53253   0.70820   0.99889   0.00000  Uiso   1.00
N42    N     0.55460   0.43537   0.97304   0.00000  Uiso   1.00
N43    N     0.71539   0.59777   0.74312   0.00000  Uiso   1.00
N44    N     0.52074   0.70791   0.70569   0.00000  Uiso   1.00
N45    N     0.54281   0.43508   0.67983   0.00000  Uiso   1.00
N46    N     0.70360   0.59748   0.44991   0.00000  Uiso   1.00
C47    C     0.60188   0.08049   0.43082   0.00000  Uiso   1.00
C48    C     0.57989   0.11562   0.37792   0.00000  Uiso   1.00
C49    C     0.56797   0.14532   0.49677   0.00000  Uiso   1.00
C50    C     0.54822   0.17485   0.42163   0.00000  Uiso   1.00
C51    C     0.51520   0.22942   0.36800   0.00000  Uiso   1.00
C52    C     0.58597   0.04043   0.37080   0.00000  Uiso   1.00
C53    C     0.57916   0.00690   0.48367   0.00000  Uiso   1.00
C54    C     0.56453   0.97314   0.40251   0.00000  Uiso   1.00
C55    C     0.54097   0.91095   0.33781   0.00000  Uiso   1.00
C56    C     0.63028   0.08519   0.30744   0.00000  Uiso   1.00
C57    C     0.66073   0.08929   0.36703   0.00000  Uiso   1.00
C58    C     0.68341   0.09321   0.23253   0.00000  Uiso   1.00
C59    C     0.72866   0.10052   0.06944   0.00000  Uiso   1.00
C60    C     0.58802   0.08015   0.08601   0.00000  Uiso   1.00
C61    C     0.57236   0.11543   0.19063   0.00000  Uiso   1.00
C62    C     0.55263   0.14494   0.11528   0.00000  Uiso   1.00
C63    C     0.54067   0.17467   0.23400   0.00000  Uiso   1.00
C64    C     0.57844   0.04024   0.18352   0.00000  Uiso   1.00
C65    C     0.56382   0.00652   0.10218   0.00000  Uiso   1.00
C66    C     0.55699   0.97295   0.21489   0.00000  Uiso   1.00
C67    C     0.62275   0.08501   0.12015   0.00000  Uiso   1.00
C68    C     0.64539   0.08892   0.98553   0.00000  Uiso   1.00
C69    C     0.67587   0.09302   0.04490   0.00000  Uiso   1.00
H70    H     0.60774   0.08064   0.57662   0.00000  Uiso   1.00
H71    H     0.57380   0.14545   0.64171   0.00000  Uiso   1.00
H72    H     0.58499   0.00705   0.62859   0.00000  Uiso   1.00
H73    H     0.66655   0.08943   0.51197   0.00000  Uiso   1.00
H74    H     0.53283   0.21721   0.63128   0.00000  Uiso   1.00
H75    H     0.55644   0.92539   0.60362   0.00000  Uiso   1.00
H76    H     0.72843   0.09911   0.35770   0.00000  Uiso   1.00
H77    H     0.58216   0.08001   0.94019   0.00000  Uiso   1.00
H78    H     0.54680   0.14479   0.97034   0.00000  Uiso   1.00
H79    H     0.55800   0.00639   0.95724   0.00000  Uiso   1.00
H80    H     0.63956   0.08877   0.84062   0.00000  Uiso   1.00
H81    H     0.51092   0.21667   0.08638   0.00000  Uiso   1.00
H82    H     0.53453   0.92485   0.05872   0.00000  Uiso   1.00
H83    H     0.70652   0.09857   0.81280   0.00000  Uiso   1.00
O84    O     0.49907   0.25956   0.39016   0.00000  Uiso   1.00
O85    O     0.53006   0.87670   0.35387   0.00000  Uiso   1.00
O86    O     0.75570   0.10461   0.03123   0.00000  Uiso   1.00
N87    N     0.53253   0.20820   0.49889   0.00000  Uiso   1.00
N88    N     0.55460   0.93537   0.47304   0.00000  Uiso   1.00
N89    N     0.71539   0.09777   0.24312   0.00000  Uiso   1.00
N90    N     0.52074   0.20791   0.20569   0.00000  Uiso   1.00
N91    N     0.54281   0.93508   0.17983   0.00000  Uiso   1.00
N92    N     0.70360   0.09748   0.94991   0.00000  Uiso   1.00
C93    C     0.10188   0.58049   0.43082   0.00000  Uiso   1.00
C94    C     0.07989   0.61562   0.37792   0.00000  Uiso   1.00
C95    C     0.06797   0.64532   0.49677   0.00000  Uiso   1.00
C96    C     0.04822   0.67485   0.42163   0.00000  Uiso   1.00
C97    C     0.01520   0.72942   0.36800   0.00000  Uiso   1.00
C98    C     0.08597   0.54043   0.37080   0.00000  Uiso   1.00
C99    C     0.07916   0.50690   0.48367   0.00000  Uiso   1.00
C100   C     0.06453   0.47314   0.40251   0.00000  Uiso   1.00
C101   C     0.04097   0.41095   0.33781   0.00000  Uiso   1.00
C102   C     0.13028   0.58519   0.30744   0.00000  Uiso   1.00
C103   C     0.16073   0.58929   0.36703   0.00000  Uiso   1.00
C104   C     0.18341   0.59321   0.23253   0.00000  Uiso   1.00
C105   C     0.22866   0.60052   0.06944   0.00000  Uiso   1.00
C106   C     0.08802   0.58015   0.08601   0.00000  Uiso   1.00
C107   C     0.07236   0.61543   0.19063   0.00000  Uiso   1.00
C108   C     0.05263   0.64494   0.11528   0.00000  Uiso   1.00
C109   C     0.04067   0.67467   0.23400   0.00000  Uiso   1.00
C110   C     0.07844   0.54024   0.18352   0.00000  Uiso   1.00
C111   C     0.06382   0.50652   0.10218   0.00000  Uiso   1.00
C112   C     0.05699   0.47295   0.21489   0.00000  Uiso   1.00
C113   C     0.12275   0.58501   0.12015   0.00000  Uiso   1.00
C114   C     0.14539   0.58892   0.98553   0.00000  Uiso   1.00
C115   C     0.17587   0.59302   0.04490   0.00000  Uiso   1.00
H116   H     0.10774   0.58064   0.57662   0.00000  Uiso   1.00
H117   H     0.07380   0.64545   0.64171   0.00000  Uiso   1.00
H118   H     0.08499   0.50705   0.62859   0.00000  Uiso   1.00
H119   H     0.16655   0.58943   0.51197   0.00000  Uiso   1.00
H120   H     0.03283   0.71721   0.63128   0.00000  Uiso   1.00
H121   H     0.05644   0.42539   0.60362   0.00000  Uiso   1.00
H122   H     0.22843   0.59911   0.35770   0.00000  Uiso   1.00
H123   H     0.08216   0.58001   0.94019   0.00000  Uiso   1.00
H124   H     0.04680   0.64479   0.97034   0.00000  Uiso   1.00
H125   H     0.05800   0.50639   0.95724   0.00000  Uiso   1.00
H126   H     0.13956   0.58877   0.84062   0.00000  Uiso   1.00
H127   H     0.01092   0.71667   0.08638   0.00000  Uiso   1.00
H128   H     0.03453   0.42485   0.05872   0.00000  Uiso   1.00
H129   H     0.20652   0.59857   0.81280   0.00000  Uiso   1.00
O130   O     0.99907   0.75956   0.39016   0.00000  Uiso   1.00
O131   O     0.03006   0.37670   0.35387   0.00000  Uiso   1.00
O132   O     0.25570   0.60461   0.03123   0.00000  Uiso   1.00
N133   N     0.03253   0.70820   0.49889   0.00000  Uiso   1.00
N134   N     0.05460   0.43537   0.47304   0.00000  Uiso   1.00
N135   N     0.21539   0.59777   0.24312   0.00000  Uiso   1.00
N136   N     0.02074   0.70791   0.20569   0.00000  Uiso   1.00
N137   N     0.04281   0.43508   0.17983   0.00000  Uiso   1.00
N138   N     0.20360   0.59748   0.94991   0.00000  Uiso   1.00
C139   C     0.10188   0.08049   0.93082   0.00000  Uiso   1.00
C140   C     0.07989   0.11562   0.87792   0.00000  Uiso   1.00
C141   C     0.06797   0.14532   0.99677   0.00000  Uiso   1.00
C142   C     0.04822   0.17485   0.92163   0.00000  Uiso   1.00
C143   C     0.01520   0.22942   0.86800   0.00000  Uiso   1.00
C144   C     0.08597   0.04043   0.87080   0.00000  Uiso   1.00
C145   C     0.07916   0.00690   0.98367   0.00000  Uiso   1.00
C146   C     0.06453   0.97314   0.90251   0.00000  Uiso   1.00
C147   C     0.04097   0.91095   0.83781   0.00000  Uiso   1.00
C148   C     0.13028   0.08519   0.80744   0.00000  Uiso   1.00
C149   C     0.16073   0.08929   0.86703   0.00000  Uiso   1.00
C150   C     0.18341   0.09321   0.73253   0.00000  Uiso   1.00
C151   C     0.22866   0.10052   0.56944   0.00000  Uiso   1.00
C152   C     0.08802   0.08015   0.58601   0.00000  Uiso   1.00
C153   C     0.07236   0.11543   0.69063   0.00000  Uiso   1.00
C154   C     0.05263   0.14494   0.61528   0.00000  Uiso   1.00
C155   C     0.04067   0.17467   0.73400   0.00000  Uiso   1.00
C156   C     0.07844   0.04024   0.68352   0.00000  Uiso   1.00
C157   C     0.06382   0.00652   0.60218   0.00000  Uiso   1.00
C158   C     0.05699   0.97295   0.71489   0.00000  Uiso   1.00
C159   C     0.12275   0.08501   0.62015   0.00000  Uiso   1.00
C160   C     0.14539   0.08892   0.48553   0.00000  Uiso   1.00
C161   C     0.17587   0.09302   0.54490   0.00000  Uiso   1.00
H162   H     0.10774   0.08064   0.07662   0.00000  Uiso   1.00
H163   H     0.07380   0.14545   0.14171   0.00000  Uiso   1.00
H164   H     0.08499   0.00705   0.12859   0.00000  Uiso   1.00
H165   H     0.16655   0.08943   0.01197   0.00000  Uiso   1.00
H166   H     0.03283   0.21721   0.13128   0.00000  Uiso   1.00
H167   H     0.05644   0.92539   0.10362   0.00000  Uiso   1.00
H168   H     0.22843   0.09911   0.85770   0.00000  Uiso   1.00
H169   H     0.08216   0.08001   0.44019   0.00000  Uiso   1.00
H170   H     0.04680   0.14479   0.47034   0.00000  Uiso   1.00
H171   H     0.05800   0.00639   0.45724   0.00000  Uiso   1.00
H172   H     0.13956   0.08877   0.34062   0.00000  Uiso   1.00
H173   H     0.01092   0.21667   0.58638   0.00000  Uiso   1.00
H174   H     0.03453   0.92485   0.55872   0.00000  Uiso   1.00
H175   H     0.20652   0.09857   0.31280   0.00000  Uiso   1.00
O176   O     0.99907   0.25956   0.89016   0.00000  Uiso   1.00
O177   O     0.03006   0.87670   0.85387   0.00000  Uiso   1.00
O178   O     0.25570   0.10461   0.53123   0.00000  Uiso   1.00
N179   N     0.03253   0.20820   0.99889   0.00000  Uiso   1.00
N180   N     0.05460   0.93537   0.97304   0.00000  Uiso   1.00
N181   N     0.21539   0.09777   0.74312   0.00000  Uiso   1.00
N182   N     0.02074   0.20791   0.70569   0.00000  Uiso   1.00
N183   N     0.04281   0.93508   0.67983   0.00000  Uiso   1.00
N184   N     0.20360   0.09748   0.44991   0.00000  Uiso   1.00
C185   C     0.39812   0.41951   0.93082   0.00000  Uiso   1.00
C186   C     0.42011   0.38438   0.87792   0.00000  Uiso   1.00
C187   C     0.43203   0.35468   0.99677   0.00000  Uiso   1.00
C188   C     0.45178   0.32515   0.92163   0.00000  Uiso   1.00
C189   C     0.48480   0.27058   0.86800   0.00000  Uiso   1.00
C190   C     0.41403   0.45957   0.87080   0.00000  Uiso   1.00
C191   C     0.42084   0.49310   0.98367   0.00000  Uiso   1.00
C192   C     0.43547   0.52686   0.90251   0.00000  Uiso   1.00
C193   C     0.45903   0.58905   0.83781   0.00000  Uiso   1.00
C194   C     0.36972   0.41481   0.80744   0.00000  Uiso   1.00
C195   C     0.33927   0.41071   0.86703   0.00000  Uiso   1.00
C196   C     0.31659   0.40679   0.73253   0.00000  Uiso   1.00
C197   C     0.27134   0.39948   0.56944   0.00000  Uiso   1.00
C198   C     0.41198   0.41985   0.58601   0.00000  Uiso   1.00
C199   C     0.42764   0.38457   0.69063   0.00000  Uiso   1.00
C200   C     0.44737   0.35506   0.61528   0.00000  Uiso   1.00
C201   C     0.45933   0.32533   0.73400   0.00000  Uiso   1.00
C202   C     0.42156   0.45976   0.68352   0.00000  Uiso   1.00
C203   C     0.43618   0.49348   0.60218   0.00000  Uiso   1.00
C204   C     0.44301   0.52705   0.71489   0.00000  Uiso   1.00
C205   C     0.37725   0.41499   0.62015   0.00000  Uiso   1.00
C206   C     0.35461   0.41108   0.48553   0.00000  Uiso   1.00
C207   C     0.32413   0.40698   0.54490   0.00000  Uiso   1.00
H208   H     0.39226   0.41936   0.07662   0.00000  Uiso   1.00
H209   H     0.42620   0.35455   0.14171   0.00000  Uiso   1.00
H210   H     0.41501   0.49295   0.12859   0.00000  Uiso   1.00
H211   H     0.33345   0.41057   0.01197   0.00000  Uiso   1.00
H212   H     0.46717   0.28279   0.13128   0.00000  Uiso   1.00
H213   H     0.44356   0.57461   0.10362   0.00000  Uiso   1.00
H214   H     0.27157   0.40089   0.85770   0.00000  Uiso   1.00
H215   H     0.41784   0.41999   0.44019   0.00000  Uiso   1.00
H216   H     0.45320   0.35521   0.47034   0.00000  Uiso   1.00
H217   H     0.44200   0.49361   0.45724   0.00000  Uiso   1.00
H218   H     0.36044   0.41123   0.34062   0.00000  Uiso   1.00
H219   H     0.48908   0.28333   0.58638   0.00000  Uiso   1.00
H220   H     0.46547   0.57515   0.55872   0.00000  Uiso   1.00
H221   H     0.29348   0.40143   0.31280   0.00000  Uiso   1.00
O222   O     0.50093   0.24044   0.89016   0.00000  Uiso   1.00
O223   O     0.46994   0.62330   0.85387   0.00000  Uiso   1.00
O224   O     0.24430   0.39539   0.53123   0.00000  Uiso   1.00
N225   N     0.46747   0.29180   0.99889   0.00000  Uiso   1.00
N226   N     0.44540   0.56463   0.97304   0.00000  Uiso   1.00
N227   N     0.28461   0.40223   0.74312   0.00000  Uiso   1.00
N228   N     0.47926   0.29209   0.70569   0.00000  Uiso   1.00
N229   N     0.45719   0.56492   0.67983   0.00000  Uiso   1.00
N230   N     0.29640   0.40252   0.44991   0.00000  Uiso   1.00
C231   C     0.39812   0.91951   0.43082   0.00000  Uiso   1.00
C232   C     0.42011   0.88438   0.37792   0.00000  Uiso   1.00
C233   C     0.43203   0.85468   0.49677   0.00000  Uiso   1.00
C234   C     0.45178   0.82515   0.42163   0.00000  Uiso   1.00
C235   C     0.48480   0.77058   0.36800   0.00000  Uiso   1.00
C236   C     0.41403   0.95957   0.37080   0.00000  Uiso   1.00
C237   C     0.42084   0.99310   0.48367   0.00000  Uiso   1.00
C238   C     0.43547   0.02686   0.40251   0.00000  Uiso   1.00
C239   C     0.45903   0.08905   0.33781   0.00000  Uiso   1.00
C240   C     0.36972   0.91481   0.30744   0.00000  Uiso   1.00
C241   C     0.33927   0.91071   0.36703   0.00000  Uiso   1.00
C242   C     0.31659   0.90679   0.23253   0.00000  Uiso   1.00
C243   C     0.27134   0.89948   0.06944   0.00000  Uiso   1.00
C244   C     0.41198   0.91985   0.08601   0.00000  Uiso   1.00
C245   C     0.42764   0.88457   0.19063   0.00000  Uiso   1.00
C246   C     0.44737   0.85506   0.11528   0.00000  Uiso   1.00
C247   C     0.45933   0.82533   0.23400   0.00000  Uiso   1.00
C248   C     0.42156   0.95976   0.18352   0.00000  Uiso   1.00
C249   C     0.43618   0.99348   0.10218   0.00000  Uiso   1.00
C250   C     0.44301   0.02705   0.21489   0.00000  Uiso   1.00
C251   C     0.37725   0.91499   0.12015   0.00000  Uiso   1.00
C252   C     0.35461   0.91108   0.98553   0.00000  Uiso   1.00
C253   C     0.32413   0.90698   0.04490   0.00000  Uiso   1.00
H254   H     0.39226   0.91936   0.57662   0.00000  Uiso   1.00
H255   H     0.42620   0.85455   0.64171   0.00000  Uiso   1.00
H256   H     0.41501   0.99295   0.62859   0.00000  Uiso   1.00
H257   H     0.33345   0.91057   0.51197   0.00000  Uiso   1.00
H258   H     0.46717   0.78279   0.63128   0.00000  Uiso   1.00
H259   H     0.44356   0.07461   0.60362   0.00000  Uiso   1.00
H260   H     0.27157   0.90089   0.35770   0.00000  Uiso   1.00
H261   H     0.41784   0.91999   0.94019   0.00000  Uiso   1.00
H262   H     0.45320   0.85521   0.97034   0.00000  Uiso   1.00
H263   H     0.44200   0.99361   0.95724   0.00000  Uiso   1.00
H264   H     0.36044   0.91123   0.84062   0.00000  Uiso   1.00
H265   H     0.48908   0.78333   0.08638   0.00000  Uiso   1.00
H266   H     0.46547   0.07515   0.05872   0.00000  Uiso   1.00
H267   H     0.29348   0.90143   0.81280   0.00000  Uiso   1.00
O268   O     0.50093   0.74044   0.39016   0.00000  Uiso   1.00
O269   O     0.46994   0.12330   0.35387   0.00000  Uiso   1.00
O270   O     0.24430   0.89539   0.03123   0.00000  Uiso   1.00
N271   N     0.46747   0.79180   0.49889   0.00000  Uiso   1.00
N272   N     0.44540   0.06463   0.47304   0.00000  Uiso   1.00
N273   N     0.28461   0.90223   0.24312   0.00000  Uiso   1.00
N274   N     0.47926   0.79209   0.20569   0.00000  Uiso   1.00
N275   N     0.45719   0.06492   0.17983   0.00000  Uiso   1.00
N276   N     0.29640   0.90252   0.94991   0.00000  Uiso   1.00
C277   C     0.89812   0.41951   0.43082   0.00000  Uiso   1.00
C278   C     0.92011   0.38438   0.37792   0.00000  Uiso   1.00
C279   C     0.93203   0.35468   0.49677   0.00000  Uiso   1.00
C280   C     0.95178   0.32515   0.42163   0.00000  Uiso   1.00
C281   C     0.98480   0.27058   0.36800   0.00000  Uiso   1.00
C282   C     0.91403   0.45957   0.37080   0.00000  Uiso   1.00
C283   C     0.92084   0.49310   0.48367   0.00000  Uiso   1.00
C284   C     0.93547   0.52686   0.40251   0.00000  Uiso   1.00
C285   C     0.95903   0.58905   0.33781   0.00000  Uiso   1.00
C286   C     0.86972   0.41481   0.30744   0.00000  Uiso   1.00
C287   C     0.83927   0.41071   0.36703   0.00000  Uiso   1.00
C288   C     0.81659   0.40679   0.23253   0.00000  Uiso   1.00
C289   C     0.77134   0.39948   0.06944   0.00000  Uiso   1.00
C290   C     0.91198   0.41985   0.08601   0.00000  Uiso   1.00
C291   C     0.92764   0.38457   0.19063   0.00000  Uiso   1.00
C292   C     0.94737   0.35506   0.11528   0.00000  Uiso   1.00
C293   C     0.95933   0.32533   0.23400   0.00000  Uiso   1.00
C294   C     0.92156   0.45976   0.18352   0.00000  Uiso   1.00
C295   C     0.93618   0.49348   0.10218   0.00000  Uiso   1.00
C296   C     0.94301   0.52705   0.21489   0.00000  Uiso   1.00
C297   C     0.87725   0.41499   0.12015   0.00000  Uiso   1.00
C298   C     0.85461   0.41108   0.98553   0.00000  Uiso   1.00
C299   C     0.82413   0.40698   0.04490   0.00000  Uiso   1.00
H300   H     0.89226   0.41936   0.57662   0.00000  Uiso   1.00
H301   H     0.92620   0.35455   0.64171   0.00000  Uiso   1.00
H302   H     0.91501   0.49295   0.62859   0.00000  Uiso   1.00
H303   H     0.83345   0.41057   0.51197   0.00000  Uiso   1.00
H304   H     0.96717   0.28279   0.63128   0.00000  Uiso   1.00
H305   H     0.94356   0.57461   0.60362   0.00000  Uiso   1.00
H306   H     0.77157   0.40089   0.35770   0.00000  Uiso   1.00
H307   H     0.91784   0.41999   0.94019   0.00000  Uiso   1.00
H308   H     0.95320   0.35521   0.97034   0.00000  Uiso   1.00
H309   H     0.94200   0.49361   0.95724   0.00000  Uiso   1.00
H310   H     0.86044   0.41123   0.84062   0.00000  Uiso   1.00
H311   H     0.98908   0.28333   0.08638   0.00000  Uiso   1.00
H312   H     0.96547   0.57515   0.05872   0.00000  Uiso   1.00
H313   H     0.79348   0.40143   0.81280   0.00000  Uiso   1.00
O314   O     0.00093   0.24044   0.39016   0.00000  Uiso   1.00
O315   O     0.96994   0.62330   0.35387   0.00000  Uiso   1.00
O316   O     0.74430   0.39539   0.03123   0.00000  Uiso   1.00
N317   N     0.96747   0.29180   0.49889   0.00000  Uiso   1.00
N318   N     0.94540   0.56463   0.47304   0.00000  Uiso   1.00
N319   N     0.78461   0.40223   0.24312   0.00000  Uiso   1.00
N320   N     0.97926   0.29209   0.20569   0.00000  Uiso   1.00
N321   N     0.95719   0.56492   0.17983   0.00000  Uiso   1.00
N322   N     0.79640   0.40252   0.94991   0.00000  Uiso   1.00
C323   C     0.89812   0.91951   0.93082   0.00000  Uiso   1.00
C324   C     0.92011   0.88438   0.87792   0.00000  Uiso   1.00
C325   C     0.93203   0.85468   0.99677   0.00000  Uiso   1.00
C326   C     0.95178   0.82515   0.92163   0.00000  Uiso   1.00
C327   C     0.98480   0.77058   0.86800   0.00000  Uiso   1.00
C328   C     0.91403   0.95957   0.87080   0.00000  Uiso   1.00
C329   C     0.92084   0.99310   0.98367   0.00000  Uiso   1.00
C330   C     0.93547   0.02686   0.90251   0.00000  Uiso   1.00
C331   C     0.95903   0.08905   0.83781   0.00000  Uiso   1.00
C332   C     0.86972   0.91481   0.80744   0.00000  Uiso   1.00
C333   C     0.83927   0.91071   0.86703   0.00000  Uiso   1.00
C334   C     0.81659   0.90679   0.73253   0.00000  Uiso   1.00
C335   C     0.77134   0.89948   0.56944   0.00000  Uiso   1.00
C336   C     0.91198   0.91985   0.58601   0.00000  Uiso   1.00
C337   C     0.92764   0.88457   0.69063   0.00000  Uiso   1.00
C338   C     0.94737   0.85506   0.61528   0.00000  Uiso   1.00
C339   C     0.95933   0.82533   0.73400   0.00000  Uiso   1.00
C340   C     0.92156   0.95976   0.68352   0.00000  Uiso   1.00
C341   C     0.93618   0.99348   0.60218   0.00000  Uiso   1.00
C342   C     0.94301   0.02705   0.71489   0.00000  Uiso   1.00
C343   C     0.87725   0.91499   0.62015   0.00000  Uiso   1.00
C344   C     0.85461   0.91108   0.48553   0.00000  Uiso   1.00
C345   C     0.82413   0.90698   0.54490   0.00000  Uiso   1.00
H346   H     0.89226   0.91936   0.07662   0.00000  Uiso   1.00
H347   H     0.92620   0.85455   0.14171   0.00000  Uiso   1.00
H348   H     0.91501   0.99295   0.12859   0.00000  Uiso   1.00
H349   H     0.83345   0.91057   0.01197   0.00000  Uiso   1.00
H350   H     0.96717   0.78279   0.13128   0.00000  Uiso   1.00
H351   H     0.94356   0.07461   0.10362   0.00000  Uiso   1.00
H352   H     0.77157   0.90089   0.85770   0.00000  Uiso   1.00
H353   H     0.91784   0.91999   0.44019   0.00000  Uiso   1.00
H354   H     0.95320   0.85521   0.47034   0.00000  Uiso   1.00
H355   H     0.94200   0.99361   0.45724   0.00000  Uiso   1.00
H356   H     0.86044   0.91123   0.34062   0.00000  Uiso   1.00
H357   H     0.98908   0.78333   0.58638   0.00000  Uiso   1.00
H358   H     0.96547   0.07515   0.55872   0.00000  Uiso   1.00
H359   H     0.79348   0.90143   0.31280   0.00000  Uiso   1.00
O360   O     0.00093   0.74044   0.89016   0.00000  Uiso   1.00
O361   O     0.96994   0.12330   0.85387   0.00000  Uiso   1.00
O362   O     0.74430   0.89539   0.53123   0.00000  Uiso   1.00
N363   N     0.96747   0.79180   0.99889   0.00000  Uiso   1.00
N364   N     0.94540   0.06463   0.97304   0.00000  Uiso   1.00
N365   N     0.78461   0.90223   0.74312   0.00000  Uiso   1.00
N366   N     0.97926   0.79209   0.70569   0.00000  Uiso   1.00
N367   N     0.95719   0.06492   0.67983   0.00000  Uiso   1.00
N368   N     0.79640   0.90252   0.44991   0.00000  Uiso   1.00
C369   C     0.85188   0.66951   0.18082   0.00000  Uiso   1.00
C370   C     0.82989   0.63438   0.12792   0.00000  Uiso   1.00
C371   C     0.81797   0.60468   0.24677   0.00000  Uiso   1.00
C372   C     0.79822   0.57515   0.17163   0.00000  Uiso   1.00
C373   C     0.76520   0.52058   0.11800   0.00000  Uiso   1.00
C374   C     0.83597   0.70957   0.12080   0.00000  Uiso   1.00
C375   C     0.82916   0.74310   0.23367   0.00000  Uiso   1.00
C376   C     0.81453   0.77686   0.15251   0.00000  Uiso   1.00
C377   C     0.79097   0.83905   0.08781   0.00000  Uiso   1.00
C378   C     0.88028   0.66481   0.05744   0.00000  Uiso   1.00
C379   C     0.91073   0.66071   0.11703   0.00000  Uiso   1.00
C380   C     0.93341   0.65679   0.98253   0.00000  Uiso   1.00
C381   C     0.97866   0.64948   0.81944   0.00000  Uiso   1.00
C382   C     0.83802   0.66985   0.83601   0.00000  Uiso   1.00
C383   C     0.82236   0.63457   0.94063   0.00000  Uiso   1.00
C384   C     0.80263   0.60506   0.86528   0.00000  Uiso   1.00
C385   C     0.79067   0.57533   0.98400   0.00000  Uiso   1.00
C386   C     0.82844   0.70976   0.93352   0.00000  Uiso   1.00
C387   C     0.81382   0.74348   0.85218   0.00000  Uiso   1.00
C388   C     0.80699   0.77705   0.96489   0.00000  Uiso   1.00
C389   C     0.87275   0.66499   0.87015   0.00000  Uiso   1.00
C390   C     0.89539   0.66108   0.73553   0.00000  Uiso   1.00
C391   C     0.92587   0.65698   0.79490   0.00000  Uiso   1.00
H392   H     0.85774   0.66936   0.32662   0.00000  Uiso   1.00
H393   H     0.82380   0.60455   0.39171   0.00000  Uiso   1.00
H394   H     0.83499   0.74295   0.37859   0.00000  Uiso   1.00
H395   H     0.91655   0.66057   0.26197   0.00000  Uiso   1.00
H396   H     0.78283   0.53279   0.38128   0.00000  Uiso   1.00
H397   H     0.80644   0.82461   0.35362   0.00000  Uiso   1.00
H398   H     0.97843   0.65089   0.10770   0.00000  Uiso   1.00
H399   H     0.83216   0.66999   0.69019   0.00000  Uiso   1.00
H400   H     0.79680   0.60521   0.72034   0.00000  Uiso   1.00
H401   H     0.80800   0.74361   0.70724   0.00000  Uiso   1.00
H402   H     0.88956   0.66123   0.59062   0.00000  Uiso   1.00
H403   H     0.76092   0.53333   0.83638   0.00000  Uiso   1.00
H404   H     0.78453   0.82515   0.80872   0.00000  Uiso   1.00
H405   H     0.95652   0.65143   0.56280   0.00000  Uiso   1.00
O406   O     0.74907   0.49044   0.14016   0.00000  Uiso   1.00
O407   O     0.78006   0.87330   0.10387   0.00000  Uiso   1.00
O408   O     0.00570   0.64539   0.78123   0.00000  Uiso   1.00
N409   N     0.78253   0.54180   0.24889   0.00000  Uiso   1.00
N410   N     0.80460   0.81463   0.22304   0.00000  Uiso   1.00
N411   N     0.96539   0.65223   0.99312   0.00000  Uiso   1.00
N412   N     0.77074   0.54209   0.95569   0.00000  Uiso   1.00
N413   N     0.79281   0.81492   0.92983   0.00000  Uiso   1.00
N414   N     0.95360   0.65252   0.69991   0.00000  Uiso   1.00
C415   C     0.85188   0.16951   0.68082   0.00000  Uiso   1.00
C416   C     0.82989   0.13438   0.62792   0.00000  Uiso   1.00
C417   C     0.81797   0.10468   0.74677   0.00000  Uiso   1.00
C418   C     0.79822   0.07515   0.67163   0.00000  Uiso   1.00
C419   C     0.76520   0.02058   0.61800   0.00000  Uiso   1.00
C420   C     0.83597   0.20957   0.62080   0.00000  Uiso   1.00
C421   C     0.82916   0.24310   0.73367   0.00000  Uiso   1.00
C422   C     0.81453   0.27686   0.65251   0.00000  Uiso   1.00
C423   C     0.79097   0.33905   0.58781   0.00000  Uiso   1.00
C424   C     0.88028   0.16481   0.55744   0.00000  Uiso   1.00
C425   C     0.91073   0.16071   0.61703   0.00000  Uiso   1.00
C426   C     0.93341   0.15679   0.48253   0.00000  Uiso   1.00
C427   C     0.97866   0.14948   0.31944   0.00000  Uiso   1.00
C428   C     0.83802   0.16985   0.33601   0.00000  Uiso   1.00
C429   C     0.82236   0.13457   0.44063   0.00000  Uiso   1.00
C430   C     0.80263   0.10506   0.36528   0.00000  Uiso   1.00
C431   C     0.79067   0.07533   0.48400   0.00000  Uiso   1.00
C432   C     0.82844   0.20976   0.43352   0.00000  Uiso   1.00
C433   C     0.81382   0.24348   0.35218   0.00000  Uiso   1.00
C434   C     0.80699   0.27705   0.46489   0.00000  Uiso   1.00
C435   C     0.87275   0.16499   0.37015   0.00000  Uiso   1.00
C436   C     0.89539   0.16108   0.23553   0.00000  Uiso   1.00
C437   C     0.92587   0.15698   0.29490   0.00000  Uiso   1.00
H438   H     0.85774   0.16936   0.82662   0.00000  Uiso   1.00
H439   H     0.82380   0.10455   0.89171   0.00000  Uiso   1.00
H440   H     0.83499   0.24295   0.87859   0.00000  Uiso   1.00
H441   H     0.91655   0.16057   0.76197   0.00000  Uiso   1.00
H442   H     0.78283   0.03279   0.88128   0.00000  Uiso   1.00
H443   H     0.80644   0.32461   0.85362   0.00000  Uiso   1.00
H444   H     0.97843   0.15089   0.60770   0.00000  Uiso   1.00
H445   H     0.83216   0.16999   0.19019   0.00000  Uiso   1.00
H446   H     0.79680   0.10521   0.22034   0.00000  Uiso   1.00
H447   H     0.80800   0.24361   0.20724   0.00000  Uiso   1.00
H448   H     0.88956   0.16123   0.09062   0.00000  Uiso   1.00
H449   H     0.76092   0.03333   0.33638   0.00000  Uiso   1.00
H450   H     0.78453   0.32515   0.30872   0.00000  Uiso   1.00
H451   H     0.95652   0.15143   0.06280   0.00000  Uiso   1.00
O452   O     0.74907   0.99044   0.64016   0.00000  Uiso   1.00
O453   O     0.78006   0.37330   0.60387   0.00000  Uiso   1.00
O454   O     0.00570   0.14539   0.28123   0.00000  Uiso   1.00
N455   N     0.78253   0.04180   0.74889   0.00000  Uiso   1.00
N456   N     0.80460   0.31463   0.72304   0.00000  Uiso   1.00
N457   N     0.96539   0.15223   0.49312   0.00000  Uiso   1.00
N458   N     0.77074   0.04209   0.45569   0.00000  Uiso   1.00
N459   N     0.79281   0.31492   0.42983   0.00000  Uiso   1.00
N460   N     0.95360   0.15252   0.19991   0.00000  Uiso   1.00
C461   C     0.35188   0.66951   0.68082   0.00000  Uiso   1.00
C462   C     0.32989   0.63438   0.62792   0.00000  Uiso   1.00
C463   C     0.31797   0.60468   0.74677   0.00000  Uiso   1.00
C464   C     0.29822   0.57515   0.67163   0.00000  Uiso   1.00
C465   C     0.26520   0.52058   0.61800   0.00000  Uiso   1.00
C466   C     0.33597   0.70957   0.62080   0.00000  Uiso   1.00
C467   C     0.32916   0.74310   0.73367   0.00000  Uiso   1.00
C468   C     0.31453   0.77686   0.65251   0.00000  Uiso   1.00
C469   C     0.29097   0.83905   0.58781   0.00000  Uiso   1.00
C470   C     0.38028   0.66481   0.55744   0.00000  Uiso   1.00
C471   C     0.41073   0.66071   0.61703   0.00000  Uiso   1.00
C472   C     0.43341   0.65679   0.48253   0.00000  Uiso   1.00
C473   C     0.47866   0.64948   0.31944   0.00000  Uiso   1.00
C474   C     0.33802   0.66985   0.33601   0.00000  Uiso   1.00
C475   C     0.32236   0.63457   0.44063   0.00000  Uiso   1.00
C476   C     0.30263   0.60506   0.36528   0.00000  Uiso   1.00
C477   C     0.29067   0.57533   0.48400   0.00000  Uiso   1.00
C478   C     0.32844   0.70976   0.43352   0.00000  Uiso   1.00
C479   C     0.31382   0.74348   0.35218   0.00000  Uiso   1.00
C480   C     0.30699   0.77705   0.46489   0.00000  Uiso   1.00
C481   C     0.37275   0.66499   0.37015   0.00000  Uiso   1.00
C482   C     0.39539   0.66108   0.23553   0.00000  Uiso   1.00
C483   C     0.42587   0.65698   0.29490   0.00000  Uiso   1.00
H484   H     0.35774   0.66936   0.82662   0.00000  Uiso   1.00
H485   H     0.32380   0.60455   0.89171   0.00000  Uiso   1.00
H486   H     0.33499   0.74295   0.87859   0.00000  Uiso   1.00
H487   H     0.41655   0.66057   0.76197   0.00000  Uiso   1.00
H488   H     0.28283   0.53279   0.88128   0.00000  Uiso   1.00
H489   H     0.30644   0.82461   0.85362   0.00000  Uiso   1.00
H490   H     0.47843   0.65089   0.60770   0.00000  Uiso   1.00
H491   H     0.33216   0.66999   0.19019   0.00000  Uiso   1.00
H492   H     0.29680   0.60521   0.22034   0.00000  Uiso   1.00
H493   H     0.30800   0.74361   0.20724   0.00000  Uiso   1.00
H494   H     0.38956   0.66123   0.09062   0.00000  Uiso   1.00
H495   H     0.26092   0.53333   0.33638   0.00000  Uiso   1.00
H496   H     0.28453   0.82515   0.30872   0.00000  Uiso   1.00
H497   H     0.45652   0.65143   0.06280   0.00000  Uiso   1.00
O498   O     0.24907   0.49044   0.64016   0.00000  Uiso   1.00
O499   O     0.28006   0.87330   0.60387   0.00000  Uiso   1.00
O500   O     0.50570   0.64539   0.28123   0.00000  Uiso   1.00
N501   N     0.28253   0.54180   0.74889   0.00000  Uiso   1.00
N502   N     0.30460   0.81463   0.72304   0.00000  Uiso   1.00
N503   N     0.46539   0.65223   0.49312   0.00000  Uiso   1.00
N504   N     0.27074   0.54209   0.45569   0.00000  Uiso   1.00
N505   N     0.29281   0.81492   0.42983   0.00000  Uiso   1.00
N506   N     0.45360   0.65252   0.19991   0.00000  Uiso   1.00
C507   C     0.35188   0.16951   0.18082   0.00000  Uiso   1.00
C508   C     0.32989   0.13438   0.12792   0.00000  Uiso   1.00
C509   C     0.31797   0.10468   0.24677   0.00000  Uiso   1.00
C510   C     0.29822   0.07515   0.17163   0.00000  Uiso   1.00
C511   C     0.26520   0.02058   0.11800   0.00000  Uiso   1.00
C512   C     0.33597   0.20957   0.12080   0.00000  Uiso   1.00
C513   C     0.32916   0.24310   0.23367   0.00000  Uiso   1.00
C514   C     0.31453   0.27686   0.15251   0.00000  Uiso   1.00
C515   C     0.29097   0.33905   0.08781   0.00000  Uiso   1.00
C516   C     0.38028   0.16481   0.05744   0.00000  Uiso   1.00
C517   C     0.41073   0.16071   0.11703   0.00000  Uiso   1.00
C518   C     0.43341   0.15679   0.98253   0.00000  Uiso   1.00
C519   C     0.47866   0.14948   0.81944   0.00000  Uiso   1.00
C520   C     0.33802   0.16985   0.83601   0.00000  Uiso   1.00
C521   C     0.32236   0.13457   0.94063   0.00000  Uiso   1.00
C522   C     0.30263   0.10506   0.86528   0.00000  Uiso   1.00
C523   C     0.29067   0.07533   0.98400   0.00000  Uiso   1.00
C524   C     0.32844   0.20976   0.93352   0.00000  Uiso   1.00
C525   C     0.31382   0.24348   0.85218   0.00000  Uiso   1.00
C526   C     0.30699   0.27705   0.96489   0.00000  Uiso   1.00
C527   C     0.37275   0.16499   0.87015   0.00000  Uiso   1.00
C528   C     0.39539   0.16108   0.73553   0.00000  Uiso   1.00
C529   C     0.42587   0.15698   0.79490   0.00000  Uiso   1.00
H530   H     0.35774   0.16936   0.32662   0.00000  Uiso   1.00
H531   H     0.32380   0.10455   0.39171   0.00000  Uiso   1.00
H532   H     0.33499   0.24295   0.37859   0.00000  Uiso   1.00
H533   H     0.41655   0.16057   0.26197   0.00000  Uiso   1.00
H534   H     0.28283   0.03279   0.38128   0.00000  Uiso   1.00
H535   H     0.30644   0.32461   0.35362   0.00000  Uiso   1.00
H536   H     0.47843   0.15089   0.10770   0.00000  Uiso   1.00
H537   H     0.33216   0.16999   0.69019   0.00000  Uiso   1.00
H538   H     0.29680   0.10521   0.72034   0.00000  Uiso   1.00
H539   H     0.30800   0.24361   0.70724   0.00000  Uiso   1.00
H540   H     0.38956   0.16123   0.59062   0.00000  Uiso   1.00
H541   H     0.26092   0.03333   0.83638   0.00000  Uiso   1.00
H542   H     0.28453   0.32515   0.80872   0.00000  Uiso   1.00
H543   H     0.45652   0.15143   0.56280   0.00000  Uiso   1.00
O544   O     0.24907   0.99044   0.14016   0.00000  Uiso   1.00
O545   O     0.28006   0.37330   0.10387   0.00000  Uiso   1.00
O546   O     0.50570   0.14539   0.78123   0.00000  Uiso   1.00
N547   N     0.28253   0.04180   0.24889   0.00000  Uiso   1.00
N548   N     0.30460   0.31463   0.22304   0.00000  Uiso   1.00
N549   N     0.46539   0.15223   0.99312   0.00000  Uiso   1.00
N550   N     0.27074   0.04209   0.95569   0.00000  Uiso   1.00
N551   N     0.29281   0.31492   0.92983   0.00000  Uiso   1.00
N552   N     0.45360   0.15252   0.69991   0.00000  Uiso   1.00
C553   C     0.64812   0.83049   0.18082   0.00000  Uiso   1.00
C554   C     0.67011   0.86562   0.12792   0.00000  Uiso   1.00
C555   C     0.68203   0.89532   0.24677   0.00000  Uiso   1.00
C556   C     0.70178   0.92485   0.17163   0.00000  Uiso   1.00
C557   C     0.73480   0.97942   0.11800   0.00000  Uiso   1.00
C558   C     0.66403   0.79043   0.12080   0.00000  Uiso   1.00
C559   C     0.67084   0.75690   0.23367   0.00000  Uiso   1.00
C560   C     0.68547   0.72314   0.15251   0.00000  Uiso   1.00
C561   C     0.70903   0.66095   0.08781   0.00000  Uiso   1.00
C562   C     0.61972   0.83519   0.05744   0.00000  Uiso   1.00
C563   C     0.58927   0.83929   0.11703   0.00000  Uiso   1.00
C564   C     0.56659   0.84321   0.98253   0.00000  Uiso   1.00
C565   C     0.52134   0.85052   0.81944   0.00000  Uiso   1.00
C566   C     0.66198   0.83015   0.83601   0.00000  Uiso   1.00
C567   C     0.67764   0.86543   0.94063   0.00000  Uiso   1.00
C568   C     0.69737   0.89494   0.86528   0.00000  Uiso   1.00
C569   C     0.70933   0.92467   0.98400   0.00000  Uiso   1.00
C570   C     0.67156   0.79024   0.93352   0.00000  Uiso   1.00
C571   C     0.68618   0.75652   0.85218   0.00000  Uiso   1.00
C572   C     0.69301   0.72295   0.96489   0.00000  Uiso   1.00
C573   C     0.62725   0.83501   0.87015   0.00000  Uiso   1.00
C574   C     0.60461   0.83892   0.73553   0.00000  Uiso   1.00
C575   C     0.57413   0.84302   0.79490   0.00000  Uiso   1.00
H576   H     0.64226   0.83064   0.32662   0.00000  Uiso   1.00
H577   H     0.67620   0.89545   0.39171   0.00000  Uiso   1.00
H578   H     0.66501   0.75705   0.37859   0.00000  Uiso   1.00
H579   H     0.58345   0.83943   0.26197   0.00000  Uiso   1.00
H580   H     0.71717   0.96721   0.38128   0.00000  Uiso   1.00
H581   H     0.69356   0.67539   0.35362   0.00000  Uiso   1.00
H582   H     0.52157   0.84911   0.10770   0.00000  Uiso   1.00
H583   H     0.66784   0.83001   0.69019   0.00000  Uiso   1.00
H584   H     0.70320   0.89479   0.72034   0.00000  Uiso   1.00
H585   H     0.69200   0.75639   0.70724   0.00000  Uiso   1.00
H586   H     0.61044   0.83877   0.59062   0.00000  Uiso   1.00
H587   H     0.73908   0.96667   0.83638   0.00000  Uiso   1.00
H588   H     0.71547   0.67485   0.80872   0.00000  Uiso   1.00
H589   H     0.54348   0.84857   0.56280   0.00000  Uiso   1.00
O590   O     0.75093   0.00956   0.14016   0.00000  Uiso   1.00
O591   O     0.71994   0.62670   0.10387   0.00000  Uiso   1.00
O592   O     0.49430   0.85461   0.78123   0.00000  Uiso   1.00
N593   N     0.71747   0.95820   0.24889   0.00000  Uiso   1.00
N594   N     0.69540   0.68537   0.22304   0.00000  Uiso   1.00
N595   N     0.53461   0.84777   0.99312   0.00000  Uiso   1.00
N596   N     0.72926   0.95791   0.95569   0.00000  Uiso   1.00
N597   N     0.70719   0.68508   0.92983   0.00000  Uiso   1.00
N598   N     0.54640   0.84748   0.69991   0.00000  Uiso   1.00
C599   C     0.64812   0.33049   0.68082   0.00000  Uiso   1.00
C600   C     0.67011   0.36562   0.62792   0.00000  Uiso   1.00
C601   C     0.68203   0.39532   0.74677   0.00000  Uiso   1.00
C602   C     0.70178   0.42485   0.67163   0.00000  Uiso   1.00
C603   C     0.73480   0.47942   0.61800   0.00000  Uiso   1.00
C604   C     0.66403   0.29043   0.62080   0.00000  Uiso   1.00
C605   C     0.67084   0.25690   0.73367   0.00000  Uiso   1.00
C606   C     0.68547   0.22314   0.65251   0.00000  Uiso   1.00
C607   C     0.70903   0.16095   0.58781   0.00000  Uiso   1.00
C608   C     0.61972   0.33519   0.55744   0.00000  Uiso   1.00
C609   C     0.58927   0.33929   0.61703   0.00000  Uiso   1.00
C610   C     0.56659   0.34321   0.48253   0.00000  Uiso   1.00
C611   C     0.52134   0.35052   0.31944   0.00000  Uiso   1.00
C612   C     0.66198   0.33015   0.33601   0.00000  Uiso   1.00
C613   C     0.67764   0.36543   0.44063   0.00000  Uiso   1.00
C614   C     0.69737   0.39494   0.36528   0.00000  Uiso   1.00
C615   C     0.70933   0.42467   0.48400   0.00000  Uiso   1.00
C616   C     0.67156   0.29024   0.43352   0.00000  Uiso   1.00
C617   C     0.68618   0.25652   0.35218   0.00000  Uiso   1.00
C618   C     0.69301   0.22295   0.46489   0.00000  Uiso   1.00
C619   C     0.62725   0.33501   0.37015   0.00000  Uiso   1.00
C620   C     0.60461   0.33892   0.23553   0.00000  Uiso   1.00
C621   C     0.57413   0.34302   0.29490   0.00000  Uiso   1.00
H622   H     0.64226   0.33064   0.82662   0.00000  Uiso   1.00
H623   H     0.67620   0.39545   0.89171   0.00000  Uiso   1.00
H624   H     0.66501   0.25705   0.87859   0.00000  Uiso   1.00
H625   H     0.58345   0.33943   0.76197   0.00000  Uiso   1.00
H626   H     0.71717   0.46721   0.88128   0.00000  Uiso   1.00
H627   H     0.69356   0.17539   0.85362   0.00000  Uiso   1.00
H628   H     0.52157   0.34911   0.60770   0.00000  Uiso   1.00
H629   H     0.66784   0.33001   0.19019   0.00000  Uiso   1.00
H630   H     0.70320   0.39479   0.22034   0.00000  Uiso   1.00
H631   H     0.69200   0.25639   0.20724   0.00000  Uiso   1.00
H632   H     0.61044   0.33877   0.09062   0.00000  Uiso   1.00
H633   H     0.73908   0.46667   0.33638   0.00000  Uiso   1.00
H634   H     0.71547   0.17485   0.30872   0.00000  Uiso   1.00
H635   H     0.54348   0.34857   0.06280   0.00000  Uiso   1.00
O636   O     0.75093   0.50956   0.64016   0.00000  Uiso   1.00
O637   O     0.71994   0.12670   0.60387   0.00000  Uiso   1.00
O638   O     0.49430   0.35461   0.28123   0.00000  Uiso   1.00
N639   N     0.71747   0.45820   0.74889   0.00000  Uiso   1.00
N640   N     0.69540   0.18537   0.72304   0.00000  Uiso   1.00
N641   N     0.53461   0.34777   0.49312   0.00000  Uiso   1.00
N642   N     0.72926   0.45791   0.45569   0.00000  Uiso   1.00
N643   N     0.70719   0.18508   0.42983   0.00000  Uiso   1.00
N644   N     0.54640   0.34748   0.19991   0.00000  Uiso   1.00
C645   C     0.14812   0.83049   0.68082   0.00000  Uiso   1.00
C646   C     0.17011   0.86562   0.62792   0.00000  Uiso   1.00
C647   C     0.18203   0.89532   0.74677   0.00000  Uiso   1.00
C648   C     0.20178   0.92485   0.67163   0.00000  Uiso   1.00
C649   C     0.23480   0.97942   0.61800   0.00000  Uiso   1.00
C650   C     0.16403   0.79043   0.62080   0.00000  Uiso   1.00
C651   C     0.17084   0.75690   0.73367   0.00000  Uiso   1.00
C652   C     0.18547   0.72314   0.65251   0.00000  Uiso   1.00
C653   C     0.20903   0.66095   0.58781   0.00000  Uiso   1.00
C654   C     0.11972   0.83519   0.55744   0.00000  Uiso   1.00
C655   C     0.08927   0.83929   0.61703   0.00000  Uiso   1.00
C656   C     0.06659   0.84321   0.48253   0.00000  Uiso   1.00
C657   C     0.02134   0.85052   0.31944   0.00000  Uiso   1.00
C658   C     0.16198   0.83015   0.33601   0.00000  Uiso   1.00
C659   C     0.17764   0.86543   0.44063   0.00000  Uiso   1.00
C660   C     0.19737   0.89494   0.36528   0.00000  Uiso   1.00
C661   C     0.20933   0.92467   0.48400   0.00000  Uiso   1.00
C662   C     0.17156   0.79024   0.43352   0.00000  Uiso   1.00
C663   C     0.18618   0.75652   0.35218   0.00000  Uiso   1.00
C664   C     0.19301   0.72295   0.46489   0.00000  Uiso   1.00
C665   C     0.12725   0.83501   0.37015   0.00000  Uiso   1.00
C666   C     0.10461   0.83892   0.23553   0.00000  Uiso   1.00
C667   C     0.07413   0.84302   0.29490   0.00000  Uiso   1.00
H668   H     0.14226   0.83064   0.82662   0.00000  Uiso   1.00
H669   H     0.17620   0.89545   0.89171   0.00000  Uiso   1.00
H670   H     0.16501   0.75705   0.87859   0.00000  Uiso   1.00
H671   H     0.08345   0.83943   0.76197   0.00000  Uiso   1.00
H672   H     0.21717   0.96721   0.88128   0.00000  Uiso   1.00
H673   H     0.19356   0.67539   0.85362   0.00000  Uiso   1.00
H674   H     0.02157   0.84911   0.60770   0.00000  Uiso   1.00
H675   H     0.16784   0.83001   0.19019   0.00000  Uiso   1.00
H676   H     0.20320   0.89479   0.22034   0.00000  Uiso   1.00
H677   H     0.19200   0.75639   0.20724   0.00000  Uiso   1.00
H678   H     0.11044   0.83877   0.09062   0.00000  Uiso   1.00
H679   H     0.23908   0.96667   0.33638   0.00000  Uiso   1.00
H680   H     0.21547   0.67485   0.30872   0.00000  Uiso   1.00
H681   H     0.04348   0.84857   0.06280   0.00000  Uiso   1.00
O682   O     0.25093   0.00956   0.64016   0.00000  Uiso   1.00
O683   O     0.21994   0.62670   0.60387   0.00000  Uiso   1.00
O684   O     0.99430   0.85461   0.28123   0.00000  Uiso   1.00
N685   N     0.21747   0.95820   0.74889   0.00000  Uiso   1.00
N686   N     0.19540   0.68537   0.72304   0.00000  Uiso   1.00
N687   N     0.03461   0.84777   0.49312   0.00000  Uiso   1.00
N688   N     0.22926   0.95791   0.45569   0.00000  Uiso   1.00
N689   N     0.20719   0.68508   0.42983   0.00000  Uiso   1.00
N690   N     0.04640   0.84748   0.19991   0.00000  Uiso   1.00
C691   C     0.14812   0.33049   0.18082   0.00000  Uiso   1.00
C692   C     0.17011   0.36562   0.12792   0.00000  Uiso   1.00
C693   C     0.18203   0.39532   0.24677   0.00000  Uiso   1.00
C694   C     0.20178   0.42485   0.17163   0.00000  Uiso   1.00
C695   C     0.23480   0.47942   0.11800   0.00000  Uiso   1.00
C696   C     0.16403   0.29043   0.12080   0.00000  Uiso   1.00
C697   C     0.17084   0.25690   0.23367   0.00000  Uiso   1.00
C698   C     0.18547   0.22314   0.15251   0.00000  Uiso   1.00
C699   C     0.20903   0.16095   0.08781   0.00000  Uiso   1.00
C700   C     0.11972   0.33519   0.05744   0.00000  Uiso   1.00
C701   C     0.08927   0.33929   0.11703   0.00000  Uiso   1.00
C702   C     0.06659   0.34321   0.98253   0.00000  Uiso   1.00
C703   C     0.02134   0.35052   0.81944   0.00000  Uiso   1.00
C704   C     0.16198   0.33015   0.83601   0.00000  Uiso   1.00
C705   C     0.17764   0.36543   0.94063   0.00000  Uiso   1.00
C706   C     0.19737   0.39494   0.86528   0.00000  Uiso   1.00
C707   C     0.20933   0.42467   0.98400   0.00000  Uiso   1.00
C708   C     0.17156   0.29024   0.93352   0.00000  Uiso   1.00
C709   C     0.18618   0.25652   0.85218   0.00000  Uiso   1.00
C710   C     0.19301   0.22295   0.96489   0.00000  Uiso   1.00
C711   C     0.12725   0.33501   0.87015   0.00000  Uiso   1.00
C712   C     0.10461   0.33892   0.73553   0.00000  Uiso   1.00
C713   C     0.07413   0.34302   0.79490   0.00000  Uiso   1.00
H714   H     0.14226   0.33064   0.32662   0.00000  Uiso   1.00
H715   H     0.17620   0.39545   0.39171   0.00000  Uiso   1.00
H716   H     0.16501   0.25705   0.37859   0.00000  Uiso   1.00
H717   H     0.08345   0.33943   0.26197   0.00000  Uiso   1.00
H718   H     0.21717   0.46721   0.38128   0.00000  Uiso   1.00
H719   H     0.19356   0.17539   0.35362   0.00000  Uiso   1.00
H720   H     0.02157   0.34911   0.10770   0.00000  Uiso   1.00
H721   H     0.16784   0.33001   0.69019   0.00000  Uiso   1.00
H722   H     0.20320   0.39479   0.72034   0.00000  Uiso   1.00
H723   H     0.19200   0.25639   0.70724   0.00000  Uiso   1.00
H724   H     0.11044   0.33877   0.59062   0.00000  Uiso   1.00
H725   H     0.23908   0.46667   0.83638   0.00000  Uiso   1.00
H726   H     0.21547   0.17485   0.80872   0.00000  Uiso   1.00
H727   H     0.04348   0.34857   0.56280   0.00000  Uiso   1.00
O728   O     0.25093   0.50956   0.14016   0.00000  Uiso   1.00
O729   O     0.21994   0.12670   0.10387   0.00000  Uiso   1.00
O730   O     0.99430   0.35461   0.78123   0.00000  Uiso   1.00
N731   N     0.21747   0.45820   0.24889   0.00000  Uiso   1.00
N732   N     0.19540   0.18537   0.22304   0.00000  Uiso   1.00
N733   N     0.03461   0.34777   0.99312   0.00000  Uiso   1.00
N734   N     0.22926   0.45791   0.95569   0.00000  Uiso   1.00
N735   N     0.20719   0.18508   0.92983   0.00000  Uiso   1.00
N736   N     0.04640   0.34748   0.69991   0.00000  Uiso   1.00
