data_job_06825
_audit_creation_date              2018-12-19
_audit_creation_method            'Materials Studio'
_symmetry_space_group_name_H-M    'P1'
_symmetry_Int_Tables_number       1
_symmetry_cell_setting            triclinic
loop_
_symmetry_equiv_pos_as_xyz
  x,y,z
_cell_length_a                    25.9372
_cell_length_b                    25.9372
_cell_length_c                    41.3475
_cell_angle_alpha                 90.0000
_cell_angle_beta                  90.0000
_cell_angle_gamma                 120.0000
loop_
_atom_site_label
_atom_site_type_symbol
_atom_site_fract_x
_atom_site_fract_y
_atom_site_fract_z
_atom_site_U_iso_or_equiv
_atom_site_adp_type
_atom_site_occupancy
C1     C     0.92850   0.88726   0.89985   0.00000  Uiso   1.00
C2     C     0.89694   0.88376   0.86812   0.00000  Uiso   1.00
C3     C     0.91030   0.93120   0.84762   0.00000  Uiso   1.00
C4     C     0.87624   0.91882   0.81975   0.00000  Uiso   1.00
C5     C     0.83418   0.92218   0.77157   0.00000  Uiso   1.00
C6     C     0.21349   0.52879   0.59240   0.00000  Uiso   1.00
C7     C     0.21273   0.55803   0.62035   0.00000  Uiso   1.00
C8     C     0.16455   0.52742   0.64098   0.00000  Uiso   1.00
C9     C     0.42978   0.16384   0.34892   0.00000  Uiso   1.00
C10    C     0.28401   0.50967   0.56342   0.00000  Uiso   1.00
C11    C     0.34256   0.52284   0.56701   0.00000  Uiso   1.00
C12    C     0.35376   0.47613   0.56325   0.00000  Uiso   1.00
C13    C     0.39516   0.41620   0.55953   0.00000  Uiso   1.00
C14    C     0.17761   0.44756   0.55346   0.00000  Uiso   1.00
C15    C     0.18452   0.49266   0.52769   0.00000  Uiso   1.00
C16    C     0.81711   0.81353   0.83318   0.00000  Uiso   1.00
C17    C     0.83041   0.86094   0.81265   0.00000  Uiso   1.00
C18    C     0.16774   0.47102   0.58531   0.00000  Uiso   1.00
C19    C     0.11955   0.44035   0.60590   0.00000  Uiso   1.00
C20    C     0.11872   0.46955   0.63388   0.00000  Uiso   1.00
C21    C     0.23827   0.45190   0.55633   0.00000  Uiso   1.00
C22    C     0.24937   0.40516   0.55256   0.00000  Uiso   1.00
C23    C     0.30792   0.41825   0.55615   0.00000  Uiso   1.00
H24    H     0.96411   0.93223   0.90537   0.00000  Uiso   1.00
H25    H     0.94570   0.97591   0.85312   0.00000  Uiso   1.00
H26    H     0.91481   0.93607   0.95916   0.00000  Uiso   1.00
H27    H     0.04462   0.90088   0.90583   0.00000  Uiso   1.00
H28    H     0.90509   0.99885   0.79207   0.00000  Uiso   1.00
H29    H     0.50664   0.24818   0.34901   0.00000  Uiso   1.00
H30    H     0.78037   0.17398   0.23654   0.00000  Uiso   1.00
H31    H     0.14199   0.40258   0.54794   0.00000  Uiso   1.00
H32    H     0.11504   0.43548   0.49436   0.00000  Uiso   1.00
H33    H     0.08415   0.39565   0.60041   0.00000  Uiso   1.00
H34    H     0.21396   0.36046   0.54708   0.00000  Uiso   1.00
H35    H     0.77199   0.83077   0.77144   0.00000  Uiso   1.00
H36    H     0.04020   0.41343   0.66171   0.00000  Uiso   1.00
H37    H     0.31393   0.33923   0.54925   0.00000  Uiso   1.00
O38    O     0.82361   0.94000   0.74695   0.00000  Uiso   1.00
O39    O     0.40485   0.16312   0.37365   0.00000  Uiso   1.00
O40    O     0.76397   0.06577   0.22610   0.00000  Uiso   1.00
N41    N     0.87747   0.95478   0.79456   0.00000  Uiso   1.00
N42    N     0.48325   0.20957   0.33695   0.00000  Uiso   1.00
N43    N     0.73916   0.14020   0.23182   0.00000  Uiso   1.00
N44    N     0.80585   0.86433   0.78346   0.00000  Uiso   1.00
N45    N     0.07830   0.45246   0.65918   0.00000  Uiso   1.00
N46    N     0.33420   0.38309   0.55405   0.00000  Uiso   1.00
C47    C     0.02957   0.89356   0.37817   0.00000  Uiso   1.00
C48    C     0.05395   0.88543   0.34620   0.00000  Uiso   1.00
C49    C     0.08079   0.92828   0.32226   0.00000  Uiso   1.00
C50    C     0.10013   0.91212   0.29479   0.00000  Uiso   1.00
C51    C     0.80578   0.24150   0.57900   0.00000  Uiso   1.00
C52    C     0.06114   0.87889   0.40464   0.00000  Uiso   1.00
C53    C     0.09402   0.91624   0.42985   0.00000  Uiso   1.00
C54    C     0.11941   0.89457   0.45159   0.00000  Uiso   1.00
C55    C     0.16952   0.88044   0.49322   0.00000  Uiso   1.00
C56    C     0.96446   0.84448   0.37941   0.00000  Uiso   1.00
C57    C     0.91606   0.85291   0.38341   0.00000  Uiso   1.00
C58    C     0.86005   0.80227   0.38391   0.00000  Uiso   1.00
C59    C     0.76006   0.73472   0.38635   0.00000  Uiso   1.00
C60    C     0.01619   0.78865   0.37195   0.00000  Uiso   1.00
C61    C     0.04668   0.82844   0.34282   0.00000  Uiso   1.00
C62    C     0.06599   0.81220   0.31538   0.00000  Uiso   1.00
C63    C     0.75952   0.18836   0.62474   0.00000  Uiso   1.00
C64    C     0.05388   0.82190   0.40127   0.00000  Uiso   1.00
C65    C     0.07922   0.80016   0.42297   0.00000  Uiso   1.00
C66    C     0.11213   0.83748   0.44821   0.00000  Uiso   1.00
C67    C     0.95720   0.78749   0.37603   0.00000  Uiso   1.00
C68    C     0.90125   0.73683   0.37653   0.00000  Uiso   1.00
C69    C     0.85277   0.74518   0.38052   0.00000  Uiso   1.00
H70    H     0.03523   0.93793   0.38080   0.00000  Uiso   1.00
H71    H     0.08641   0.97238   0.32488   0.00000  Uiso   1.00
H72    H     0.09963   0.96034   0.43246   0.00000  Uiso   1.00
H73    H     0.92170   0.89702   0.38602   0.00000  Uiso   1.00
H74    H     0.13997   0.98545   0.26141   0.00000  Uiso   1.00
H75    H     0.16783   0.96005   0.48824   0.00000  Uiso   1.00
H76    H     0.79261   0.82652   0.39032   0.00000  Uiso   1.00
H77    H     0.01054   0.74428   0.36932   0.00000  Uiso   1.00
H78    H     0.72703   0.10143   0.64611   0.00000  Uiso   1.00
H79    H     0.07358   0.75606   0.42035   0.00000  Uiso   1.00
H80    H     0.89565   0.69274   0.37391   0.00000  Uiso   1.00
H81    H     0.78549   0.15299   0.58491   0.00000  Uiso   1.00
H82    H     0.14669   0.79425   0.47842   0.00000  Uiso   1.00
H83    H     0.77147   0.66072   0.38049   0.00000  Uiso   1.00
O84    O     0.82930   0.25506   0.55284   0.00000  Uiso   1.00
O85    O     0.19918   0.88839   0.51711   0.00000  Uiso   1.00
O86    O     0.70691   0.71321   0.38863   0.00000  Uiso   1.00
N87    N     0.12814   0.94316   0.26685   0.00000  Uiso   1.00
N88    N     0.15420   0.91941   0.47893   0.00000  Uiso   1.00
N89    N     0.80341   0.79457   0.38738   0.00000  Uiso   1.00
N90    N     0.78343   0.18728   0.59490   0.00000  Uiso   1.00
N91    N     0.14282   0.83019   0.47364   0.00000  Uiso   1.00
N92    N     0.79203   0.70536   0.38210   0.00000  Uiso   1.00
C93    C     0.59517   0.22059   0.23318   0.00000  Uiso   1.00
C94    C     0.56361   0.21709   0.20145   0.00000  Uiso   1.00
C95    C     0.57696   0.26454   0.18096   0.00000  Uiso   1.00
C96    C     0.54291   0.25215   0.15308   0.00000  Uiso   1.00
C97    C     0.50084   0.25552   0.10490   0.00000  Uiso   1.00
C98    C     0.88015   0.86212   0.92573   0.00000  Uiso   1.00
C99    C     0.87940   0.89136   0.95368   0.00000  Uiso   1.00
C100   C     0.83122   0.86075   0.97431   0.00000  Uiso   1.00
C101   C     0.09644   0.49717   0.68226   0.00000  Uiso   1.00
C102   C     0.95068   0.84300   0.89675   0.00000  Uiso   1.00
C103   C     0.00923   0.85617   0.90034   0.00000  Uiso   1.00
C104   C     0.02042   0.80946   0.89658   0.00000  Uiso   1.00
C105   C     0.06182   0.74953   0.89286   0.00000  Uiso   1.00
C106   C     0.84427   0.78090   0.88679   0.00000  Uiso   1.00
C107   C     0.85119   0.82599   0.86103   0.00000  Uiso   1.00
C108   C     0.48377   0.14686   0.16651   0.00000  Uiso   1.00
C109   C     0.49708   0.19428   0.14598   0.00000  Uiso   1.00
C110   C     0.83440   0.80435   0.91864   0.00000  Uiso   1.00
C111   C     0.78621   0.77369   0.93924   0.00000  Uiso   1.00
C112   C     0.78538   0.80288   0.96721   0.00000  Uiso   1.00
C113   C     0.90493   0.78523   0.88966   0.00000  Uiso   1.00
C114   C     0.91604   0.73849   0.88590   0.00000  Uiso   1.00
C115   C     0.97459   0.75159   0.88948   0.00000  Uiso   1.00
H116   H     0.63078   0.26557   0.23870   0.00000  Uiso   1.00
H117   H     0.61237   0.30924   0.18645   0.00000  Uiso   1.00
H118   H     0.58148   0.26940   0.29250   0.00000  Uiso   1.00
H119   H     0.71128   0.23421   0.23916   0.00000  Uiso   1.00
H120   H     0.57176   0.33218   0.12540   0.00000  Uiso   1.00
H121   H     0.17331   0.58151   0.68234   0.00000  Uiso   1.00
H122   H     0.44703   0.50731   0.56988   0.00000  Uiso   1.00
H123   H     0.80865   0.73592   0.88127   0.00000  Uiso   1.00
H124   H     0.78171   0.76882   0.82770   0.00000  Uiso   1.00
H125   H     0.75082   0.72898   0.93374   0.00000  Uiso   1.00
H126   H     0.88062   0.69379   0.88041   0.00000  Uiso   1.00
H127   H     0.43866   0.16410   0.10477   0.00000  Uiso   1.00
H128   H     0.70687   0.74676   0.99504   0.00000  Uiso   1.00
H129   H     0.98059   0.67256   0.88258   0.00000  Uiso   1.00
O130   O     0.49027   0.27333   0.08028   0.00000  Uiso   1.00
O131   O     0.07152   0.49645   0.70698   0.00000  Uiso   1.00
O132   O     0.43063   0.39910   0.55943   0.00000  Uiso   1.00
N133   N     0.54414   0.28811   0.12790   0.00000  Uiso   1.00
N134   N     0.14992   0.54291   0.67029   0.00000  Uiso   1.00
N135   N     0.40583   0.47353   0.56515   0.00000  Uiso   1.00
N136   N     0.47252   0.19767   0.11679   0.00000  Uiso   1.00
N137   N     0.74496   0.78580   0.99252   0.00000  Uiso   1.00
N138   N     0.00087   0.71642   0.88738   0.00000  Uiso   1.00
C139   C     0.69624   0.22690   0.71150   0.00000  Uiso   1.00
C140   C     0.72062   0.21876   0.67953   0.00000  Uiso   1.00
C141   C     0.74746   0.26162   0.65559   0.00000  Uiso   1.00
C142   C     0.76680   0.24545   0.62813   0.00000  Uiso   1.00
C143   C     0.47245   0.57483   0.91234   0.00000  Uiso   1.00
C144   C     0.72781   0.21222   0.73798   0.00000  Uiso   1.00
C145   C     0.76069   0.24958   0.76318   0.00000  Uiso   1.00
C146   C     0.78608   0.22790   0.78492   0.00000  Uiso   1.00
C147   C     0.83619   0.21377   0.82655   0.00000  Uiso   1.00
C148   C     0.63113   0.17782   0.71274   0.00000  Uiso   1.00
C149   C     0.58272   0.18624   0.71674   0.00000  Uiso   1.00
C150   C     0.52672   0.13560   0.71724   0.00000  Uiso   1.00
C151   C     0.42672   0.06806   0.71969   0.00000  Uiso   1.00
C152   C     0.68286   0.12198   0.70529   0.00000  Uiso   1.00
C153   C     0.71335   0.16177   0.67615   0.00000  Uiso   1.00
C154   C     0.73266   0.14554   0.64872   0.00000  Uiso   1.00
C155   C     0.42619   0.52170   0.95808   0.00000  Uiso   1.00
C156   C     0.72054   0.15523   0.73460   0.00000  Uiso   1.00
C157   C     0.74589   0.13350   0.75631   0.00000  Uiso   1.00
C158   C     0.77880   0.17081   0.78154   0.00000  Uiso   1.00
C159   C     0.62386   0.12083   0.70936   0.00000  Uiso   1.00
C160   C     0.56792   0.07016   0.70986   0.00000  Uiso   1.00
C161   C     0.51944   0.07851   0.71386   0.00000  Uiso   1.00
H162   H     0.70190   0.27126   0.71413   0.00000  Uiso   1.00
H163   H     0.75308   0.30572   0.65822   0.00000  Uiso   1.00
H164   H     0.76630   0.29367   0.76579   0.00000  Uiso   1.00
H165   H     0.58836   0.23035   0.71935   0.00000  Uiso   1.00
H166   H     0.80663   0.31879   0.59474   0.00000  Uiso   1.00
H167   H     0.83450   0.29338   0.82158   0.00000  Uiso   1.00
H168   H     0.45928   0.15986   0.72365   0.00000  Uiso   1.00
H169   H     0.67720   0.07761   0.70266   0.00000  Uiso   1.00
H170   H     0.39369   0.43477   0.97944   0.00000  Uiso   1.00
H171   H     0.74025   0.08939   0.75369   0.00000  Uiso   1.00
H172   H     0.56231   0.02607   0.70725   0.00000  Uiso   1.00
H173   H     0.45216   0.48632   0.91825   0.00000  Uiso   1.00
H174   H     0.81335   0.12758   0.81175   0.00000  Uiso   1.00
H175   H     0.43814   0.99405   0.71382   0.00000  Uiso   1.00
O176   O     0.49597   0.58839   0.88617   0.00000  Uiso   1.00
O177   O     0.86584   0.22173   0.85044   0.00000  Uiso   1.00
O178   O     0.37358   0.04654   0.72197   0.00000  Uiso   1.00
N179   N     0.79481   0.27649   0.60019   0.00000  Uiso   1.00
N180   N     0.82087   0.25274   0.81226   0.00000  Uiso   1.00
N181   N     0.47007   0.12791   0.72072   0.00000  Uiso   1.00
N182   N     0.45010   0.52061   0.92823   0.00000  Uiso   1.00
N183   N     0.80949   0.16353   0.80697   0.00000  Uiso   1.00
N184   N     0.45870   0.03869   0.71543   0.00000  Uiso   1.00
C185   C     0.26183   0.55392   0.56651   0.00000  Uiso   1.00
C186   C     0.23027   0.55043   0.53478   0.00000  Uiso   1.00
C187   C     0.24363   0.59787   0.51429   0.00000  Uiso   1.00
C188   C     0.20957   0.58548   0.48642   0.00000  Uiso   1.00
C189   C     0.16751   0.58885   0.43823   0.00000  Uiso   1.00
C190   C     0.54682   0.19545   0.25906   0.00000  Uiso   1.00
C191   C     0.54607   0.22470   0.28702   0.00000  Uiso   1.00
C192   C     0.49788   0.19409   0.30765   0.00000  Uiso   1.00
C193   C     0.76311   0.83050   0.01559   0.00000  Uiso   1.00
C194   C     0.61735   0.17634   0.23008   0.00000  Uiso   1.00
C195   C     0.67589   0.18950   0.23368   0.00000  Uiso   1.00
C196   C     0.68709   0.14280   0.22991   0.00000  Uiso   1.00
C197   C     0.72849   0.08287   0.22619   0.00000  Uiso   1.00
C198   C     0.51094   0.11423   0.22013   0.00000  Uiso   1.00
C199   C     0.51786   0.15932   0.19436   0.00000  Uiso   1.00
C200   C     0.15044   0.48019   0.49985   0.00000  Uiso   1.00
C201   C     0.16374   0.52761   0.47931   0.00000  Uiso   1.00
C202   C     0.50107   0.13768   0.25197   0.00000  Uiso   1.00
C203   C     0.45288   0.10702   0.27257   0.00000  Uiso   1.00
C204   C     0.45205   0.13621   0.30054   0.00000  Uiso   1.00
C205   C     0.57160   0.11857   0.22299   0.00000  Uiso   1.00
C206   C     0.58270   0.07183   0.21923   0.00000  Uiso   1.00
C207   C     0.64126   0.08492   0.22281   0.00000  Uiso   1.00
H208   H     0.29745   0.59890   0.57204   0.00000  Uiso   1.00
H209   H     0.27903   0.64257   0.51979   0.00000  Uiso   1.00
H210   H     0.24815   0.60273   0.62583   0.00000  Uiso   1.00
H211   H     0.37795   0.56755   0.57250   0.00000  Uiso   1.00
H212   H     0.23843   0.66552   0.45874   0.00000  Uiso   1.00
H213   H     0.83998   0.91484   0.01567   0.00000  Uiso   1.00
H214   H     0.11370   0.84064   0.90321   0.00000  Uiso   1.00
H215   H     0.47532   0.06925   0.21461   0.00000  Uiso   1.00
H216   H     0.44837   0.10215   0.16103   0.00000  Uiso   1.00
H217   H     0.41749   0.06231   0.26708   0.00000  Uiso   1.00
H218   H     0.54729   0.02713   0.21374   0.00000  Uiso   1.00
H219   H     0.10532   0.49744   0.43810   0.00000  Uiso   1.00
H220   H     0.37354   0.08010   0.32838   0.00000  Uiso   1.00
H221   H     0.64726   0.00590   0.21591   0.00000  Uiso   1.00
O222   O     0.15694   0.60667   0.41362   0.00000  Uiso   1.00
O223   O     0.73818   0.82978   0.04032   0.00000  Uiso   1.00
O224   O     0.09730   0.73244   0.89276   0.00000  Uiso   1.00
N225   N     0.21081   0.62144   0.46123   0.00000  Uiso   1.00
N226   N     0.81659   0.87624   0.00362   0.00000  Uiso   1.00
N227   N     0.07249   0.80687   0.89848   0.00000  Uiso   1.00
N228   N     0.13918   0.53100   0.45013   0.00000  Uiso   1.00
N229   N     0.41163   0.11913   0.32585   0.00000  Uiso   1.00
N230   N     0.66754   0.04976   0.22071   0.00000  Uiso   1.00
C231   C     0.36291   0.56023   0.04483   0.00000  Uiso   1.00
C232   C     0.38728   0.55209   0.01286   0.00000  Uiso   1.00
C233   C     0.41412   0.59495   0.98893   0.00000  Uiso   1.00
C234   C     0.43347   0.57879   0.96146   0.00000  Uiso   1.00
C235   C     0.13912   0.90816   0.24567   0.00000  Uiso   1.00
C236   C     0.39447   0.54555   0.07131   0.00000  Uiso   1.00
C237   C     0.42735   0.58291   0.09652   0.00000  Uiso   1.00
C238   C     0.45274   0.56123   0.11825   0.00000  Uiso   1.00
C239   C     0.50286   0.54710   0.15988   0.00000  Uiso   1.00
C240   C     0.29780   0.51115   0.04607   0.00000  Uiso   1.00
C241   C     0.24939   0.51958   0.05007   0.00000  Uiso   1.00
C242   C     0.19338   0.46893   0.05057   0.00000  Uiso   1.00
C243   C     0.09339   0.40139   0.05302   0.00000  Uiso   1.00
C244   C     0.34953   0.45531   0.03862   0.00000  Uiso   1.00
C245   C     0.38002   0.49511   0.00949   0.00000  Uiso   1.00
C246   C     0.39932   0.47887   0.98205   0.00000  Uiso   1.00
C247   C     0.09285   0.85503   0.29141   0.00000  Uiso   1.00
C248   C     0.38721   0.48857   0.06793   0.00000  Uiso   1.00
C249   C     0.41255   0.46683   0.08964   0.00000  Uiso   1.00
C250   C     0.44546   0.50414   0.11487   0.00000  Uiso   1.00
C251   C     0.29053   0.45416   0.04270   0.00000  Uiso   1.00
C252   C     0.23459   0.40350   0.04319   0.00000  Uiso   1.00
C253   C     0.18610   0.41184   0.04719   0.00000  Uiso   1.00
H254   H     0.36857   0.60460   0.04747   0.00000  Uiso   1.00
H255   H     0.41974   0.63905   0.99155   0.00000  Uiso   1.00
H256   H     0.43297   0.62700   0.09913   0.00000  Uiso   1.00
H257   H     0.25503   0.56368   0.05269   0.00000  Uiso   1.00
H258   H     0.47330   0.65212   0.92807   0.00000  Uiso   1.00
H259   H     0.50116   0.62672   0.15491   0.00000  Uiso   1.00
H260   H     0.12595   0.49319   0.05698   0.00000  Uiso   1.00
H261   H     0.34387   0.41094   0.03599   0.00000  Uiso   1.00
H262   H     0.06036   0.76810   0.31278   0.00000  Uiso   1.00
H263   H     0.40692   0.42272   0.08702   0.00000  Uiso   1.00
H264   H     0.22898   0.35940   0.04058   0.00000  Uiso   1.00
H265   H     0.11883   0.81965   0.25158   0.00000  Uiso   1.00
H266   H     0.48002   0.46091   0.14509   0.00000  Uiso   1.00
H267   H     0.10481   0.32739   0.04716   0.00000  Uiso   1.00
O268   O     0.16264   0.92173   0.21951   0.00000  Uiso   1.00
O269   O     0.53251   0.55506   0.18378   0.00000  Uiso   1.00
O270   O     0.04024   0.37988   0.05530   0.00000  Uiso   1.00
N271   N     0.46148   0.60983   0.93352   0.00000  Uiso   1.00
N272   N     0.48753   0.58608   0.14559   0.00000  Uiso   1.00
N273   N     0.13674   0.46124   0.05405   0.00000  Uiso   1.00
N274   N     0.11677   0.85394   0.26156   0.00000  Uiso   1.00
N275   N     0.47616   0.49686   0.14031   0.00000  Uiso   1.00
N276   N     0.12536   0.37202   0.04876   0.00000  Uiso   1.00
C277   C     0.11274   0.04124   0.89985   0.00000  Uiso   1.00
C278   C     0.11624   0.01318   0.86812   0.00000  Uiso   1.00
C279   C     0.06880   0.97909   0.84762   0.00000  Uiso   1.00
C280   C     0.08118   0.95742   0.81975   0.00000  Uiso   1.00
C281   C     0.07782   0.91199   0.77157   0.00000  Uiso   1.00
C282   C     0.47121   0.68470   0.59240   0.00000  Uiso   1.00
C283   C     0.44197   0.65470   0.62035   0.00000  Uiso   1.00
C284   C     0.47258   0.63713   0.64098   0.00000  Uiso   1.00
C285   C     0.83616   0.26594   0.34892   0.00000  Uiso   1.00
C286   C     0.49033   0.77434   0.56342   0.00000  Uiso   1.00
C287   C     0.47716   0.81973   0.56701   0.00000  Uiso   1.00
C288   C     0.52387   0.87763   0.56325   0.00000  Uiso   1.00
C289   C     0.58380   0.97896   0.55953   0.00000  Uiso   1.00
C290   C     0.55244   0.73004   0.55346   0.00000  Uiso   1.00
C291   C     0.50734   0.69187   0.52769   0.00000  Uiso   1.00
C292   C     0.18647   0.00358   0.83318   0.00000  Uiso   1.00
C293   C     0.13906   0.96947   0.81265   0.00000  Uiso   1.00
C294   C     0.52898   0.69672   0.58531   0.00000  Uiso   1.00
C295   C     0.55965   0.67919   0.60590   0.00000  Uiso   1.00
C296   C     0.53045   0.64917   0.63388   0.00000  Uiso   1.00
C297   C     0.54810   0.78637   0.55633   0.00000  Uiso   1.00
C298   C     0.59484   0.84421   0.55256   0.00000  Uiso   1.00
C299   C     0.58175   0.88967   0.55615   0.00000  Uiso   1.00
H300   H     0.06777   0.03188   0.90537   0.00000  Uiso   1.00
H301   H     0.02409   0.96979   0.85312   0.00000  Uiso   1.00
H302   H     0.06393   0.97874   0.95916   0.00000  Uiso   1.00
H303   H     0.09912   0.14374   0.90583   0.00000  Uiso   1.00
H304   H     0.00115   0.90624   0.79207   0.00000  Uiso   1.00
H305   H     0.75182   0.25846   0.34901   0.00000  Uiso   1.00
H306   H     0.82602   0.60639   0.23654   0.00000  Uiso   1.00
H307   H     0.59742   0.73940   0.54794   0.00000  Uiso   1.00
H308   H     0.56452   0.67956   0.49436   0.00000  Uiso   1.00
H309   H     0.60435   0.68850   0.60041   0.00000  Uiso   1.00
H310   H     0.63954   0.85350   0.54708   0.00000  Uiso   1.00
H311   H     0.16923   0.94122   0.77144   0.00000  Uiso   1.00
H312   H     0.58657   0.62677   0.66171   0.00000  Uiso   1.00
H313   H     0.66077   0.97470   0.54925   0.00000  Uiso   1.00
O314   O     0.06000   0.88361   0.74695   0.00000  Uiso   1.00
O315   O     0.83688   0.24173   0.37365   0.00000  Uiso   1.00
O316   O     0.93423   0.69820   0.22610   0.00000  Uiso   1.00
N317   N     0.04522   0.92270   0.79456   0.00000  Uiso   1.00
N318   N     0.79043   0.27368   0.33695   0.00000  Uiso   1.00
N319   N     0.85980   0.59896   0.23182   0.00000  Uiso   1.00
N320   N     0.13567   0.94152   0.78346   0.00000  Uiso   1.00
N321   N     0.54754   0.62583   0.65918   0.00000  Uiso   1.00
N322   N     0.61691   0.95111   0.55405   0.00000  Uiso   1.00
C323   C     0.10644   0.13601   0.37817   0.00000  Uiso   1.00
C324   C     0.11457   0.16852   0.34620   0.00000  Uiso   1.00
C325   C     0.07172   0.15251   0.32226   0.00000  Uiso   1.00
C326   C     0.08788   0.18801   0.29479   0.00000  Uiso   1.00
C327   C     0.75850   0.56429   0.57900   0.00000  Uiso   1.00
C328   C     0.12111   0.18226   0.40464   0.00000  Uiso   1.00
C329   C     0.08376   0.17778   0.42985   0.00000  Uiso   1.00
C330   C     0.10543   0.22485   0.45159   0.00000  Uiso   1.00
C331   C     0.11956   0.28909   0.49322   0.00000  Uiso   1.00
C332   C     0.15552   0.11998   0.37941   0.00000  Uiso   1.00
C333   C     0.14709   0.06315   0.38341   0.00000  Uiso   1.00
C334   C     0.19773   0.05778   0.38391   0.00000  Uiso   1.00
C335   C     0.26528   0.02533   0.38635   0.00000  Uiso   1.00
C336   C     0.21135   0.22755   0.37195   0.00000  Uiso   1.00
C337   C     0.17156   0.21824   0.34282   0.00000  Uiso   1.00
C338   C     0.18780   0.25378   0.31538   0.00000  Uiso   1.00
C339   C     0.81164   0.57116   0.62474   0.00000  Uiso   1.00
C340   C     0.17810   0.23198   0.40127   0.00000  Uiso   1.00
C341   C     0.19984   0.27906   0.42297   0.00000  Uiso   1.00
C342   C     0.16252   0.27466   0.44821   0.00000  Uiso   1.00
C343   C     0.21251   0.16970   0.37603   0.00000  Uiso   1.00
C344   C     0.26317   0.16443   0.37653   0.00000  Uiso   1.00
C345   C     0.25482   0.10759   0.38052   0.00000  Uiso   1.00
H346   H     0.06207   0.09730   0.38080   0.00000  Uiso   1.00
H347   H     0.02762   0.11403   0.32488   0.00000  Uiso   1.00
H348   H     0.03966   0.13929   0.43246   0.00000  Uiso   1.00
H349   H     0.10298   0.02468   0.38602   0.00000  Uiso   1.00
H350   H     0.01455   0.15451   0.26141   0.00000  Uiso   1.00
H351   H     0.03995   0.20778   0.48824   0.00000  Uiso   1.00
H352   H     0.17348   0.96609   0.39032   0.00000  Uiso   1.00
H353   H     0.25572   0.26626   0.36932   0.00000  Uiso   1.00
H354   H     0.89857   0.62559   0.64611   0.00000  Uiso   1.00
H355   H     0.24394   0.31753   0.42035   0.00000  Uiso   1.00
H356   H     0.30726   0.20291   0.37391   0.00000  Uiso   1.00
H357   H     0.84701   0.63251   0.58491   0.00000  Uiso   1.00
H358   H     0.20575   0.35244   0.47842   0.00000  Uiso   1.00
H359   H     0.33928   0.11075   0.38049   0.00000  Uiso   1.00
O360   O     0.74494   0.57424   0.55284   0.00000  Uiso   1.00
O361   O     0.11161   0.31079   0.51711   0.00000  Uiso   1.00
O362   O     0.28679   0.99370   0.38863   0.00000  Uiso   1.00
N363   N     0.05684   0.18498   0.26685   0.00000  Uiso   1.00
N364   N     0.08059   0.23479   0.47893   0.00000  Uiso   1.00
N365   N     0.20543   0.00883   0.38738   0.00000  Uiso   1.00
N366   N     0.81272   0.59616   0.59490   0.00000  Uiso   1.00
N367   N     0.16981   0.31263   0.47364   0.00000  Uiso   1.00
N368   N     0.29464   0.08667   0.38210   0.00000  Uiso   1.00
C369   C     0.77941   0.37458   0.23318   0.00000  Uiso   1.00
C370   C     0.78291   0.34651   0.20145   0.00000  Uiso   1.00
C371   C     0.73546   0.31243   0.18096   0.00000  Uiso   1.00
C372   C     0.74785   0.29076   0.15308   0.00000  Uiso   1.00
C373   C     0.74448   0.24533   0.10490   0.00000  Uiso   1.00
C374   C     0.13788   0.01803   0.92573   0.00000  Uiso   1.00
C375   C     0.10864   0.98804   0.95368   0.00000  Uiso   1.00
C376   C     0.13925   0.97046   0.97431   0.00000  Uiso   1.00
C377   C     0.50283   0.59927   0.68226   0.00000  Uiso   1.00
C378   C     0.15700   0.10768   0.89675   0.00000  Uiso   1.00
C379   C     0.14383   0.15306   0.90034   0.00000  Uiso   1.00
C380   C     0.19054   0.21096   0.89658   0.00000  Uiso   1.00
C381   C     0.25047   0.31229   0.89286   0.00000  Uiso   1.00
C382   C     0.21910   0.06338   0.88679   0.00000  Uiso   1.00
C383   C     0.17401   0.02520   0.86103   0.00000  Uiso   1.00
C384   C     0.85314   0.33691   0.16651   0.00000  Uiso   1.00
C385   C     0.80572   0.30280   0.14598   0.00000  Uiso   1.00
C386   C     0.19565   0.03005   0.91864   0.00000  Uiso   1.00
C387   C     0.22631   0.01252   0.93924   0.00000  Uiso   1.00
C388   C     0.19712   0.98250   0.96721   0.00000  Uiso   1.00
C389   C     0.21477   0.11970   0.88966   0.00000  Uiso   1.00
C390   C     0.26151   0.17754   0.88590   0.00000  Uiso   1.00
C391   C     0.24841   0.22300   0.88948   0.00000  Uiso   1.00
H392   H     0.73443   0.36522   0.23870   0.00000  Uiso   1.00
H393   H     0.69076   0.30313   0.18645   0.00000  Uiso   1.00
H394   H     0.73060   0.31208   0.29250   0.00000  Uiso   1.00
H395   H     0.76579   0.47707   0.23916   0.00000  Uiso   1.00
H396   H     0.66782   0.23958   0.12540   0.00000  Uiso   1.00
H397   H     0.41849   0.59180   0.68234   0.00000  Uiso   1.00
H398   H     0.49269   0.93972   0.56988   0.00000  Uiso   1.00
H399   H     0.26408   0.07274   0.88127   0.00000  Uiso   1.00
H400   H     0.23118   0.01289   0.82770   0.00000  Uiso   1.00
H401   H     0.27102   0.02184   0.93374   0.00000  Uiso   1.00
H402   H     0.30621   0.18683   0.88041   0.00000  Uiso   1.00
H403   H     0.83590   0.27455   0.10477   0.00000  Uiso   1.00
H404   H     0.25324   0.96011   0.99504   0.00000  Uiso   1.00
H405   H     0.32744   0.30803   0.88258   0.00000  Uiso   1.00
O406   O     0.72667   0.21694   0.08028   0.00000  Uiso   1.00
O407   O     0.50355   0.57507   0.70698   0.00000  Uiso   1.00
O408   O     0.60090   0.03153   0.55943   0.00000  Uiso   1.00
N409   N     0.71189   0.25603   0.12790   0.00000  Uiso   1.00
N410   N     0.45709   0.60701   0.67029   0.00000  Uiso   1.00
N411   N     0.52647   0.93229   0.56515   0.00000  Uiso   1.00
N412   N     0.80233   0.27485   0.11679   0.00000  Uiso   1.00
N413   N     0.21420   0.95917   0.99252   0.00000  Uiso   1.00
N414   N     0.28358   0.28445   0.88738   0.00000  Uiso   1.00
C415   C     0.77310   0.46934   0.71150   0.00000  Uiso   1.00
C416   C     0.78124   0.50186   0.67953   0.00000  Uiso   1.00
C417   C     0.73838   0.48584   0.65559   0.00000  Uiso   1.00
C418   C     0.75455   0.52135   0.62813   0.00000  Uiso   1.00
C419   C     0.42517   0.89762   0.91234   0.00000  Uiso   1.00
C420   C     0.78778   0.51559   0.73798   0.00000  Uiso   1.00
C421   C     0.75042   0.51111   0.76318   0.00000  Uiso   1.00
C422   C     0.77210   0.55818   0.78492   0.00000  Uiso   1.00
C423   C     0.78623   0.62242   0.82655   0.00000  Uiso   1.00
C424   C     0.82218   0.45331   0.71274   0.00000  Uiso   1.00
C425   C     0.81376   0.39648   0.71674   0.00000  Uiso   1.00
C426   C     0.86440   0.39112   0.71724   0.00000  Uiso   1.00
C427   C     0.93194   0.35867   0.71969   0.00000  Uiso   1.00
C428   C     0.87802   0.56088   0.70529   0.00000  Uiso   1.00
C429   C     0.83823   0.55158   0.67615   0.00000  Uiso   1.00
C430   C     0.85446   0.58712   0.64872   0.00000  Uiso   1.00
C431   C     0.47830   0.90449   0.95808   0.00000  Uiso   1.00
C432   C     0.84477   0.56531   0.73460   0.00000  Uiso   1.00
C433   C     0.86650   0.61239   0.75631   0.00000  Uiso   1.00
C434   C     0.82919   0.60799   0.78154   0.00000  Uiso   1.00
C435   C     0.87917   0.50303   0.70936   0.00000  Uiso   1.00
C436   C     0.92984   0.49776   0.70986   0.00000  Uiso   1.00
C437   C     0.92149   0.44093   0.71386   0.00000  Uiso   1.00
H438   H     0.72874   0.43063   0.71413   0.00000  Uiso   1.00
H439   H     0.69428   0.44736   0.65822   0.00000  Uiso   1.00
H440   H     0.70633   0.47263   0.76579   0.00000  Uiso   1.00
H441   H     0.76965   0.35801   0.71935   0.00000  Uiso   1.00
H442   H     0.68121   0.48785   0.59474   0.00000  Uiso   1.00
H443   H     0.70662   0.54111   0.82158   0.00000  Uiso   1.00
H444   H     0.84014   0.29943   0.72365   0.00000  Uiso   1.00
H445   H     0.92239   0.59959   0.70266   0.00000  Uiso   1.00
H446   H     0.56523   0.95893   0.97944   0.00000  Uiso   1.00
H447   H     0.91061   0.65086   0.75369   0.00000  Uiso   1.00
H448   H     0.97393   0.53624   0.70725   0.00000  Uiso   1.00
H449   H     0.51368   0.96584   0.91825   0.00000  Uiso   1.00
H450   H     0.87242   0.68577   0.81175   0.00000  Uiso   1.00
H451   H     0.00595   0.44409   0.71382   0.00000  Uiso   1.00
O452   O     0.41161   0.90758   0.88617   0.00000  Uiso   1.00
O453   O     0.77827   0.64412   0.85044   0.00000  Uiso   1.00
O454   O     0.95346   0.32703   0.72197   0.00000  Uiso   1.00
N455   N     0.72351   0.51832   0.60019   0.00000  Uiso   1.00
N456   N     0.74726   0.56812   0.81226   0.00000  Uiso   1.00
N457   N     0.87209   0.34217   0.72072   0.00000  Uiso   1.00
N458   N     0.47939   0.92949   0.92823   0.00000  Uiso   1.00
N459   N     0.83647   0.64596   0.80697   0.00000  Uiso   1.00
N460   N     0.96131   0.42001   0.71543   0.00000  Uiso   1.00
C461   C     0.44608   0.70791   0.56651   0.00000  Uiso   1.00
C462   C     0.44957   0.67985   0.53478   0.00000  Uiso   1.00
C463   C     0.40213   0.64576   0.51429   0.00000  Uiso   1.00
C464   C     0.41452   0.62409   0.48642   0.00000  Uiso   1.00
C465   C     0.41115   0.57866   0.43823   0.00000  Uiso   1.00
C466   C     0.80455   0.35137   0.25906   0.00000  Uiso   1.00
C467   C     0.77530   0.32137   0.28702   0.00000  Uiso   1.00
C468   C     0.80591   0.30380   0.30765   0.00000  Uiso   1.00
C469   C     0.16950   0.93261   0.01559   0.00000  Uiso   1.00
C470   C     0.82366   0.44101   0.23008   0.00000  Uiso   1.00
C471   C     0.81050   0.48639   0.23368   0.00000  Uiso   1.00
C472   C     0.85720   0.54429   0.22991   0.00000  Uiso   1.00
C473   C     0.91713   0.64563   0.22619   0.00000  Uiso   1.00
C474   C     0.88577   0.39671   0.22013   0.00000  Uiso   1.00
C475   C     0.84068   0.35853   0.19436   0.00000  Uiso   1.00
C476   C     0.51981   0.67025   0.49985   0.00000  Uiso   1.00
C477   C     0.47239   0.63614   0.47931   0.00000  Uiso   1.00
C478   C     0.86232   0.36339   0.25197   0.00000  Uiso   1.00
C479   C     0.89298   0.34586   0.27257   0.00000  Uiso   1.00
C480   C     0.86379   0.31584   0.30054   0.00000  Uiso   1.00
C481   C     0.88143   0.45303   0.22299   0.00000  Uiso   1.00
C482   C     0.92817   0.51088   0.21923   0.00000  Uiso   1.00
C483   C     0.91508   0.55634   0.22281   0.00000  Uiso   1.00
H484   H     0.40110   0.69855   0.57204   0.00000  Uiso   1.00
H485   H     0.35743   0.63646   0.51979   0.00000  Uiso   1.00
H486   H     0.39727   0.64541   0.62583   0.00000  Uiso   1.00
H487   H     0.43245   0.81040   0.57250   0.00000  Uiso   1.00
H488   H     0.33448   0.57291   0.45874   0.00000  Uiso   1.00
H489   H     0.08516   0.92513   0.01567   0.00000  Uiso   1.00
H490   H     0.15936   0.27305   0.90321   0.00000  Uiso   1.00
H491   H     0.93075   0.40607   0.21461   0.00000  Uiso   1.00
H492   H     0.89785   0.34622   0.16103   0.00000  Uiso   1.00
H493   H     0.93769   0.35517   0.26708   0.00000  Uiso   1.00
H494   H     0.97287   0.52016   0.21374   0.00000  Uiso   1.00
H495   H     0.50256   0.60788   0.43810   0.00000  Uiso   1.00
H496   H     0.91990   0.29344   0.32838   0.00000  Uiso   1.00
H497   H     0.99410   0.64136   0.21591   0.00000  Uiso   1.00
O498   O     0.39333   0.55027   0.41362   0.00000  Uiso   1.00
O499   O     0.17022   0.90840   0.04032   0.00000  Uiso   1.00
O500   O     0.26756   0.36486   0.89276   0.00000  Uiso   1.00
N501   N     0.37856   0.58936   0.46123   0.00000  Uiso   1.00
N502   N     0.12376   0.94035   0.00362   0.00000  Uiso   1.00
N503   N     0.19313   0.26563   0.89848   0.00000  Uiso   1.00
N504   N     0.46900   0.60818   0.45013   0.00000  Uiso   1.00
N505   N     0.88087   0.29250   0.32585   0.00000  Uiso   1.00
N506   N     0.95024   0.61778   0.22071   0.00000  Uiso   1.00
C507   C     0.43977   0.80267   0.04483   0.00000  Uiso   1.00
C508   C     0.44791   0.83519   0.01286   0.00000  Uiso   1.00
C509   C     0.40505   0.81917   0.98893   0.00000  Uiso   1.00
C510   C     0.42121   0.85468   0.96146   0.00000  Uiso   1.00
C511   C     0.09184   0.23095   0.24567   0.00000  Uiso   1.00
C512   C     0.45445   0.84892   0.07131   0.00000  Uiso   1.00
C513   C     0.41709   0.84445   0.09652   0.00000  Uiso   1.00
C514   C     0.43877   0.89151   0.11825   0.00000  Uiso   1.00
C515   C     0.45290   0.95575   0.15988   0.00000  Uiso   1.00
C516   C     0.48885   0.78665   0.04607   0.00000  Uiso   1.00
C517   C     0.48042   0.72981   0.05007   0.00000  Uiso   1.00
C518   C     0.53107   0.72445   0.05057   0.00000  Uiso   1.00
C519   C     0.59861   0.69200   0.05302   0.00000  Uiso   1.00
C520   C     0.54469   0.89421   0.03862   0.00000  Uiso   1.00
C521   C     0.50489   0.88491   0.00949   0.00000  Uiso   1.00
C522   C     0.52113   0.92045   0.98205   0.00000  Uiso   1.00
C523   C     0.14497   0.23782   0.29141   0.00000  Uiso   1.00
C524   C     0.51143   0.89864   0.06793   0.00000  Uiso   1.00
C525   C     0.53317   0.94572   0.08964   0.00000  Uiso   1.00
C526   C     0.49586   0.94132   0.11487   0.00000  Uiso   1.00
C527   C     0.54584   0.83637   0.04270   0.00000  Uiso   1.00
C528   C     0.59650   0.83109   0.04319   0.00000  Uiso   1.00
C529   C     0.58816   0.77426   0.04719   0.00000  Uiso   1.00
H530   H     0.39540   0.76397   0.04747   0.00000  Uiso   1.00
H531   H     0.36095   0.78069   0.99155   0.00000  Uiso   1.00
H532   H     0.37300   0.80596   0.09913   0.00000  Uiso   1.00
H533   H     0.43632   0.69135   0.05269   0.00000  Uiso   1.00
H534   H     0.34788   0.82118   0.92807   0.00000  Uiso   1.00
H535   H     0.37328   0.87445   0.15491   0.00000  Uiso   1.00
H536   H     0.50681   0.63276   0.05698   0.00000  Uiso   1.00
H537   H     0.58906   0.93293   0.03599   0.00000  Uiso   1.00
H538   H     0.23190   0.29226   0.31278   0.00000  Uiso   1.00
H539   H     0.57728   0.98419   0.08702   0.00000  Uiso   1.00
H540   H     0.64060   0.86958   0.04058   0.00000  Uiso   1.00
H541   H     0.18035   0.29917   0.25158   0.00000  Uiso   1.00
H542   H     0.53909   0.01911   0.14509   0.00000  Uiso   1.00
H543   H     0.67261   0.77742   0.04716   0.00000  Uiso   1.00
O544   O     0.07827   0.24091   0.21951   0.00000  Uiso   1.00
O545   O     0.44494   0.97745   0.18378   0.00000  Uiso   1.00
O546   O     0.62012   0.66037   0.05530   0.00000  Uiso   1.00
N547   N     0.39017   0.85165   0.93352   0.00000  Uiso   1.00
N548   N     0.41392   0.90146   0.14559   0.00000  Uiso   1.00
N549   N     0.53876   0.67550   0.05405   0.00000  Uiso   1.00
N550   N     0.14606   0.26282   0.26156   0.00000  Uiso   1.00
N551   N     0.50314   0.97930   0.14031   0.00000  Uiso   1.00
N552   N     0.62798   0.75334   0.04876   0.00000  Uiso   1.00
C553   C     0.95876   0.07150   0.89985   0.00000  Uiso   1.00
C554   C     0.98682   0.10306   0.86812   0.00000  Uiso   1.00
C555   C     0.02091   0.08970   0.84762   0.00000  Uiso   1.00
C556   C     0.04258   0.12376   0.81975   0.00000  Uiso   1.00
C557   C     0.08801   0.16582   0.77157   0.00000  Uiso   1.00
C558   C     0.31530   0.78651   0.59240   0.00000  Uiso   1.00
C559   C     0.34530   0.78727   0.62035   0.00000  Uiso   1.00
C560   C     0.36287   0.83545   0.64098   0.00000  Uiso   1.00
C561   C     0.73406   0.57022   0.34892   0.00000  Uiso   1.00
C562   C     0.22566   0.71599   0.56342   0.00000  Uiso   1.00
C563   C     0.18027   0.65744   0.56701   0.00000  Uiso   1.00
C564   C     0.12237   0.64624   0.56325   0.00000  Uiso   1.00
C565   C     0.02104   0.60484   0.55953   0.00000  Uiso   1.00
C566   C     0.26996   0.82239   0.55346   0.00000  Uiso   1.00
C567   C     0.30813   0.81548   0.52769   0.00000  Uiso   1.00
C568   C     0.99642   0.18289   0.83318   0.00000  Uiso   1.00
C569   C     0.03053   0.16959   0.81265   0.00000  Uiso   1.00
C570   C     0.30328   0.83226   0.58531   0.00000  Uiso   1.00
C571   C     0.32081   0.88045   0.60590   0.00000  Uiso   1.00
C572   C     0.35083   0.88128   0.63388   0.00000  Uiso   1.00
C573   C     0.21363   0.76173   0.55633   0.00000  Uiso   1.00
C574   C     0.15579   0.75063   0.55256   0.00000  Uiso   1.00
C575   C     0.11033   0.69208   0.55615   0.00000  Uiso   1.00
H576   H     0.96812   0.03589   0.90537   0.00000  Uiso   1.00
H577   H     0.03021   0.05430   0.85312   0.00000  Uiso   1.00
H578   H     0.02126   0.08519   0.95916   0.00000  Uiso   1.00
H579   H     0.85626   0.95538   0.90583   0.00000  Uiso   1.00
H580   H     0.09376   0.09491   0.79207   0.00000  Uiso   1.00
H581   H     0.74154   0.49336   0.34901   0.00000  Uiso   1.00
H582   H     0.39361   0.21963   0.23654   0.00000  Uiso   1.00
H583   H     0.26060   0.85801   0.54794   0.00000  Uiso   1.00
H584   H     0.32044   0.88496   0.49436   0.00000  Uiso   1.00
H585   H     0.31150   0.91585   0.60041   0.00000  Uiso   1.00
H586   H     0.14650   0.78604   0.54708   0.00000  Uiso   1.00
H587   H     0.05878   0.22801   0.77144   0.00000  Uiso   1.00
H588   H     0.37323   0.95980   0.66171   0.00000  Uiso   1.00
H589   H     0.02530   0.68607   0.54925   0.00000  Uiso   1.00
O590   O     0.11639   0.17639   0.74695   0.00000  Uiso   1.00
O591   O     0.75827   0.59515   0.37365   0.00000  Uiso   1.00
O592   O     0.30180   0.23603   0.22610   0.00000  Uiso   1.00
N593   N     0.07730   0.12253   0.79456   0.00000  Uiso   1.00
N594   N     0.72632   0.51675   0.33695   0.00000  Uiso   1.00
N595   N     0.40104   0.26084   0.23182   0.00000  Uiso   1.00
N596   N     0.05848   0.19415   0.78346   0.00000  Uiso   1.00
N597   N     0.37417   0.92170   0.65918   0.00000  Uiso   1.00
N598   N     0.04889   0.66580   0.55405   0.00000  Uiso   1.00
C599   C     0.86399   0.97043   0.37817   0.00000  Uiso   1.00
C600   C     0.83148   0.94605   0.34620   0.00000  Uiso   1.00
C601   C     0.84749   0.91921   0.32226   0.00000  Uiso   1.00
C602   C     0.81199   0.89987   0.29479   0.00000  Uiso   1.00
C603   C     0.43571   0.19422   0.57900   0.00000  Uiso   1.00
C604   C     0.81774   0.93886   0.40464   0.00000  Uiso   1.00
C605   C     0.82222   0.90598   0.42985   0.00000  Uiso   1.00
C606   C     0.77515   0.88059   0.45159   0.00000  Uiso   1.00
C607   C     0.71091   0.83048   0.49322   0.00000  Uiso   1.00
C608   C     0.88002   0.03554   0.37941   0.00000  Uiso   1.00
C609   C     0.93685   0.08394   0.38341   0.00000  Uiso   1.00
C610   C     0.94222   0.13995   0.38391   0.00000  Uiso   1.00
C611   C     0.97467   0.23994   0.38635   0.00000  Uiso   1.00
C612   C     0.77245   0.98381   0.37195   0.00000  Uiso   1.00
C613   C     0.78176   0.95332   0.34282   0.00000  Uiso   1.00
C614   C     0.74622   0.93401   0.31538   0.00000  Uiso   1.00
C615   C     0.42884   0.24048   0.62474   0.00000  Uiso   1.00
C616   C     0.76802   0.94612   0.40127   0.00000  Uiso   1.00
C617   C     0.72094   0.92078   0.42297   0.00000  Uiso   1.00
C618   C     0.72534   0.88787   0.44821   0.00000  Uiso   1.00
C619   C     0.83030   0.04280   0.37603   0.00000  Uiso   1.00
C620   C     0.83557   0.09875   0.37653   0.00000  Uiso   1.00
C621   C     0.89241   0.14723   0.38052   0.00000  Uiso   1.00
H622   H     0.90270   0.96477   0.38080   0.00000  Uiso   1.00
H623   H     0.88597   0.91359   0.32488   0.00000  Uiso   1.00
H624   H     0.86071   0.90037   0.43246   0.00000  Uiso   1.00
H625   H     0.97532   0.07830   0.38602   0.00000  Uiso   1.00
H626   H     0.84549   0.86003   0.26141   0.00000  Uiso   1.00
H627   H     0.79222   0.83217   0.48824   0.00000  Uiso   1.00
H628   H     0.03391   0.20739   0.39032   0.00000  Uiso   1.00
H629   H     0.73374   0.98946   0.36932   0.00000  Uiso   1.00
H630   H     0.37441   0.27297   0.64611   0.00000  Uiso   1.00
H631   H     0.68247   0.92642   0.42035   0.00000  Uiso   1.00
H632   H     0.79709   0.10435   0.37391   0.00000  Uiso   1.00
H633   H     0.36749   0.21451   0.58491   0.00000  Uiso   1.00
H634   H     0.64756   0.85331   0.47842   0.00000  Uiso   1.00
H635   H     0.88925   0.22853   0.38049   0.00000  Uiso   1.00
O636   O     0.42576   0.17070   0.55284   0.00000  Uiso   1.00
O637   O     0.68921   0.80082   0.51711   0.00000  Uiso   1.00
O638   O     0.00630   0.29309   0.38863   0.00000  Uiso   1.00
N639   N     0.81502   0.87186   0.26685   0.00000  Uiso   1.00
N640   N     0.76521   0.84580   0.47893   0.00000  Uiso   1.00
N641   N     0.99117   0.19659   0.38738   0.00000  Uiso   1.00
N642   N     0.40384   0.21657   0.59490   0.00000  Uiso   1.00
N643   N     0.68737   0.85718   0.47364   0.00000  Uiso   1.00
N644   N     0.91333   0.20797   0.38210   0.00000  Uiso   1.00
C645   C     0.62542   0.40483   0.23318   0.00000  Uiso   1.00
C646   C     0.65349   0.43639   0.20145   0.00000  Uiso   1.00
C647   C     0.68757   0.42304   0.18096   0.00000  Uiso   1.00
C648   C     0.70924   0.45709   0.15308   0.00000  Uiso   1.00
C649   C     0.75467   0.49916   0.10490   0.00000  Uiso   1.00
C650   C     0.98197   0.11985   0.92573   0.00000  Uiso   1.00
C651   C     0.01196   0.12060   0.95368   0.00000  Uiso   1.00
C652   C     0.02954   0.16878   0.97431   0.00000  Uiso   1.00
C653   C     0.40073   0.90356   0.68226   0.00000  Uiso   1.00
C654   C     0.89232   0.04932   0.89675   0.00000  Uiso   1.00
C655   C     0.84694   0.99077   0.90034   0.00000  Uiso   1.00
C656   C     0.78904   0.97958   0.89658   0.00000  Uiso   1.00
C657   C     0.68771   0.93818   0.89286   0.00000  Uiso   1.00
C658   C     0.93662   0.15573   0.88679   0.00000  Uiso   1.00
C659   C     0.97480   0.14881   0.86103   0.00000  Uiso   1.00
C660   C     0.66309   0.51623   0.16651   0.00000  Uiso   1.00
C661   C     0.69720   0.50292   0.14598   0.00000  Uiso   1.00
C662   C     0.96995   0.16560   0.91864   0.00000  Uiso   1.00
C663   C     0.98748   0.21379   0.93924   0.00000  Uiso   1.00
C664   C     0.01750   0.21462   0.96721   0.00000  Uiso   1.00
C665   C     0.88030   0.09507   0.88966   0.00000  Uiso   1.00
C666   C     0.82246   0.08396   0.88590   0.00000  Uiso   1.00
C667   C     0.77700   0.02541   0.88948   0.00000  Uiso   1.00
H668   H     0.63478   0.36922   0.23870   0.00000  Uiso   1.00
H669   H     0.69687   0.38763   0.18645   0.00000  Uiso   1.00
H670   H     0.68792   0.41852   0.29250   0.00000  Uiso   1.00
H671   H     0.52293   0.28872   0.23916   0.00000  Uiso   1.00
H672   H     0.76042   0.42824   0.12540   0.00000  Uiso   1.00
H673   H     0.40820   0.82669   0.68234   0.00000  Uiso   1.00
H674   H     0.06028   0.55297   0.56988   0.00000  Uiso   1.00
H675   H     0.92726   0.19135   0.88127   0.00000  Uiso   1.00
H676   H     0.98711   0.21829   0.82770   0.00000  Uiso   1.00
H677   H     0.97816   0.24918   0.93374   0.00000  Uiso   1.00
H678   H     0.81317   0.11938   0.88041   0.00000  Uiso   1.00
H679   H     0.72545   0.56134   0.10477   0.00000  Uiso   1.00
H680   H     0.03989   0.29313   0.99504   0.00000  Uiso   1.00
H681   H     0.69197   0.01941   0.88258   0.00000  Uiso   1.00
O682   O     0.78306   0.50973   0.08028   0.00000  Uiso   1.00
O683   O     0.42493   0.92848   0.70698   0.00000  Uiso   1.00
O684   O     0.96847   0.56937   0.55943   0.00000  Uiso   1.00
N685   N     0.74397   0.45586   0.12790   0.00000  Uiso   1.00
N686   N     0.39299   0.85008   0.67029   0.00000  Uiso   1.00
N687   N     0.06771   0.59417   0.56515   0.00000  Uiso   1.00
N688   N     0.72515   0.52748   0.11679   0.00000  Uiso   1.00
N689   N     0.04083   0.25504   0.99252   0.00000  Uiso   1.00
N690   N     0.71555   0.99913   0.88738   0.00000  Uiso   1.00
C691   C     0.53066   0.30376   0.71150   0.00000  Uiso   1.00
C692   C     0.49814   0.27938   0.67953   0.00000  Uiso   1.00
C693   C     0.51416   0.25254   0.65559   0.00000  Uiso   1.00
C694   C     0.47865   0.23320   0.62813   0.00000  Uiso   1.00
C695   C     0.10238   0.52755   0.91234   0.00000  Uiso   1.00
C696   C     0.48441   0.27219   0.73798   0.00000  Uiso   1.00
C697   C     0.48889   0.23931   0.76318   0.00000  Uiso   1.00
C698   C     0.44182   0.21392   0.78492   0.00000  Uiso   1.00
C699   C     0.37758   0.16381   0.82655   0.00000  Uiso   1.00
C700   C     0.54669   0.36887   0.71274   0.00000  Uiso   1.00
C701   C     0.60352   0.41728   0.71674   0.00000  Uiso   1.00
C702   C     0.60888   0.47328   0.71724   0.00000  Uiso   1.00
C703   C     0.64133   0.57328   0.71969   0.00000  Uiso   1.00
C704   C     0.43912   0.31714   0.70529   0.00000  Uiso   1.00
C705   C     0.44842   0.28665   0.67615   0.00000  Uiso   1.00
C706   C     0.41288   0.26734   0.64872   0.00000  Uiso   1.00
C707   C     0.09551   0.57381   0.95808   0.00000  Uiso   1.00
C708   C     0.43469   0.27946   0.73460   0.00000  Uiso   1.00
C709   C     0.38761   0.25411   0.75631   0.00000  Uiso   1.00
C710   C     0.39201   0.22120   0.78154   0.00000  Uiso   1.00
C711   C     0.49697   0.37614   0.70936   0.00000  Uiso   1.00
C712   C     0.50224   0.43208   0.70986   0.00000  Uiso   1.00
C713   C     0.55907   0.48056   0.71386   0.00000  Uiso   1.00
H714   H     0.56937   0.29810   0.71413   0.00000  Uiso   1.00
H715   H     0.55264   0.24692   0.65822   0.00000  Uiso   1.00
H716   H     0.52737   0.23370   0.76579   0.00000  Uiso   1.00
H717   H     0.64199   0.41164   0.71935   0.00000  Uiso   1.00
H718   H     0.51215   0.19337   0.59474   0.00000  Uiso   1.00
H719   H     0.45889   0.16550   0.82158   0.00000  Uiso   1.00
H720   H     0.70057   0.54072   0.72365   0.00000  Uiso   1.00
H721   H     0.40041   0.32280   0.70266   0.00000  Uiso   1.00
H722   H     0.04107   0.60631   0.97944   0.00000  Uiso   1.00
H723   H     0.34914   0.25975   0.75369   0.00000  Uiso   1.00
H724   H     0.46376   0.43769   0.70725   0.00000  Uiso   1.00
H725   H     0.03416   0.54784   0.91825   0.00000  Uiso   1.00
H726   H     0.31423   0.18665   0.81175   0.00000  Uiso   1.00
H727   H     0.55591   0.56186   0.71382   0.00000  Uiso   1.00
O728   O     0.09242   0.50403   0.88617   0.00000  Uiso   1.00
O729   O     0.35588   0.13416   0.85044   0.00000  Uiso   1.00
O730   O     0.67297   0.62642   0.72197   0.00000  Uiso   1.00
N731   N     0.48168   0.20519   0.60019   0.00000  Uiso   1.00
N732   N     0.43188   0.17913   0.81226   0.00000  Uiso   1.00
N733   N     0.65783   0.52993   0.72072   0.00000  Uiso   1.00
N734   N     0.07051   0.54990   0.92823   0.00000  Uiso   1.00
N735   N     0.35404   0.19051   0.80697   0.00000  Uiso   1.00
N736   N     0.57999   0.54130   0.71543   0.00000  Uiso   1.00
C737   C     0.29209   0.73817   0.56651   0.00000  Uiso   1.00
C738   C     0.32015   0.76973   0.53478   0.00000  Uiso   1.00
C739   C     0.35424   0.75637   0.51429   0.00000  Uiso   1.00
C740   C     0.37591   0.79043   0.48642   0.00000  Uiso   1.00
C741   C     0.42134   0.83249   0.43823   0.00000  Uiso   1.00
C742   C     0.64863   0.45318   0.25906   0.00000  Uiso   1.00
C743   C     0.67863   0.45393   0.28702   0.00000  Uiso   1.00
C744   C     0.69620   0.50212   0.30765   0.00000  Uiso   1.00
C745   C     0.06739   0.23689   0.01559   0.00000  Uiso   1.00
C746   C     0.55899   0.38265   0.23008   0.00000  Uiso   1.00
C747   C     0.51361   0.32411   0.23368   0.00000  Uiso   1.00
C748   C     0.45571   0.31291   0.22991   0.00000  Uiso   1.00
C749   C     0.35437   0.27151   0.22619   0.00000  Uiso   1.00
C750   C     0.60329   0.48906   0.22013   0.00000  Uiso   1.00
C751   C     0.64147   0.48214   0.19436   0.00000  Uiso   1.00
C752   C     0.32975   0.84956   0.49985   0.00000  Uiso   1.00
C753   C     0.36386   0.83626   0.47931   0.00000  Uiso   1.00
C754   C     0.63661   0.49893   0.25197   0.00000  Uiso   1.00
C755   C     0.65414   0.54712   0.27257   0.00000  Uiso   1.00
C756   C     0.68416   0.54795   0.30054   0.00000  Uiso   1.00
C757   C     0.54697   0.42840   0.22299   0.00000  Uiso   1.00
C758   C     0.48912   0.41730   0.21923   0.00000  Uiso   1.00
C759   C     0.44366   0.35874   0.22281   0.00000  Uiso   1.00
H760   H     0.30145   0.70255   0.57204   0.00000  Uiso   1.00
H761   H     0.36354   0.72097   0.51979   0.00000  Uiso   1.00
H762   H     0.35459   0.75185   0.62583   0.00000  Uiso   1.00
H763   H     0.18960   0.62205   0.57250   0.00000  Uiso   1.00
H764   H     0.42709   0.76157   0.45874   0.00000  Uiso   1.00
H765   H     0.07487   0.16002   0.01567   0.00000  Uiso   1.00
H766   H     0.72695   0.88630   0.90321   0.00000  Uiso   1.00
H767   H     0.59393   0.52468   0.21461   0.00000  Uiso   1.00
H768   H     0.65378   0.55163   0.16103   0.00000  Uiso   1.00
H769   H     0.64483   0.58251   0.26708   0.00000  Uiso   1.00
H770   H     0.47984   0.45271   0.21374   0.00000  Uiso   1.00
H771   H     0.39212   0.89468   0.43810   0.00000  Uiso   1.00
H772   H     0.70656   0.62646   0.32838   0.00000  Uiso   1.00
H773   H     0.35864   0.35274   0.21591   0.00000  Uiso   1.00
O774   O     0.44973   0.84306   0.41362   0.00000  Uiso   1.00
O775   O     0.09160   0.26182   0.04032   0.00000  Uiso   1.00
O776   O     0.63514   0.90270   0.89276   0.00000  Uiso   1.00
N777   N     0.41064   0.78919   0.46123   0.00000  Uiso   1.00
N778   N     0.05965   0.18341   0.00362   0.00000  Uiso   1.00
N779   N     0.73437   0.92751   0.89848   0.00000  Uiso   1.00
N780   N     0.39182   0.86082   0.45013   0.00000  Uiso   1.00
N781   N     0.70750   0.58837   0.32585   0.00000  Uiso   1.00
N782   N     0.38222   0.33246   0.22071   0.00000  Uiso   1.00
C783   C     0.19733   0.63709   0.04483   0.00000  Uiso   1.00
C784   C     0.16481   0.61272   0.01286   0.00000  Uiso   1.00
C785   C     0.18083   0.58588   0.98893   0.00000  Uiso   1.00
C786   C     0.14532   0.56653   0.96146   0.00000  Uiso   1.00
C787   C     0.76905   0.86088   0.24567   0.00000  Uiso   1.00
C788   C     0.15108   0.60553   0.07131   0.00000  Uiso   1.00
C789   C     0.15555   0.57265   0.09652   0.00000  Uiso   1.00
C790   C     0.10849   0.54726   0.11825   0.00000  Uiso   1.00
C791   C     0.04425   0.49714   0.15988   0.00000  Uiso   1.00
C792   C     0.21335   0.70220   0.04607   0.00000  Uiso   1.00
C793   C     0.27019   0.75061   0.05007   0.00000  Uiso   1.00
C794   C     0.27555   0.80662   0.05057   0.00000  Uiso   1.00
C795   C     0.30800   0.90661   0.05302   0.00000  Uiso   1.00
C796   C     0.10579   0.65047   0.03862   0.00000  Uiso   1.00
C797   C     0.11509   0.61998   0.00949   0.00000  Uiso   1.00
C798   C     0.07955   0.60068   0.98205   0.00000  Uiso   1.00
C799   C     0.76218   0.90715   0.29141   0.00000  Uiso   1.00
C800   C     0.10136   0.61279   0.06793   0.00000  Uiso   1.00
C801   C     0.05428   0.58745   0.08964   0.00000  Uiso   1.00
C802   C     0.05868   0.55454   0.11487   0.00000  Uiso   1.00
C803   C     0.16363   0.70947   0.04270   0.00000  Uiso   1.00
C804   C     0.16891   0.76541   0.04319   0.00000  Uiso   1.00
C805   C     0.22574   0.81390   0.04719   0.00000  Uiso   1.00
H806   H     0.23603   0.63143   0.04747   0.00000  Uiso   1.00
H807   H     0.21931   0.58026   0.99155   0.00000  Uiso   1.00
H808   H     0.19404   0.56703   0.09913   0.00000  Uiso   1.00
H809   H     0.30865   0.74497   0.05269   0.00000  Uiso   1.00
H810   H     0.17882   0.52670   0.92807   0.00000  Uiso   1.00
H811   H     0.12555   0.49884   0.15491   0.00000  Uiso   1.00
H812   H     0.36724   0.87405   0.05698   0.00000  Uiso   1.00
H813   H     0.06707   0.65613   0.03599   0.00000  Uiso   1.00
H814   H     0.70774   0.93964   0.31278   0.00000  Uiso   1.00
H815   H     0.01581   0.59308   0.08702   0.00000  Uiso   1.00
H816   H     0.13042   0.77102   0.04058   0.00000  Uiso   1.00
H817   H     0.70083   0.88117   0.25158   0.00000  Uiso   1.00
H818   H     0.98089   0.51998   0.14509   0.00000  Uiso   1.00
H819   H     0.22258   0.89519   0.04716   0.00000  Uiso   1.00
O820   O     0.75909   0.83736   0.21951   0.00000  Uiso   1.00
O821   O     0.02255   0.46749   0.18378   0.00000  Uiso   1.00
O822   O     0.33963   0.95976   0.05530   0.00000  Uiso   1.00
N823   N     0.14835   0.53852   0.93352   0.00000  Uiso   1.00
N824   N     0.09854   0.51247   0.14559   0.00000  Uiso   1.00
N825   N     0.32450   0.86326   0.05405   0.00000  Uiso   1.00
N826   N     0.73718   0.88323   0.26156   0.00000  Uiso   1.00
N827   N     0.02070   0.52384   0.14031   0.00000  Uiso   1.00
N828   N     0.24666   0.87464   0.04876   0.00000  Uiso   1.00
C829   C     0.07150   0.11274   0.10015   0.00000  Uiso   1.00
C830   C     0.10306   0.11624   0.13188   0.00000  Uiso   1.00
C831   C     0.08970   0.06880   0.15238   0.00000  Uiso   1.00
C832   C     0.12376   0.08118   0.18025   0.00000  Uiso   1.00
C833   C     0.16582   0.07782   0.22843   0.00000  Uiso   1.00
C834   C     0.78651   0.47121   0.40760   0.00000  Uiso   1.00
C835   C     0.78727   0.44197   0.37965   0.00000  Uiso   1.00
C836   C     0.83545   0.47258   0.35902   0.00000  Uiso   1.00
C837   C     0.57022   0.83616   0.65108   0.00000  Uiso   1.00
C838   C     0.71599   0.49033   0.43658   0.00000  Uiso   1.00
C839   C     0.65744   0.47716   0.43299   0.00000  Uiso   1.00
C840   C     0.64624   0.52387   0.43675   0.00000  Uiso   1.00
C841   C     0.60484   0.58380   0.44047   0.00000  Uiso   1.00
C842   C     0.82239   0.55244   0.44654   0.00000  Uiso   1.00
C843   C     0.81548   0.50734   0.47231   0.00000  Uiso   1.00
C844   C     0.18289   0.18647   0.16682   0.00000  Uiso   1.00
C845   C     0.16959   0.13906   0.18735   0.00000  Uiso   1.00
C846   C     0.83226   0.52898   0.41469   0.00000  Uiso   1.00
C847   C     0.88045   0.55965   0.39410   0.00000  Uiso   1.00
C848   C     0.88128   0.53045   0.36612   0.00000  Uiso   1.00
C849   C     0.76173   0.54810   0.44367   0.00000  Uiso   1.00
C850   C     0.75063   0.59484   0.44744   0.00000  Uiso   1.00
C851   C     0.69208   0.58175   0.44385   0.00000  Uiso   1.00
H852   H     0.03589   0.06777   0.09463   0.00000  Uiso   1.00
H853   H     0.05430   0.02409   0.14688   0.00000  Uiso   1.00
H854   H     0.08519   0.06393   0.04084   0.00000  Uiso   1.00
H855   H     0.95538   0.09912   0.09417   0.00000  Uiso   1.00
H856   H     0.09491   0.00115   0.20793   0.00000  Uiso   1.00
H857   H     0.49336   0.75182   0.65099   0.00000  Uiso   1.00
H858   H     0.21963   0.82602   0.76346   0.00000  Uiso   1.00
H859   H     0.85801   0.59742   0.45206   0.00000  Uiso   1.00
H860   H     0.88496   0.56452   0.50564   0.00000  Uiso   1.00
H861   H     0.91585   0.60435   0.39959   0.00000  Uiso   1.00
H862   H     0.78604   0.63954   0.45292   0.00000  Uiso   1.00
H863   H     0.22801   0.16923   0.22856   0.00000  Uiso   1.00
H864   H     0.95980   0.58657   0.33829   0.00000  Uiso   1.00
H865   H     0.68607   0.66077   0.45075   0.00000  Uiso   1.00
O866   O     0.17639   0.06000   0.25305   0.00000  Uiso   1.00
O867   O     0.59515   0.83688   0.62635   0.00000  Uiso   1.00
O868   O     0.23603   0.93423   0.77390   0.00000  Uiso   1.00
N869   N     0.12253   0.04522   0.20544   0.00000  Uiso   1.00
N870   N     0.51675   0.79043   0.66305   0.00000  Uiso   1.00
N871   N     0.26084   0.85980   0.76818   0.00000  Uiso   1.00
N872   N     0.19415   0.13567   0.21654   0.00000  Uiso   1.00
N873   N     0.92170   0.54754   0.34082   0.00000  Uiso   1.00
N874   N     0.66580   0.61691   0.44595   0.00000  Uiso   1.00
C875   C     0.97043   0.10644   0.62183   0.00000  Uiso   1.00
C876   C     0.94605   0.11457   0.65380   0.00000  Uiso   1.00
C877   C     0.91921   0.07172   0.67774   0.00000  Uiso   1.00
C878   C     0.89987   0.08788   0.70521   0.00000  Uiso   1.00
C879   C     0.19422   0.75850   0.42100   0.00000  Uiso   1.00
C880   C     0.93886   0.12111   0.59536   0.00000  Uiso   1.00
C881   C     0.90598   0.08376   0.57015   0.00000  Uiso   1.00
C882   C     0.88059   0.10543   0.54841   0.00000  Uiso   1.00
C883   C     0.83048   0.11956   0.50678   0.00000  Uiso   1.00
C884   C     0.03554   0.15552   0.62059   0.00000  Uiso   1.00
C885   C     0.08394   0.14709   0.61659   0.00000  Uiso   1.00
C886   C     0.13995   0.19773   0.61609   0.00000  Uiso   1.00
C887   C     0.23994   0.26528   0.61365   0.00000  Uiso   1.00
C888   C     0.98381   0.21135   0.62805   0.00000  Uiso   1.00
C889   C     0.95332   0.17156   0.65718   0.00000  Uiso   1.00
C890   C     0.93401   0.18780   0.68462   0.00000  Uiso   1.00
C891   C     0.24048   0.81164   0.37526   0.00000  Uiso   1.00
C892   C     0.94612   0.17810   0.59873   0.00000  Uiso   1.00
C893   C     0.92078   0.19984   0.57703   0.00000  Uiso   1.00
C894   C     0.88787   0.16252   0.55179   0.00000  Uiso   1.00
C895   C     0.04280   0.21251   0.62397   0.00000  Uiso   1.00
C896   C     0.09875   0.26317   0.62347   0.00000  Uiso   1.00
C897   C     0.14723   0.25482   0.61948   0.00000  Uiso   1.00
H898   H     0.96477   0.06207   0.61920   0.00000  Uiso   1.00
H899   H     0.91359   0.02762   0.67512   0.00000  Uiso   1.00
H900   H     0.90037   0.03966   0.56754   0.00000  Uiso   1.00
H901   H     0.07830   0.10298   0.61398   0.00000  Uiso   1.00
H902   H     0.86003   0.01455   0.73859   0.00000  Uiso   1.00
H903   H     0.83217   0.03995   0.51176   0.00000  Uiso   1.00
H904   H     0.20739   0.17348   0.60968   0.00000  Uiso   1.00
H905   H     0.98946   0.25572   0.63068   0.00000  Uiso   1.00
H906   H     0.27297   0.89857   0.35389   0.00000  Uiso   1.00
H907   H     0.92642   0.24394   0.57965   0.00000  Uiso   1.00
H908   H     0.10435   0.30726   0.62609   0.00000  Uiso   1.00
H909   H     0.21451   0.84701   0.41509   0.00000  Uiso   1.00
H910   H     0.85331   0.20575   0.52158   0.00000  Uiso   1.00
H911   H     0.22853   0.33928   0.61951   0.00000  Uiso   1.00
O912   O     0.17070   0.74494   0.44716   0.00000  Uiso   1.00
O913   O     0.80082   0.11161   0.48289   0.00000  Uiso   1.00
O914   O     0.29309   0.28679   0.61137   0.00000  Uiso   1.00
N915   N     0.87186   0.05684   0.73315   0.00000  Uiso   1.00
N916   N     0.84580   0.08059   0.52107   0.00000  Uiso   1.00
N917   N     0.19659   0.20543   0.61262   0.00000  Uiso   1.00
N918   N     0.21657   0.81272   0.40510   0.00000  Uiso   1.00
N919   N     0.85718   0.16981   0.52636   0.00000  Uiso   1.00
N920   N     0.20797   0.29464   0.61790   0.00000  Uiso   1.00
C921   C     0.73817   0.44608   0.43349   0.00000  Uiso   1.00
C922   C     0.76973   0.44957   0.46522   0.00000  Uiso   1.00
C923   C     0.75637   0.40213   0.48571   0.00000  Uiso   1.00
C924   C     0.79043   0.41452   0.51358   0.00000  Uiso   1.00
C925   C     0.83249   0.41115   0.56177   0.00000  Uiso   1.00
C926   C     0.45318   0.80455   0.74094   0.00000  Uiso   1.00
C927   C     0.45393   0.77530   0.71298   0.00000  Uiso   1.00
C928   C     0.50212   0.80591   0.69235   0.00000  Uiso   1.00
C929   C     0.23689   0.16950   0.98441   0.00000  Uiso   1.00
C930   C     0.38265   0.82366   0.76992   0.00000  Uiso   1.00
C931   C     0.32411   0.81050   0.76632   0.00000  Uiso   1.00
C932   C     0.31291   0.85720   0.77009   0.00000  Uiso   1.00
C933   C     0.27151   0.91713   0.77381   0.00000  Uiso   1.00
C934   C     0.48906   0.88577   0.77987   0.00000  Uiso   1.00
C935   C     0.48214   0.84068   0.80564   0.00000  Uiso   1.00
C936   C     0.84956   0.51981   0.50015   0.00000  Uiso   1.00
C937   C     0.83626   0.47239   0.52069   0.00000  Uiso   1.00
C938   C     0.49893   0.86232   0.74803   0.00000  Uiso   1.00
C939   C     0.54712   0.89298   0.72743   0.00000  Uiso   1.00
C940   C     0.54795   0.86379   0.69946   0.00000  Uiso   1.00
C941   C     0.42840   0.88143   0.77701   0.00000  Uiso   1.00
C942   C     0.41730   0.92817   0.78077   0.00000  Uiso   1.00
C943   C     0.35874   0.91508   0.77719   0.00000  Uiso   1.00
H944   H     0.70255   0.40110   0.42796   0.00000  Uiso   1.00
H945   H     0.72097   0.35743   0.48021   0.00000  Uiso   1.00
H946   H     0.75185   0.39727   0.37417   0.00000  Uiso   1.00
H947   H     0.62205   0.43245   0.42750   0.00000  Uiso   1.00
H948   H     0.76157   0.33448   0.54126   0.00000  Uiso   1.00
H949   H     0.16002   0.08516   0.98433   0.00000  Uiso   1.00
H950   H     0.88630   0.15936   0.09679   0.00000  Uiso   1.00
H951   H     0.52468   0.93075   0.78539   0.00000  Uiso   1.00
H952   H     0.55163   0.89785   0.83897   0.00000  Uiso   1.00
H953   H     0.58251   0.93769   0.73292   0.00000  Uiso   1.00
H954   H     0.45271   0.97287   0.78626   0.00000  Uiso   1.00
H955   H     0.89468   0.50256   0.56190   0.00000  Uiso   1.00
H956   H     0.62646   0.91990   0.67162   0.00000  Uiso   1.00
H957   H     0.35274   0.99410   0.78409   0.00000  Uiso   1.00
O958   O     0.84306   0.39333   0.58638   0.00000  Uiso   1.00
O959   O     0.26182   0.17022   0.95968   0.00000  Uiso   1.00
O960   O     0.90270   0.26756   0.10724   0.00000  Uiso   1.00
N961   N     0.78919   0.37856   0.53877   0.00000  Uiso   1.00
N962   N     0.18341   0.12376   0.99638   0.00000  Uiso   1.00
N963   N     0.92751   0.19313   0.10152   0.00000  Uiso   1.00
N964   N     0.86082   0.46900   0.54987   0.00000  Uiso   1.00
N965   N     0.58837   0.88087   0.67415   0.00000  Uiso   1.00
N966   N     0.33246   0.95024   0.77929   0.00000  Uiso   1.00
C967   C     0.63709   0.43977   0.95517   0.00000  Uiso   1.00
C968   C     0.61272   0.44791   0.98714   0.00000  Uiso   1.00
C969   C     0.58588   0.40505   0.01107   0.00000  Uiso   1.00
C970   C     0.56653   0.42121   0.03854   0.00000  Uiso   1.00
C971   C     0.86088   0.09184   0.75433   0.00000  Uiso   1.00
C972   C     0.60553   0.45445   0.92869   0.00000  Uiso   1.00
C973   C     0.57265   0.41709   0.90348   0.00000  Uiso   1.00
C974   C     0.54726   0.43877   0.88175   0.00000  Uiso   1.00
C975   C     0.49714   0.45290   0.84012   0.00000  Uiso   1.00
C976   C     0.70220   0.48885   0.95393   0.00000  Uiso   1.00
C977   C     0.75061   0.48042   0.94993   0.00000  Uiso   1.00
C978   C     0.80662   0.53107   0.94943   0.00000  Uiso   1.00
C979   C     0.90661   0.59861   0.94698   0.00000  Uiso   1.00
C980   C     0.65047   0.54469   0.96138   0.00000  Uiso   1.00
C981   C     0.61998   0.50489   0.99051   0.00000  Uiso   1.00
C982   C     0.60068   0.52113   0.01795   0.00000  Uiso   1.00
C983   C     0.90715   0.14497   0.70859   0.00000  Uiso   1.00
C984   C     0.61279   0.51143   0.93207   0.00000  Uiso   1.00
C985   C     0.58745   0.53317   0.91036   0.00000  Uiso   1.00
C986   C     0.55454   0.49586   0.88513   0.00000  Uiso   1.00
C987   C     0.70947   0.54584   0.95730   0.00000  Uiso   1.00
C988   C     0.76541   0.59650   0.95681   0.00000  Uiso   1.00
C989   C     0.81390   0.58816   0.95281   0.00000  Uiso   1.00
H990   H     0.63143   0.39540   0.95253   0.00000  Uiso   1.00
H991   H     0.58026   0.36095   0.00845   0.00000  Uiso   1.00
H992   H     0.56703   0.37300   0.90087   0.00000  Uiso   1.00
H993   H     0.74497   0.43632   0.94731   0.00000  Uiso   1.00
H994   H     0.52670   0.34788   0.07193   0.00000  Uiso   1.00
H995   H     0.49884   0.37328   0.84509   0.00000  Uiso   1.00
H996   H     0.87405   0.50681   0.94302   0.00000  Uiso   1.00
H997   H     0.65613   0.58906   0.96401   0.00000  Uiso   1.00
H998   H     0.93964   0.23190   0.68722   0.00000  Uiso   1.00
H999   H     0.59308   0.57728   0.91298   0.00000  Uiso   1.00
H1000  H     0.77102   0.64060   0.95942   0.00000  Uiso   1.00
H1001  H     0.88117   0.18035   0.74842   0.00000  Uiso   1.00
H1002  H     0.51998   0.53909   0.85491   0.00000  Uiso   1.00
H1003  H     0.89519   0.67261   0.95284   0.00000  Uiso   1.00
O1004  O     0.83736   0.07827   0.78049   0.00000  Uiso   1.00
O1005  O     0.46749   0.44494   0.81622   0.00000  Uiso   1.00
O1006  O     0.95976   0.62012   0.94470   0.00000  Uiso   1.00
N1007  N     0.53852   0.39017   0.06648   0.00000  Uiso   1.00
N1008  N     0.51247   0.41392   0.85441   0.00000  Uiso   1.00
N1009  N     0.86326   0.53876   0.94595   0.00000  Uiso   1.00
N1010  N     0.88323   0.14606   0.73844   0.00000  Uiso   1.00
N1011  N     0.52384   0.50314   0.85969   0.00000  Uiso   1.00
N1012  N     0.87464   0.62798   0.95124   0.00000  Uiso   1.00
C1013  C     0.40483   0.77941   0.76682   0.00000  Uiso   1.00
C1014  C     0.43639   0.78291   0.79855   0.00000  Uiso   1.00
C1015  C     0.42304   0.73546   0.81904   0.00000  Uiso   1.00
C1016  C     0.45709   0.74785   0.84692   0.00000  Uiso   1.00
C1017  C     0.49916   0.74448   0.89510   0.00000  Uiso   1.00
C1018  C     0.11985   0.13788   0.07427   0.00000  Uiso   1.00
C1019  C     0.12060   0.10864   0.04632   0.00000  Uiso   1.00
C1020  C     0.16878   0.13925   0.02569   0.00000  Uiso   1.00
C1021  C     0.90356   0.50283   0.31774   0.00000  Uiso   1.00
C1022  C     0.04932   0.15700   0.10325   0.00000  Uiso   1.00
C1023  C     0.99077   0.14383   0.09966   0.00000  Uiso   1.00
C1024  C     0.97958   0.19054   0.10342   0.00000  Uiso   1.00
C1025  C     0.93818   0.25047   0.10714   0.00000  Uiso   1.00
C1026  C     0.15573   0.21910   0.11321   0.00000  Uiso   1.00
C1027  C     0.14881   0.17401   0.13897   0.00000  Uiso   1.00
C1028  C     0.51623   0.85314   0.83349   0.00000  Uiso   1.00
C1029  C     0.50292   0.80572   0.85402   0.00000  Uiso   1.00
C1030  C     0.16560   0.19565   0.08136   0.00000  Uiso   1.00
C1031  C     0.21379   0.22631   0.06076   0.00000  Uiso   1.00
C1032  C     0.21462   0.19712   0.03279   0.00000  Uiso   1.00
C1033  C     0.09507   0.21477   0.11034   0.00000  Uiso   1.00
C1034  C     0.08396   0.26151   0.11410   0.00000  Uiso   1.00
C1035  C     0.02541   0.24841   0.11052   0.00000  Uiso   1.00
H1036  H     0.36922   0.73443   0.76130   0.00000  Uiso   1.00
H1037  H     0.38763   0.69076   0.81355   0.00000  Uiso   1.00
H1038  H     0.41852   0.73060   0.70750   0.00000  Uiso   1.00
H1039  H     0.28872   0.76579   0.76084   0.00000  Uiso   1.00
H1040  H     0.42824   0.66782   0.87460   0.00000  Uiso   1.00
H1041  H     0.82669   0.41849   0.31766   0.00000  Uiso   1.00
H1042  H     0.55297   0.49269   0.43012   0.00000  Uiso   1.00
H1043  H     0.19135   0.26408   0.11873   0.00000  Uiso   1.00
H1044  H     0.21829   0.23118   0.17230   0.00000  Uiso   1.00
H1045  H     0.24918   0.27102   0.06626   0.00000  Uiso   1.00
H1046  H     0.11938   0.30621   0.11959   0.00000  Uiso   1.00
H1047  H     0.56134   0.83590   0.89523   0.00000  Uiso   1.00
H1048  H     0.29313   0.25324   0.00496   0.00000  Uiso   1.00
H1049  H     0.01941   0.32744   0.11742   0.00000  Uiso   1.00
O1050  O     0.50973   0.72667   0.91972   0.00000  Uiso   1.00
O1051  O     0.92848   0.50355   0.29302   0.00000  Uiso   1.00
O1052  O     0.56937   0.60090   0.44057   0.00000  Uiso   1.00
N1053  N     0.45586   0.71189   0.87210   0.00000  Uiso   1.00
N1054  N     0.85008   0.45709   0.32971   0.00000  Uiso   1.00
N1055  N     0.59417   0.52647   0.43485   0.00000  Uiso   1.00
N1056  N     0.52748   0.80233   0.88321   0.00000  Uiso   1.00
N1057  N     0.25504   0.21420   0.00748   0.00000  Uiso   1.00
N1058  N     0.99913   0.28358   0.11262   0.00000  Uiso   1.00
C1059  C     0.30376   0.77310   0.28850   0.00000  Uiso   1.00
C1060  C     0.27938   0.78124   0.32047   0.00000  Uiso   1.00
C1061  C     0.25254   0.73838   0.34441   0.00000  Uiso   1.00
C1062  C     0.23320   0.75455   0.37187   0.00000  Uiso   1.00
C1063  C     0.52755   0.42517   0.08766   0.00000  Uiso   1.00
C1064  C     0.27219   0.78778   0.26202   0.00000  Uiso   1.00
C1065  C     0.23931   0.75042   0.23682   0.00000  Uiso   1.00
C1066  C     0.21392   0.77210   0.21508   0.00000  Uiso   1.00
C1067  C     0.16381   0.78623   0.17345   0.00000  Uiso   1.00
C1068  C     0.36887   0.82218   0.28726   0.00000  Uiso   1.00
C1069  C     0.41728   0.81376   0.28326   0.00000  Uiso   1.00
C1070  C     0.47328   0.86440   0.28276   0.00000  Uiso   1.00
C1071  C     0.57328   0.93194   0.28031   0.00000  Uiso   1.00
C1072  C     0.31714   0.87802   0.29471   0.00000  Uiso   1.00
C1073  C     0.28665   0.83823   0.32385   0.00000  Uiso   1.00
C1074  C     0.26734   0.85446   0.35128   0.00000  Uiso   1.00
C1075  C     0.57381   0.47830   0.04192   0.00000  Uiso   1.00
C1076  C     0.27946   0.84477   0.26540   0.00000  Uiso   1.00
C1077  C     0.25411   0.86650   0.24369   0.00000  Uiso   1.00
C1078  C     0.22120   0.82919   0.21846   0.00000  Uiso   1.00
C1079  C     0.37614   0.87917   0.29064   0.00000  Uiso   1.00
C1080  C     0.43208   0.92984   0.29014   0.00000  Uiso   1.00
C1081  C     0.48056   0.92149   0.28614   0.00000  Uiso   1.00
H1082  H     0.29810   0.72874   0.28587   0.00000  Uiso   1.00
H1083  H     0.24692   0.69428   0.34178   0.00000  Uiso   1.00
H1084  H     0.23370   0.70633   0.23421   0.00000  Uiso   1.00
H1085  H     0.41164   0.76965   0.28065   0.00000  Uiso   1.00
H1086  H     0.19337   0.68121   0.40526   0.00000  Uiso   1.00
H1087  H     0.16550   0.70662   0.17842   0.00000  Uiso   1.00
H1088  H     0.54072   0.84014   0.27635   0.00000  Uiso   1.00
H1089  H     0.32280   0.92239   0.29734   0.00000  Uiso   1.00
H1090  H     0.60631   0.56523   0.02056   0.00000  Uiso   1.00
H1091  H     0.25975   0.91061   0.24631   0.00000  Uiso   1.00
H1092  H     0.43769   0.97393   0.29275   0.00000  Uiso   1.00
H1093  H     0.54784   0.51368   0.08175   0.00000  Uiso   1.00
H1094  H     0.18665   0.87242   0.18825   0.00000  Uiso   1.00
H1095  H     0.56186   0.00595   0.28618   0.00000  Uiso   1.00
O1096  O     0.50403   0.41161   0.11383   0.00000  Uiso   1.00
O1097  O     0.13416   0.77827   0.14956   0.00000  Uiso   1.00
O1098  O     0.62642   0.95346   0.27803   0.00000  Uiso   1.00
N1099  N     0.20519   0.72351   0.39981   0.00000  Uiso   1.00
N1100  N     0.17913   0.74726   0.18774   0.00000  Uiso   1.00
N1101  N     0.52993   0.87209   0.27928   0.00000  Uiso   1.00
N1102  N     0.54990   0.47939   0.07177   0.00000  Uiso   1.00
N1103  N     0.19051   0.83647   0.19303   0.00000  Uiso   1.00
N1104  N     0.54130   0.96131   0.28457   0.00000  Uiso   1.00
C1105  C     0.88726   0.95876   0.10015   0.00000  Uiso   1.00
C1106  C     0.88376   0.98682   0.13188   0.00000  Uiso   1.00
C1107  C     0.93120   0.02091   0.15238   0.00000  Uiso   1.00
C1108  C     0.91882   0.04258   0.18025   0.00000  Uiso   1.00
C1109  C     0.92218   0.08801   0.22843   0.00000  Uiso   1.00
C1110  C     0.52879   0.31530   0.40760   0.00000  Uiso   1.00
C1111  C     0.55803   0.34530   0.37965   0.00000  Uiso   1.00
C1112  C     0.52742   0.36287   0.35902   0.00000  Uiso   1.00
C1113  C     0.16384   0.73406   0.65108   0.00000  Uiso   1.00
C1114  C     0.50967   0.22566   0.43658   0.00000  Uiso   1.00
C1115  C     0.52284   0.18027   0.43299   0.00000  Uiso   1.00
C1116  C     0.47613   0.12237   0.43675   0.00000  Uiso   1.00
C1117  C     0.41620   0.02104   0.44047   0.00000  Uiso   1.00
C1118  C     0.44756   0.26996   0.44654   0.00000  Uiso   1.00
C1119  C     0.49266   0.30813   0.47231   0.00000  Uiso   1.00
C1120  C     0.81353   0.99642   0.16682   0.00000  Uiso   1.00
C1121  C     0.86094   0.03053   0.18735   0.00000  Uiso   1.00
C1122  C     0.47102   0.30328   0.41469   0.00000  Uiso   1.00
C1123  C     0.44035   0.32081   0.39410   0.00000  Uiso   1.00
C1124  C     0.46955   0.35083   0.36612   0.00000  Uiso   1.00
C1125  C     0.45190   0.21363   0.44367   0.00000  Uiso   1.00
C1126  C     0.40516   0.15579   0.44744   0.00000  Uiso   1.00
C1127  C     0.41825   0.11033   0.44385   0.00000  Uiso   1.00
H1128  H     0.93223   0.96812   0.09463   0.00000  Uiso   1.00
H1129  H     0.97591   0.03021   0.14688   0.00000  Uiso   1.00
H1130  H     0.93607   0.02126   0.04084   0.00000  Uiso   1.00
H1131  H     0.90088   0.85626   0.09417   0.00000  Uiso   1.00
H1132  H     0.99885   0.09376   0.20793   0.00000  Uiso   1.00
H1133  H     0.24818   0.74154   0.65099   0.00000  Uiso   1.00
H1134  H     0.17398   0.39361   0.76346   0.00000  Uiso   1.00
H1135  H     0.40258   0.26060   0.45206   0.00000  Uiso   1.00
H1136  H     0.43548   0.32044   0.50564   0.00000  Uiso   1.00
H1137  H     0.39565   0.31150   0.39959   0.00000  Uiso   1.00
H1138  H     0.36046   0.14650   0.45292   0.00000  Uiso   1.00
H1139  H     0.83077   0.05878   0.22856   0.00000  Uiso   1.00
H1140  H     0.41343   0.37323   0.33829   0.00000  Uiso   1.00
H1141  H     0.33923   0.02530   0.45075   0.00000  Uiso   1.00
O1142  O     0.94000   0.11639   0.25305   0.00000  Uiso   1.00
O1143  O     0.16312   0.75827   0.62635   0.00000  Uiso   1.00
O1144  O     0.06577   0.30180   0.77390   0.00000  Uiso   1.00
N1145  N     0.95478   0.07730   0.20544   0.00000  Uiso   1.00
N1146  N     0.20957   0.72632   0.66305   0.00000  Uiso   1.00
N1147  N     0.14020   0.40104   0.76818   0.00000  Uiso   1.00
N1148  N     0.86433   0.05848   0.21654   0.00000  Uiso   1.00
N1149  N     0.45246   0.37417   0.34082   0.00000  Uiso   1.00
N1150  N     0.38309   0.04889   0.44595   0.00000  Uiso   1.00
C1151  C     0.89356   0.86399   0.62183   0.00000  Uiso   1.00
C1152  C     0.88543   0.83148   0.65380   0.00000  Uiso   1.00
C1153  C     0.92828   0.84749   0.67774   0.00000  Uiso   1.00
C1154  C     0.91212   0.81199   0.70521   0.00000  Uiso   1.00
C1155  C     0.24150   0.43571   0.42100   0.00000  Uiso   1.00
C1156  C     0.87889   0.81774   0.59536   0.00000  Uiso   1.00
C1157  C     0.91624   0.82222   0.57015   0.00000  Uiso   1.00
C1158  C     0.89457   0.77515   0.54841   0.00000  Uiso   1.00
C1159  C     0.88044   0.71091   0.50678   0.00000  Uiso   1.00
C1160  C     0.84448   0.88002   0.62059   0.00000  Uiso   1.00
C1161  C     0.85291   0.93685   0.61659   0.00000  Uiso   1.00
C1162  C     0.80227   0.94222   0.61609   0.00000  Uiso   1.00
C1163  C     0.73472   0.97467   0.61365   0.00000  Uiso   1.00
C1164  C     0.78865   0.77245   0.62805   0.00000  Uiso   1.00
C1165  C     0.82844   0.78176   0.65718   0.00000  Uiso   1.00
C1166  C     0.81220   0.74622   0.68462   0.00000  Uiso   1.00
C1167  C     0.18836   0.42884   0.37526   0.00000  Uiso   1.00
C1168  C     0.82190   0.76802   0.59873   0.00000  Uiso   1.00
C1169  C     0.80016   0.72094   0.57703   0.00000  Uiso   1.00
C1170  C     0.83748   0.72534   0.55179   0.00000  Uiso   1.00
C1171  C     0.78749   0.83030   0.62397   0.00000  Uiso   1.00
C1172  C     0.73683   0.83557   0.62347   0.00000  Uiso   1.00
C1173  C     0.74518   0.89241   0.61948   0.00000  Uiso   1.00
H1174  H     0.93793   0.90270   0.61920   0.00000  Uiso   1.00
H1175  H     0.97238   0.88597   0.67512   0.00000  Uiso   1.00
H1176  H     0.96034   0.86071   0.56754   0.00000  Uiso   1.00
H1177  H     0.89702   0.97532   0.61398   0.00000  Uiso   1.00
H1178  H     0.98545   0.84549   0.73859   0.00000  Uiso   1.00
H1179  H     0.96005   0.79222   0.51176   0.00000  Uiso   1.00
H1180  H     0.82652   0.03391   0.60968   0.00000  Uiso   1.00
H1181  H     0.74428   0.73374   0.63068   0.00000  Uiso   1.00
H1182  H     0.10143   0.37441   0.35389   0.00000  Uiso   1.00
H1183  H     0.75606   0.68247   0.57965   0.00000  Uiso   1.00
H1184  H     0.69274   0.79709   0.62609   0.00000  Uiso   1.00
H1185  H     0.15299   0.36749   0.41509   0.00000  Uiso   1.00
H1186  H     0.79425   0.64756   0.52158   0.00000  Uiso   1.00
H1187  H     0.66072   0.88925   0.61951   0.00000  Uiso   1.00
O1188  O     0.25506   0.42576   0.44716   0.00000  Uiso   1.00
O1189  O     0.88839   0.68921   0.48289   0.00000  Uiso   1.00
O1190  O     0.71321   0.00630   0.61137   0.00000  Uiso   1.00
N1191  N     0.94316   0.81502   0.73315   0.00000  Uiso   1.00
N1192  N     0.91941   0.76521   0.52107   0.00000  Uiso   1.00
N1193  N     0.79457   0.99117   0.61262   0.00000  Uiso   1.00
N1194  N     0.18728   0.40384   0.40510   0.00000  Uiso   1.00
N1195  N     0.83019   0.68737   0.52636   0.00000  Uiso   1.00
N1196  N     0.70536   0.91333   0.61790   0.00000  Uiso   1.00
C1197  C     0.55392   0.29209   0.43349   0.00000  Uiso   1.00
C1198  C     0.55043   0.32015   0.46522   0.00000  Uiso   1.00
C1199  C     0.59787   0.35424   0.48571   0.00000  Uiso   1.00
C1200  C     0.58548   0.37591   0.51358   0.00000  Uiso   1.00
C1201  C     0.58885   0.42134   0.56177   0.00000  Uiso   1.00
C1202  C     0.19545   0.64863   0.74094   0.00000  Uiso   1.00
C1203  C     0.22470   0.67863   0.71298   0.00000  Uiso   1.00
C1204  C     0.19409   0.69620   0.69235   0.00000  Uiso   1.00
C1205  C     0.83050   0.06739   0.98441   0.00000  Uiso   1.00
C1206  C     0.17634   0.55899   0.76992   0.00000  Uiso   1.00
C1207  C     0.18950   0.51361   0.76632   0.00000  Uiso   1.00
C1208  C     0.14280   0.45571   0.77009   0.00000  Uiso   1.00
C1209  C     0.08287   0.35437   0.77381   0.00000  Uiso   1.00
C1210  C     0.11423   0.60329   0.77987   0.00000  Uiso   1.00
C1211  C     0.15932   0.64147   0.80564   0.00000  Uiso   1.00
C1212  C     0.48019   0.32975   0.50015   0.00000  Uiso   1.00
C1213  C     0.52761   0.36386   0.52069   0.00000  Uiso   1.00
C1214  C     0.13768   0.63661   0.74803   0.00000  Uiso   1.00
C1215  C     0.10702   0.65414   0.72743   0.00000  Uiso   1.00
C1216  C     0.13621   0.68416   0.69946   0.00000  Uiso   1.00
C1217  C     0.11857   0.54697   0.77701   0.00000  Uiso   1.00
C1218  C     0.07183   0.48912   0.78077   0.00000  Uiso   1.00
C1219  C     0.08492   0.44366   0.77719   0.00000  Uiso   1.00
H1220  H     0.59890   0.30145   0.42796   0.00000  Uiso   1.00
H1221  H     0.64257   0.36354   0.48021   0.00000  Uiso   1.00
H1222  H     0.60273   0.35459   0.37417   0.00000  Uiso   1.00
H1223  H     0.56755   0.18960   0.42750   0.00000  Uiso   1.00
H1224  H     0.66552   0.42709   0.54126   0.00000  Uiso   1.00
H1225  H     0.91484   0.07487   0.98433   0.00000  Uiso   1.00
H1226  H     0.84064   0.72695   0.09679   0.00000  Uiso   1.00
H1227  H     0.06925   0.59393   0.78539   0.00000  Uiso   1.00
H1228  H     0.10215   0.65378   0.83897   0.00000  Uiso   1.00
H1229  H     0.06231   0.64483   0.73292   0.00000  Uiso   1.00
H1230  H     0.02713   0.47984   0.78626   0.00000  Uiso   1.00
H1231  H     0.49744   0.39212   0.56190   0.00000  Uiso   1.00
H1232  H     0.08010   0.70656   0.67162   0.00000  Uiso   1.00
H1233  H     0.00590   0.35864   0.78409   0.00000  Uiso   1.00
O1234  O     0.60667   0.44973   0.58638   0.00000  Uiso   1.00
O1235  O     0.82978   0.09160   0.95968   0.00000  Uiso   1.00
O1236  O     0.73244   0.63514   0.10724   0.00000  Uiso   1.00
N1237  N     0.62144   0.41064   0.53877   0.00000  Uiso   1.00
N1238  N     0.87624   0.05965   0.99638   0.00000  Uiso   1.00
N1239  N     0.80687   0.73437   0.10152   0.00000  Uiso   1.00
N1240  N     0.53100   0.39182   0.54987   0.00000  Uiso   1.00
N1241  N     0.11913   0.70750   0.67415   0.00000  Uiso   1.00
N1242  N     0.04976   0.38222   0.77929   0.00000  Uiso   1.00
C1243  C     0.56023   0.19733   0.95517   0.00000  Uiso   1.00
C1244  C     0.55209   0.16481   0.98714   0.00000  Uiso   1.00
C1245  C     0.59495   0.18083   0.01107   0.00000  Uiso   1.00
C1246  C     0.57879   0.14532   0.03854   0.00000  Uiso   1.00
C1247  C     0.90816   0.76905   0.75433   0.00000  Uiso   1.00
C1248  C     0.54555   0.15108   0.92869   0.00000  Uiso   1.00
C1249  C     0.58291   0.15555   0.90348   0.00000  Uiso   1.00
C1250  C     0.56123   0.10849   0.88175   0.00000  Uiso   1.00
C1251  C     0.54710   0.04425   0.84012   0.00000  Uiso   1.00
C1252  C     0.51115   0.21335   0.95393   0.00000  Uiso   1.00
C1253  C     0.51958   0.27019   0.94993   0.00000  Uiso   1.00
C1254  C     0.46893   0.27555   0.94943   0.00000  Uiso   1.00
C1255  C     0.40139   0.30800   0.94698   0.00000  Uiso   1.00
C1256  C     0.45531   0.10579   0.96138   0.00000  Uiso   1.00
C1257  C     0.49511   0.11509   0.99051   0.00000  Uiso   1.00
C1258  C     0.47887   0.07955   0.01795   0.00000  Uiso   1.00
C1259  C     0.85503   0.76218   0.70859   0.00000  Uiso   1.00
C1260  C     0.48857   0.10136   0.93207   0.00000  Uiso   1.00
C1261  C     0.46683   0.05428   0.91036   0.00000  Uiso   1.00
C1262  C     0.50414   0.05868   0.88513   0.00000  Uiso   1.00
C1263  C     0.45416   0.16363   0.95730   0.00000  Uiso   1.00
C1264  C     0.40350   0.16891   0.95681   0.00000  Uiso   1.00
C1265  C     0.41184   0.22574   0.95281   0.00000  Uiso   1.00
H1266  H     0.60460   0.23603   0.95253   0.00000  Uiso   1.00
H1267  H     0.63905   0.21931   0.00845   0.00000  Uiso   1.00
H1268  H     0.62700   0.19404   0.90087   0.00000  Uiso   1.00
H1269  H     0.56368   0.30865   0.94731   0.00000  Uiso   1.00
H1270  H     0.65212   0.17882   0.07193   0.00000  Uiso   1.00
H1271  H     0.62672   0.12555   0.84509   0.00000  Uiso   1.00
H1272  H     0.49319   0.36724   0.94302   0.00000  Uiso   1.00
H1273  H     0.41094   0.06707   0.96401   0.00000  Uiso   1.00
H1274  H     0.76810   0.70774   0.68722   0.00000  Uiso   1.00
H1275  H     0.42272   0.01581   0.91298   0.00000  Uiso   1.00
H1276  H     0.35940   0.13042   0.95942   0.00000  Uiso   1.00
H1277  H     0.81965   0.70083   0.74842   0.00000  Uiso   1.00
H1278  H     0.46091   0.98089   0.85491   0.00000  Uiso   1.00
H1279  H     0.32739   0.22258   0.95284   0.00000  Uiso   1.00
O1280  O     0.92173   0.75909   0.78049   0.00000  Uiso   1.00
O1281  O     0.55506   0.02255   0.81622   0.00000  Uiso   1.00
O1282  O     0.37988   0.33963   0.94470   0.00000  Uiso   1.00
N1283  N     0.60983   0.14835   0.06648   0.00000  Uiso   1.00
N1284  N     0.58608   0.09854   0.85441   0.00000  Uiso   1.00
N1285  N     0.46124   0.32450   0.94595   0.00000  Uiso   1.00
N1286  N     0.85394   0.73718   0.73844   0.00000  Uiso   1.00
N1287  N     0.49686   0.02070   0.85969   0.00000  Uiso   1.00
N1288  N     0.37202   0.24666   0.95124   0.00000  Uiso   1.00
C1289  C     0.22059   0.62542   0.76682   0.00000  Uiso   1.00
C1290  C     0.21709   0.65349   0.79855   0.00000  Uiso   1.00
C1291  C     0.26454   0.68757   0.81904   0.00000  Uiso   1.00
C1292  C     0.25215   0.70924   0.84692   0.00000  Uiso   1.00
C1293  C     0.25552   0.75467   0.89510   0.00000  Uiso   1.00
C1294  C     0.86212   0.98197   0.07427   0.00000  Uiso   1.00
C1295  C     0.89136   0.01196   0.04632   0.00000  Uiso   1.00
C1296  C     0.86075   0.02954   0.02569   0.00000  Uiso   1.00
C1297  C     0.49717   0.40073   0.31774   0.00000  Uiso   1.00
C1298  C     0.84300   0.89232   0.10325   0.00000  Uiso   1.00
C1299  C     0.85617   0.84694   0.09966   0.00000  Uiso   1.00
C1300  C     0.80946   0.78904   0.10342   0.00000  Uiso   1.00
C1301  C     0.74953   0.68771   0.10714   0.00000  Uiso   1.00
C1302  C     0.78090   0.93662   0.11321   0.00000  Uiso   1.00
C1303  C     0.82599   0.97480   0.13897   0.00000  Uiso   1.00
C1304  C     0.14686   0.66309   0.83349   0.00000  Uiso   1.00
C1305  C     0.19428   0.69720   0.85402   0.00000  Uiso   1.00
C1306  C     0.80435   0.96995   0.08136   0.00000  Uiso   1.00
C1307  C     0.77369   0.98748   0.06076   0.00000  Uiso   1.00
C1308  C     0.80288   0.01750   0.03279   0.00000  Uiso   1.00
C1309  C     0.78523   0.88030   0.11034   0.00000  Uiso   1.00
C1310  C     0.73849   0.82246   0.11410   0.00000  Uiso   1.00
C1311  C     0.75159   0.77700   0.11052   0.00000  Uiso   1.00
H1312  H     0.26557   0.63478   0.76130   0.00000  Uiso   1.00
H1313  H     0.30924   0.69687   0.81355   0.00000  Uiso   1.00
H1314  H     0.26940   0.68792   0.70750   0.00000  Uiso   1.00
H1315  H     0.23421   0.52293   0.76084   0.00000  Uiso   1.00
H1316  H     0.33218   0.76042   0.87460   0.00000  Uiso   1.00
H1317  H     0.58151   0.40820   0.31766   0.00000  Uiso   1.00
H1318  H     0.50731   0.06028   0.43012   0.00000  Uiso   1.00
H1319  H     0.73592   0.92726   0.11873   0.00000  Uiso   1.00
H1320  H     0.76882   0.98711   0.17230   0.00000  Uiso   1.00
H1321  H     0.72898   0.97816   0.06626   0.00000  Uiso   1.00
H1322  H     0.69379   0.81317   0.11959   0.00000  Uiso   1.00
H1323  H     0.16410   0.72545   0.89523   0.00000  Uiso   1.00
H1324  H     0.74676   0.03989   0.00496   0.00000  Uiso   1.00
H1325  H     0.67256   0.69197   0.11742   0.00000  Uiso   1.00
O1326  O     0.27333   0.78306   0.91972   0.00000  Uiso   1.00
O1327  O     0.49645   0.42493   0.29302   0.00000  Uiso   1.00
O1328  O     0.39910   0.96847   0.44057   0.00000  Uiso   1.00
N1329  N     0.28811   0.74397   0.87210   0.00000  Uiso   1.00
N1330  N     0.54291   0.39299   0.32971   0.00000  Uiso   1.00
N1331  N     0.47353   0.06771   0.43485   0.00000  Uiso   1.00
N1332  N     0.19767   0.72515   0.88321   0.00000  Uiso   1.00
N1333  N     0.78580   0.04083   0.00748   0.00000  Uiso   1.00
N1334  N     0.71642   0.71555   0.11262   0.00000  Uiso   1.00
C1335  C     0.22690   0.53066   0.28850   0.00000  Uiso   1.00
C1336  C     0.21876   0.49814   0.32047   0.00000  Uiso   1.00
C1337  C     0.26162   0.51416   0.34441   0.00000  Uiso   1.00
C1338  C     0.24545   0.47865   0.37187   0.00000  Uiso   1.00
C1339  C     0.57483   0.10238   0.08766   0.00000  Uiso   1.00
C1340  C     0.21222   0.48441   0.26202   0.00000  Uiso   1.00
C1341  C     0.24958   0.48889   0.23682   0.00000  Uiso   1.00
C1342  C     0.22790   0.44182   0.21508   0.00000  Uiso   1.00
C1343  C     0.21377   0.37758   0.17345   0.00000  Uiso   1.00
C1344  C     0.17782   0.54669   0.28726   0.00000  Uiso   1.00
C1345  C     0.18624   0.60352   0.28326   0.00000  Uiso   1.00
C1346  C     0.13560   0.60888   0.28276   0.00000  Uiso   1.00
C1347  C     0.06806   0.64133   0.28031   0.00000  Uiso   1.00
C1348  C     0.12198   0.43912   0.29471   0.00000  Uiso   1.00
C1349  C     0.16177   0.44842   0.32385   0.00000  Uiso   1.00
C1350  C     0.14554   0.41288   0.35128   0.00000  Uiso   1.00
C1351  C     0.52170   0.09551   0.04192   0.00000  Uiso   1.00
C1352  C     0.15523   0.43469   0.26540   0.00000  Uiso   1.00
C1353  C     0.13350   0.38761   0.24369   0.00000  Uiso   1.00
C1354  C     0.17081   0.39201   0.21846   0.00000  Uiso   1.00
C1355  C     0.12083   0.49697   0.29064   0.00000  Uiso   1.00
C1356  C     0.07016   0.50224   0.29014   0.00000  Uiso   1.00
C1357  C     0.07851   0.55907   0.28614   0.00000  Uiso   1.00
H1358  H     0.27126   0.56937   0.28587   0.00000  Uiso   1.00
H1359  H     0.30572   0.55264   0.34178   0.00000  Uiso   1.00
H1360  H     0.29367   0.52737   0.23421   0.00000  Uiso   1.00
H1361  H     0.23035   0.64199   0.28065   0.00000  Uiso   1.00
H1362  H     0.31879   0.51215   0.40526   0.00000  Uiso   1.00
H1363  H     0.29338   0.45889   0.17842   0.00000  Uiso   1.00
H1364  H     0.15986   0.70057   0.27635   0.00000  Uiso   1.00
H1365  H     0.07761   0.40041   0.29734   0.00000  Uiso   1.00
H1366  H     0.43477   0.04107   0.02056   0.00000  Uiso   1.00
H1367  H     0.08939   0.34914   0.24631   0.00000  Uiso   1.00
H1368  H     0.02607   0.46376   0.29275   0.00000  Uiso   1.00
H1369  H     0.48632   0.03416   0.08175   0.00000  Uiso   1.00
H1370  H     0.12758   0.31423   0.18825   0.00000  Uiso   1.00
H1371  H     0.99405   0.55591   0.28618   0.00000  Uiso   1.00
O1372  O     0.58839   0.09242   0.11383   0.00000  Uiso   1.00
O1373  O     0.22173   0.35588   0.14956   0.00000  Uiso   1.00
O1374  O     0.04654   0.67297   0.27803   0.00000  Uiso   1.00
N1375  N     0.27649   0.48168   0.39981   0.00000  Uiso   1.00
N1376  N     0.25274   0.43188   0.18774   0.00000  Uiso   1.00
N1377  N     0.12791   0.65783   0.27928   0.00000  Uiso   1.00
N1378  N     0.52061   0.07051   0.07177   0.00000  Uiso   1.00
N1379  N     0.16353   0.35404   0.19303   0.00000  Uiso   1.00
N1380  N     0.03869   0.57999   0.28457   0.00000  Uiso   1.00
C1381  C     0.04124   0.92850   0.10015   0.00000  Uiso   1.00
C1382  C     0.01318   0.89694   0.13188   0.00000  Uiso   1.00
C1383  C     0.97909   0.91030   0.15238   0.00000  Uiso   1.00
C1384  C     0.95742   0.87624   0.18025   0.00000  Uiso   1.00
C1385  C     0.91199   0.83418   0.22843   0.00000  Uiso   1.00
C1386  C     0.68470   0.21349   0.40760   0.00000  Uiso   1.00
C1387  C     0.65470   0.21273   0.37965   0.00000  Uiso   1.00
C1388  C     0.63713   0.16455   0.35902   0.00000  Uiso   1.00
C1389  C     0.26594   0.42978   0.65108   0.00000  Uiso   1.00
C1390  C     0.77434   0.28401   0.43658   0.00000  Uiso   1.00
C1391  C     0.81973   0.34256   0.43299   0.00000  Uiso   1.00
C1392  C     0.87763   0.35376   0.43675   0.00000  Uiso   1.00
C1393  C     0.97896   0.39516   0.44047   0.00000  Uiso   1.00
C1394  C     0.73004   0.17761   0.44654   0.00000  Uiso   1.00
C1395  C     0.69187   0.18452   0.47231   0.00000  Uiso   1.00
C1396  C     0.00358   0.81711   0.16682   0.00000  Uiso   1.00
C1397  C     0.96947   0.83041   0.18735   0.00000  Uiso   1.00
C1398  C     0.69672   0.16774   0.41469   0.00000  Uiso   1.00
C1399  C     0.67919   0.11955   0.39410   0.00000  Uiso   1.00
C1400  C     0.64917   0.11872   0.36612   0.00000  Uiso   1.00
C1401  C     0.78637   0.23827   0.44367   0.00000  Uiso   1.00
C1402  C     0.84421   0.24937   0.44744   0.00000  Uiso   1.00
C1403  C     0.88967   0.30792   0.44385   0.00000  Uiso   1.00
H1404  H     0.03188   0.96411   0.09463   0.00000  Uiso   1.00
H1405  H     0.96979   0.94570   0.14688   0.00000  Uiso   1.00
H1406  H     0.97874   0.91481   0.04084   0.00000  Uiso   1.00
H1407  H     0.14374   0.04462   0.09417   0.00000  Uiso   1.00
H1408  H     0.90624   0.90509   0.20793   0.00000  Uiso   1.00
H1409  H     0.25846   0.50664   0.65099   0.00000  Uiso   1.00
H1410  H     0.60639   0.78037   0.76346   0.00000  Uiso   1.00
H1411  H     0.73940   0.14199   0.45206   0.00000  Uiso   1.00
H1412  H     0.67956   0.11504   0.50564   0.00000  Uiso   1.00
H1413  H     0.68850   0.08415   0.39959   0.00000  Uiso   1.00
H1414  H     0.85350   0.21396   0.45292   0.00000  Uiso   1.00
H1415  H     0.94122   0.77199   0.22856   0.00000  Uiso   1.00
H1416  H     0.62677   0.04020   0.33829   0.00000  Uiso   1.00
H1417  H     0.97470   0.31393   0.45075   0.00000  Uiso   1.00
O1418  O     0.88361   0.82361   0.25305   0.00000  Uiso   1.00
O1419  O     0.24173   0.40485   0.62635   0.00000  Uiso   1.00
O1420  O     0.69820   0.76397   0.77390   0.00000  Uiso   1.00
N1421  N     0.92270   0.87747   0.20544   0.00000  Uiso   1.00
N1422  N     0.27368   0.48325   0.66305   0.00000  Uiso   1.00
N1423  N     0.59896   0.73916   0.76818   0.00000  Uiso   1.00
N1424  N     0.94152   0.80585   0.21654   0.00000  Uiso   1.00
N1425  N     0.62583   0.07830   0.34082   0.00000  Uiso   1.00
N1426  N     0.95111   0.33420   0.44595   0.00000  Uiso   1.00
C1427  C     0.13601   0.02957   0.62183   0.00000  Uiso   1.00
C1428  C     0.16852   0.05395   0.65380   0.00000  Uiso   1.00
C1429  C     0.15251   0.08079   0.67774   0.00000  Uiso   1.00
C1430  C     0.18801   0.10013   0.70521   0.00000  Uiso   1.00
C1431  C     0.56429   0.80578   0.42100   0.00000  Uiso   1.00
C1432  C     0.18226   0.06114   0.59536   0.00000  Uiso   1.00
C1433  C     0.17778   0.09402   0.57015   0.00000  Uiso   1.00
C1434  C     0.22485   0.11941   0.54841   0.00000  Uiso   1.00
C1435  C     0.28909   0.16952   0.50678   0.00000  Uiso   1.00
C1436  C     0.11998   0.96446   0.62059   0.00000  Uiso   1.00
C1437  C     0.06315   0.91606   0.61659   0.00000  Uiso   1.00
C1438  C     0.05778   0.86005   0.61609   0.00000  Uiso   1.00
C1439  C     0.02533   0.76006   0.61365   0.00000  Uiso   1.00
C1440  C     0.22755   0.01619   0.62805   0.00000  Uiso   1.00
C1441  C     0.21824   0.04668   0.65718   0.00000  Uiso   1.00
C1442  C     0.25378   0.06599   0.68462   0.00000  Uiso   1.00
C1443  C     0.57116   0.75952   0.37526   0.00000  Uiso   1.00
C1444  C     0.23198   0.05388   0.59873   0.00000  Uiso   1.00
C1445  C     0.27906   0.07922   0.57703   0.00000  Uiso   1.00
C1446  C     0.27466   0.11213   0.55179   0.00000  Uiso   1.00
C1447  C     0.16970   0.95720   0.62397   0.00000  Uiso   1.00
C1448  C     0.16443   0.90125   0.62347   0.00000  Uiso   1.00
C1449  C     0.10759   0.85277   0.61948   0.00000  Uiso   1.00
H1450  H     0.09730   0.03523   0.61920   0.00000  Uiso   1.00
H1451  H     0.11403   0.08641   0.67512   0.00000  Uiso   1.00
H1452  H     0.13929   0.09963   0.56754   0.00000  Uiso   1.00
H1453  H     0.02468   0.92170   0.61398   0.00000  Uiso   1.00
H1454  H     0.15451   0.13997   0.73859   0.00000  Uiso   1.00
H1455  H     0.20778   0.16783   0.51176   0.00000  Uiso   1.00
H1456  H     0.96609   0.79261   0.60968   0.00000  Uiso   1.00
H1457  H     0.26626   0.01054   0.63068   0.00000  Uiso   1.00
H1458  H     0.62559   0.72703   0.35389   0.00000  Uiso   1.00
H1459  H     0.31753   0.07358   0.57965   0.00000  Uiso   1.00
H1460  H     0.20291   0.89565   0.62609   0.00000  Uiso   1.00
H1461  H     0.63251   0.78549   0.41509   0.00000  Uiso   1.00
H1462  H     0.35244   0.14669   0.52158   0.00000  Uiso   1.00
H1463  H     0.11075   0.77147   0.61951   0.00000  Uiso   1.00
O1464  O     0.57424   0.82930   0.44716   0.00000  Uiso   1.00
O1465  O     0.31079   0.19918   0.48289   0.00000  Uiso   1.00
O1466  O     0.99370   0.70691   0.61137   0.00000  Uiso   1.00
N1467  N     0.18498   0.12814   0.73315   0.00000  Uiso   1.00
N1468  N     0.23479   0.15420   0.52107   0.00000  Uiso   1.00
N1469  N     0.00883   0.80341   0.61262   0.00000  Uiso   1.00
N1470  N     0.59616   0.78343   0.40510   0.00000  Uiso   1.00
N1471  N     0.31263   0.14282   0.52636   0.00000  Uiso   1.00
N1472  N     0.08667   0.79203   0.61790   0.00000  Uiso   1.00
C1473  C     0.70791   0.26183   0.43349   0.00000  Uiso   1.00
C1474  C     0.67985   0.23027   0.46522   0.00000  Uiso   1.00
C1475  C     0.64576   0.24363   0.48571   0.00000  Uiso   1.00
C1476  C     0.62409   0.20957   0.51358   0.00000  Uiso   1.00
C1477  C     0.57866   0.16751   0.56177   0.00000  Uiso   1.00
C1478  C     0.35137   0.54682   0.74094   0.00000  Uiso   1.00
C1479  C     0.32137   0.54607   0.71298   0.00000  Uiso   1.00
C1480  C     0.30380   0.49788   0.69235   0.00000  Uiso   1.00
C1481  C     0.93261   0.76311   0.98441   0.00000  Uiso   1.00
C1482  C     0.44101   0.61735   0.76992   0.00000  Uiso   1.00
C1483  C     0.48639   0.67589   0.76632   0.00000  Uiso   1.00
C1484  C     0.54429   0.68709   0.77009   0.00000  Uiso   1.00
C1485  C     0.64563   0.72849   0.77381   0.00000  Uiso   1.00
C1486  C     0.39671   0.51094   0.77987   0.00000  Uiso   1.00
C1487  C     0.35853   0.51786   0.80564   0.00000  Uiso   1.00
C1488  C     0.67025   0.15044   0.50015   0.00000  Uiso   1.00
C1489  C     0.63614   0.16374   0.52069   0.00000  Uiso   1.00
C1490  C     0.36339   0.50107   0.74803   0.00000  Uiso   1.00
C1491  C     0.34586   0.45288   0.72743   0.00000  Uiso   1.00
C1492  C     0.31584   0.45205   0.69946   0.00000  Uiso   1.00
C1493  C     0.45303   0.57160   0.77701   0.00000  Uiso   1.00
C1494  C     0.51088   0.58270   0.78077   0.00000  Uiso   1.00
C1495  C     0.55634   0.64126   0.77719   0.00000  Uiso   1.00
H1496  H     0.69855   0.29745   0.42796   0.00000  Uiso   1.00
H1497  H     0.63646   0.27903   0.48021   0.00000  Uiso   1.00
H1498  H     0.64541   0.24815   0.37417   0.00000  Uiso   1.00
H1499  H     0.81040   0.37795   0.42750   0.00000  Uiso   1.00
H1500  H     0.57291   0.23843   0.54126   0.00000  Uiso   1.00
H1501  H     0.92513   0.83998   0.98433   0.00000  Uiso   1.00
H1502  H     0.27305   0.11370   0.09679   0.00000  Uiso   1.00
H1503  H     0.40607   0.47532   0.78539   0.00000  Uiso   1.00
H1504  H     0.34622   0.44837   0.83897   0.00000  Uiso   1.00
H1505  H     0.35517   0.41749   0.73292   0.00000  Uiso   1.00
H1506  H     0.52016   0.54729   0.78626   0.00000  Uiso   1.00
H1507  H     0.60788   0.10532   0.56190   0.00000  Uiso   1.00
H1508  H     0.29344   0.37354   0.67162   0.00000  Uiso   1.00
H1509  H     0.64136   0.64726   0.78409   0.00000  Uiso   1.00
O1510  O     0.55027   0.15694   0.58638   0.00000  Uiso   1.00
O1511  O     0.90840   0.73818   0.95968   0.00000  Uiso   1.00
O1512  O     0.36486   0.09730   0.10724   0.00000  Uiso   1.00
N1513  N     0.58936   0.21081   0.53877   0.00000  Uiso   1.00
N1514  N     0.94035   0.81659   0.99638   0.00000  Uiso   1.00
N1515  N     0.26563   0.07249   0.10152   0.00000  Uiso   1.00
N1516  N     0.60818   0.13918   0.54987   0.00000  Uiso   1.00
N1517  N     0.29250   0.41163   0.67415   0.00000  Uiso   1.00
N1518  N     0.61778   0.66754   0.77929   0.00000  Uiso   1.00
C1519  C     0.80267   0.36291   0.95517   0.00000  Uiso   1.00
C1520  C     0.83519   0.38728   0.98714   0.00000  Uiso   1.00
C1521  C     0.81917   0.41412   0.01107   0.00000  Uiso   1.00
C1522  C     0.85468   0.43347   0.03854   0.00000  Uiso   1.00
C1523  C     0.23095   0.13912   0.75433   0.00000  Uiso   1.00
C1524  C     0.84892   0.39447   0.92869   0.00000  Uiso   1.00
C1525  C     0.84445   0.42735   0.90348   0.00000  Uiso   1.00
C1526  C     0.89151   0.45274   0.88175   0.00000  Uiso   1.00
C1527  C     0.95575   0.50286   0.84012   0.00000  Uiso   1.00
C1528  C     0.78665   0.29780   0.95393   0.00000  Uiso   1.00
C1529  C     0.72981   0.24939   0.94993   0.00000  Uiso   1.00
C1530  C     0.72445   0.19338   0.94943   0.00000  Uiso   1.00
C1531  C     0.69200   0.09339   0.94698   0.00000  Uiso   1.00
C1532  C     0.89421   0.34953   0.96138   0.00000  Uiso   1.00
C1533  C     0.88491   0.38002   0.99051   0.00000  Uiso   1.00
C1534  C     0.92045   0.39932   0.01795   0.00000  Uiso   1.00
C1535  C     0.23782   0.09285   0.70859   0.00000  Uiso   1.00
C1536  C     0.89864   0.38721   0.93207   0.00000  Uiso   1.00
C1537  C     0.94572   0.41255   0.91036   0.00000  Uiso   1.00
C1538  C     0.94132   0.44546   0.88513   0.00000  Uiso   1.00
C1539  C     0.83637   0.29053   0.95730   0.00000  Uiso   1.00
C1540  C     0.83109   0.23459   0.95681   0.00000  Uiso   1.00
C1541  C     0.77426   0.18610   0.95281   0.00000  Uiso   1.00
H1542  H     0.76397   0.36857   0.95253   0.00000  Uiso   1.00
H1543  H     0.78069   0.41974   0.00845   0.00000  Uiso   1.00
H1544  H     0.80596   0.43297   0.90087   0.00000  Uiso   1.00
H1545  H     0.69135   0.25503   0.94731   0.00000  Uiso   1.00
H1546  H     0.82118   0.47330   0.07193   0.00000  Uiso   1.00
H1547  H     0.87445   0.50116   0.84509   0.00000  Uiso   1.00
H1548  H     0.63276   0.12595   0.94302   0.00000  Uiso   1.00
H1549  H     0.93293   0.34387   0.96401   0.00000  Uiso   1.00
H1550  H     0.29226   0.06036   0.68722   0.00000  Uiso   1.00
H1551  H     0.98419   0.40692   0.91298   0.00000  Uiso   1.00
H1552  H     0.86958   0.22898   0.95942   0.00000  Uiso   1.00
H1553  H     0.29917   0.11883   0.74842   0.00000  Uiso   1.00
H1554  H     0.01911   0.48002   0.85491   0.00000  Uiso   1.00
H1555  H     0.77742   0.10481   0.95284   0.00000  Uiso   1.00
O1556  O     0.24091   0.16264   0.78049   0.00000  Uiso   1.00
O1557  O     0.97745   0.53251   0.81622   0.00000  Uiso   1.00
O1558  O     0.66037   0.04024   0.94470   0.00000  Uiso   1.00
N1559  N     0.85165   0.46148   0.06648   0.00000  Uiso   1.00
N1560  N     0.90146   0.48753   0.85441   0.00000  Uiso   1.00
N1561  N     0.67550   0.13674   0.94595   0.00000  Uiso   1.00
N1562  N     0.26282   0.11677   0.73844   0.00000  Uiso   1.00
N1563  N     0.97930   0.47616   0.85969   0.00000  Uiso   1.00
N1564  N     0.75334   0.12536   0.95124   0.00000  Uiso   1.00
C1565  C     0.37458   0.59517   0.76682   0.00000  Uiso   1.00
C1566  C     0.34651   0.56361   0.79855   0.00000  Uiso   1.00
C1567  C     0.31243   0.57696   0.81904   0.00000  Uiso   1.00
C1568  C     0.29076   0.54291   0.84692   0.00000  Uiso   1.00
C1569  C     0.24533   0.50084   0.89510   0.00000  Uiso   1.00
C1570  C     0.01803   0.88015   0.07427   0.00000  Uiso   1.00
C1571  C     0.98804   0.87940   0.04632   0.00000  Uiso   1.00
C1572  C     0.97046   0.83122   0.02569   0.00000  Uiso   1.00
C1573  C     0.59927   0.09644   0.31774   0.00000  Uiso   1.00
C1574  C     0.10768   0.95068   0.10325   0.00000  Uiso   1.00
C1575  C     0.15306   0.00923   0.09966   0.00000  Uiso   1.00
C1576  C     0.21096   0.02042   0.10342   0.00000  Uiso   1.00
C1577  C     0.31229   0.06182   0.10714   0.00000  Uiso   1.00
C1578  C     0.06338   0.84427   0.11321   0.00000  Uiso   1.00
C1579  C     0.02520   0.85119   0.13897   0.00000  Uiso   1.00
C1580  C     0.33691   0.48377   0.83349   0.00000  Uiso   1.00
C1581  C     0.30280   0.49708   0.85402   0.00000  Uiso   1.00
C1582  C     0.03005   0.83440   0.08136   0.00000  Uiso   1.00
C1583  C     0.01252   0.78621   0.06076   0.00000  Uiso   1.00
C1584  C     0.98250   0.78538   0.03279   0.00000  Uiso   1.00
C1585  C     0.11970   0.90493   0.11034   0.00000  Uiso   1.00
C1586  C     0.17754   0.91604   0.11410   0.00000  Uiso   1.00
C1587  C     0.22300   0.97459   0.11052   0.00000  Uiso   1.00
H1588  H     0.36522   0.63078   0.76130   0.00000  Uiso   1.00
H1589  H     0.30313   0.61237   0.81355   0.00000  Uiso   1.00
H1590  H     0.31208   0.58148   0.70750   0.00000  Uiso   1.00
H1591  H     0.47707   0.71128   0.76084   0.00000  Uiso   1.00
H1592  H     0.23958   0.57176   0.87460   0.00000  Uiso   1.00
H1593  H     0.59180   0.17331   0.31766   0.00000  Uiso   1.00
H1594  H     0.93972   0.44703   0.43012   0.00000  Uiso   1.00
H1595  H     0.07274   0.80865   0.11873   0.00000  Uiso   1.00
H1596  H     0.01289   0.78171   0.17230   0.00000  Uiso   1.00
H1597  H     0.02184   0.75082   0.06626   0.00000  Uiso   1.00
H1598  H     0.18683   0.88062   0.11959   0.00000  Uiso   1.00
H1599  H     0.27455   0.43866   0.89523   0.00000  Uiso   1.00
H1600  H     0.96011   0.70687   0.00496   0.00000  Uiso   1.00
H1601  H     0.30803   0.98059   0.11742   0.00000  Uiso   1.00
O1602  O     0.21694   0.49027   0.91972   0.00000  Uiso   1.00
O1603  O     0.57507   0.07152   0.29302   0.00000  Uiso   1.00
O1604  O     0.03153   0.43063   0.44057   0.00000  Uiso   1.00
N1605  N     0.25603   0.54414   0.87210   0.00000  Uiso   1.00
N1606  N     0.60701   0.14992   0.32971   0.00000  Uiso   1.00
N1607  N     0.93229   0.40583   0.43485   0.00000  Uiso   1.00
N1608  N     0.27485   0.47252   0.88321   0.00000  Uiso   1.00
N1609  N     0.95917   0.74496   0.00748   0.00000  Uiso   1.00
N1610  N     0.28445   0.00087   0.11262   0.00000  Uiso   1.00
C1611  C     0.46934   0.69624   0.28850   0.00000  Uiso   1.00
C1612  C     0.50186   0.72062   0.32047   0.00000  Uiso   1.00
C1613  C     0.48584   0.74746   0.34441   0.00000  Uiso   1.00
C1614  C     0.52135   0.76680   0.37187   0.00000  Uiso   1.00
C1615  C     0.89762   0.47245   0.08766   0.00000  Uiso   1.00
C1616  C     0.51559   0.72781   0.26202   0.00000  Uiso   1.00
C1617  C     0.51111   0.76069   0.23682   0.00000  Uiso   1.00
C1618  C     0.55818   0.78608   0.21508   0.00000  Uiso   1.00
C1619  C     0.62242   0.83619   0.17345   0.00000  Uiso   1.00
C1620  C     0.45331   0.63113   0.28726   0.00000  Uiso   1.00
C1621  C     0.39648   0.58272   0.28326   0.00000  Uiso   1.00
C1622  C     0.39112   0.52672   0.28276   0.00000  Uiso   1.00
C1623  C     0.35867   0.42672   0.28031   0.00000  Uiso   1.00
C1624  C     0.56088   0.68286   0.29471   0.00000  Uiso   1.00
C1625  C     0.55158   0.71335   0.32385   0.00000  Uiso   1.00
C1626  C     0.58712   0.73266   0.35128   0.00000  Uiso   1.00
C1627  C     0.90449   0.42619   0.04192   0.00000  Uiso   1.00
C1628  C     0.56531   0.72054   0.26540   0.00000  Uiso   1.00
C1629  C     0.61239   0.74589   0.24369   0.00000  Uiso   1.00
C1630  C     0.60799   0.77880   0.21846   0.00000  Uiso   1.00
C1631  C     0.50303   0.62386   0.29064   0.00000  Uiso   1.00
C1632  C     0.49776   0.56792   0.29014   0.00000  Uiso   1.00
C1633  C     0.44093   0.51944   0.28614   0.00000  Uiso   1.00
H1634  H     0.43063   0.70190   0.28587   0.00000  Uiso   1.00
H1635  H     0.44736   0.75308   0.34178   0.00000  Uiso   1.00
H1636  H     0.47263   0.76630   0.23421   0.00000  Uiso   1.00
H1637  H     0.35801   0.58836   0.28065   0.00000  Uiso   1.00
H1638  H     0.48785   0.80663   0.40526   0.00000  Uiso   1.00
H1639  H     0.54111   0.83450   0.17842   0.00000  Uiso   1.00
H1640  H     0.29943   0.45928   0.27635   0.00000  Uiso   1.00
H1641  H     0.59959   0.67720   0.29734   0.00000  Uiso   1.00
H1642  H     0.95893   0.39369   0.02056   0.00000  Uiso   1.00
H1643  H     0.65086   0.74025   0.24631   0.00000  Uiso   1.00
H1644  H     0.53624   0.56231   0.29275   0.00000  Uiso   1.00
H1645  H     0.96584   0.45216   0.08175   0.00000  Uiso   1.00
H1646  H     0.68577   0.81335   0.18825   0.00000  Uiso   1.00
H1647  H     0.44409   0.43814   0.28618   0.00000  Uiso   1.00
O1648  O     0.90758   0.49597   0.11383   0.00000  Uiso   1.00
O1649  O     0.64412   0.86584   0.14956   0.00000  Uiso   1.00
O1650  O     0.32703   0.37358   0.27803   0.00000  Uiso   1.00
N1651  N     0.51832   0.79481   0.39981   0.00000  Uiso   1.00
N1652  N     0.56812   0.82087   0.18774   0.00000  Uiso   1.00
N1653  N     0.34217   0.47007   0.27928   0.00000  Uiso   1.00
N1654  N     0.92949   0.45010   0.07177   0.00000  Uiso   1.00
N1655  N     0.64596   0.80949   0.19303   0.00000  Uiso   1.00
N1656  N     0.42001   0.45870   0.28457   0.00000  Uiso   1.00
