data_job_02756
_audit_creation_date              2018-12-19
_audit_creation_method            'Materials Studio'
_symmetry_space_group_name_H-M    'P1'
_symmetry_Int_Tables_number       1
_symmetry_cell_setting            triclinic
loop_
_symmetry_equiv_pos_as_xyz
  x,y,z
_cell_length_a                    31.2337
_cell_length_b                    31.2337
_cell_length_c                    11.8605
_cell_angle_alpha                 90.0000
_cell_angle_beta                  90.0000
_cell_angle_gamma                 90.0000
loop_
_atom_site_label
_atom_site_type_symbol
_atom_site_fract_x
_atom_site_fract_y
_atom_site_fract_z
_atom_site_U_iso_or_equiv
_atom_site_adp_type
_atom_site_occupancy
C1     C     0.29230   0.58386   0.84214   0.00000  Uiso   1.00
C2     C     0.29499   0.57005   0.71902   0.00000  Uiso   1.00
C3     C     0.29233   0.52828   0.67975   0.00000  Uiso   1.00
C4     C     0.29553   0.52230   0.56406   0.00000  Uiso   1.00
C5     C     0.29887   0.49559   0.38411   0.00000  Uiso   1.00
C6     C     0.33321   0.60893   0.86592   0.00000  Uiso   1.00
C7     C     0.36268   0.59985   0.95018   0.00000  Uiso   1.00
C8     C     0.39804   0.62661   0.95816   0.00000  Uiso   1.00
C9     C     0.46070   0.66029   0.00632   0.00000  Uiso   1.00
C10    C     0.25583   0.61623   0.84852   0.00000  Uiso   1.00
C11    C     0.22025   0.61330   0.91816   0.00000  Uiso   1.00
C12    C     0.19047   0.64622   0.91151   0.00000  Uiso   1.00
C13    C     0.13300   0.69123   0.93265   0.00000  Uiso   1.00
C14    C     0.30271   0.64753   0.70650   0.00000  Uiso   1.00
C15    C     0.30065   0.60463   0.64535   0.00000  Uiso   1.00
C16    C     0.30385   0.59871   0.52969   0.00000  Uiso   1.00
C17    C     0.30119   0.55694   0.49026   0.00000  Uiso   1.00
C18    C     0.33886   0.64351   0.79226   0.00000  Uiso   1.00
C19    C     0.37419   0.67029   0.80012   0.00000  Uiso   1.00
C20    C     0.40371   0.66126   0.88436   0.00000  Uiso   1.00
C21    C     0.26148   0.65081   0.77485   0.00000  Uiso   1.00
C22    C     0.23176   0.68374   0.76809   0.00000  Uiso   1.00
C23    C     0.19614   0.68086   0.83771   0.00000  Uiso   1.00
H24    H     0.28790   0.55694   0.89949   0.00000  Uiso   1.00
H25    H     0.28796   0.50152   0.73679   0.00000  Uiso   1.00
H26    H     0.35829   0.57309   0.00718   0.00000  Uiso   1.00
H27    H     0.21588   0.58654   0.97516   0.00000  Uiso   1.00
H28    H     0.29054   0.45533   0.52392   0.00000  Uiso   1.00
H29    H     0.43882   0.60625   0.09408   0.00000  Uiso   1.00
H30    H     0.13853   0.63460   0.02657   0.00000  Uiso   1.00
H31    H     0.30711   0.67445   0.64915   0.00000  Uiso   1.00
H32    H     0.30822   0.62548   0.47270   0.00000  Uiso   1.00
H33    H     0.37856   0.69705   0.74310   0.00000  Uiso   1.00
H34    H     0.23615   0.71050   0.71107   0.00000  Uiso   1.00
H35    H     0.30699   0.55594   0.30958   0.00000  Uiso   1.00
H36    H     0.45527   0.70686   0.87974   0.00000  Uiso   1.00
H37    H     0.15498   0.73521   0.81222   0.00000  Uiso   1.00
O38    O     0.29916   0.47130   0.30520   0.00000  Uiso   1.00
O39    O     0.49370   0.66931   0.05324   0.00000  Uiso   1.00
O40    O     0.09973   0.70650   0.96465   0.00000  Uiso   1.00
N41    N     0.29425   0.48573   0.49769   0.00000  Uiso   1.00
N42    N     0.43289   0.62683   0.03074   0.00000  Uiso   1.00
N43    N     0.15215   0.65334   0.96764   0.00000  Uiso   1.00
N44    N     0.30310   0.53987   0.38235   0.00000  Uiso   1.00
N45    N     0.44174   0.68096   0.91540   0.00000  Uiso   1.00
N46    N     0.16100   0.70748   0.85230   0.00000  Uiso   1.00
C47    C     0.79230   0.08386   0.34214   0.00000  Uiso   1.00
C48    C     0.79499   0.07005   0.21902   0.00000  Uiso   1.00
C49    C     0.79233   0.02828   0.17975   0.00000  Uiso   1.00
C50    C     0.79553   0.02230   0.06406   0.00000  Uiso   1.00
C51    C     0.79887   0.99559   0.88411   0.00000  Uiso   1.00
C52    C     0.83321   0.10893   0.36592   0.00000  Uiso   1.00
C53    C     0.86268   0.09985   0.45018   0.00000  Uiso   1.00
C54    C     0.89804   0.12661   0.45816   0.00000  Uiso   1.00
C55    C     0.96070   0.16029   0.50632   0.00000  Uiso   1.00
C56    C     0.75583   0.11623   0.34852   0.00000  Uiso   1.00
C57    C     0.72025   0.11330   0.41816   0.00000  Uiso   1.00
C58    C     0.69047   0.14622   0.41151   0.00000  Uiso   1.00
C59    C     0.63300   0.19123   0.43265   0.00000  Uiso   1.00
C60    C     0.80271   0.14753   0.20650   0.00000  Uiso   1.00
C61    C     0.80065   0.10463   0.14535   0.00000  Uiso   1.00
C62    C     0.80385   0.09871   0.02969   0.00000  Uiso   1.00
C63    C     0.80119   0.05694   0.99026   0.00000  Uiso   1.00
C64    C     0.83886   0.14351   0.29226   0.00000  Uiso   1.00
C65    C     0.87419   0.17029   0.30012   0.00000  Uiso   1.00
C66    C     0.90371   0.16126   0.38436   0.00000  Uiso   1.00
C67    C     0.76148   0.15081   0.27485   0.00000  Uiso   1.00
C68    C     0.73176   0.18374   0.26809   0.00000  Uiso   1.00
C69    C     0.69614   0.18086   0.33771   0.00000  Uiso   1.00
H70    H     0.78790   0.05694   0.39949   0.00000  Uiso   1.00
H71    H     0.78796   0.00152   0.23679   0.00000  Uiso   1.00
H72    H     0.85829   0.07309   0.50718   0.00000  Uiso   1.00
H73    H     0.71588   0.08654   0.47516   0.00000  Uiso   1.00
H74    H     0.79054   0.95533   0.02392   0.00000  Uiso   1.00
H75    H     0.93882   0.10625   0.59408   0.00000  Uiso   1.00
H76    H     0.63853   0.13460   0.52657   0.00000  Uiso   1.00
H77    H     0.80711   0.17445   0.14915   0.00000  Uiso   1.00
H78    H     0.80822   0.12548   0.97270   0.00000  Uiso   1.00
H79    H     0.87856   0.19705   0.24310   0.00000  Uiso   1.00
H80    H     0.73615   0.21050   0.21107   0.00000  Uiso   1.00
H81    H     0.80699   0.05594   0.80958   0.00000  Uiso   1.00
H82    H     0.95527   0.20686   0.37974   0.00000  Uiso   1.00
H83    H     0.65498   0.23521   0.31222   0.00000  Uiso   1.00
O84    O     0.79916   0.97130   0.80520   0.00000  Uiso   1.00
O85    O     0.99370   0.16931   0.55324   0.00000  Uiso   1.00
O86    O     0.59973   0.20650   0.46465   0.00000  Uiso   1.00
N87    N     0.79425   0.98573   0.99769   0.00000  Uiso   1.00
N88    N     0.93289   0.12683   0.53074   0.00000  Uiso   1.00
N89    N     0.65215   0.15334   0.46764   0.00000  Uiso   1.00
N90    N     0.80310   0.03987   0.88235   0.00000  Uiso   1.00
N91    N     0.94174   0.18096   0.41540   0.00000  Uiso   1.00
N92    N     0.66100   0.20748   0.35230   0.00000  Uiso   1.00
C93    C     0.20770   0.91614   0.34214   0.00000  Uiso   1.00
C94    C     0.20501   0.92995   0.21902   0.00000  Uiso   1.00
C95    C     0.20767   0.97172   0.17975   0.00000  Uiso   1.00
C96    C     0.20447   0.97770   0.06406   0.00000  Uiso   1.00
C97    C     0.20113   0.00441   0.88411   0.00000  Uiso   1.00
C98    C     0.16679   0.89107   0.36592   0.00000  Uiso   1.00
C99    C     0.13732   0.90015   0.45018   0.00000  Uiso   1.00
C100   C     0.10196   0.87339   0.45816   0.00000  Uiso   1.00
C101   C     0.03930   0.83971   0.50632   0.00000  Uiso   1.00
C102   C     0.24417   0.88377   0.34852   0.00000  Uiso   1.00
C103   C     0.27975   0.88670   0.41816   0.00000  Uiso   1.00
C104   C     0.30953   0.85378   0.41151   0.00000  Uiso   1.00
C105   C     0.36700   0.80877   0.43265   0.00000  Uiso   1.00
C106   C     0.19729   0.85247   0.20650   0.00000  Uiso   1.00
C107   C     0.19935   0.89537   0.14535   0.00000  Uiso   1.00
C108   C     0.19615   0.90129   0.02969   0.00000  Uiso   1.00
C109   C     0.19881   0.94306   0.99026   0.00000  Uiso   1.00
C110   C     0.16114   0.85649   0.29226   0.00000  Uiso   1.00
C111   C     0.12581   0.82971   0.30012   0.00000  Uiso   1.00
C112   C     0.09629   0.83874   0.38436   0.00000  Uiso   1.00
C113   C     0.23852   0.84919   0.27485   0.00000  Uiso   1.00
C114   C     0.26824   0.81626   0.26809   0.00000  Uiso   1.00
C115   C     0.30386   0.81914   0.33771   0.00000  Uiso   1.00
H116   H     0.21210   0.94306   0.39949   0.00000  Uiso   1.00
H117   H     0.21204   0.99848   0.23679   0.00000  Uiso   1.00
H118   H     0.14171   0.92691   0.50718   0.00000  Uiso   1.00
H119   H     0.28412   0.91346   0.47516   0.00000  Uiso   1.00
H120   H     0.20946   0.04467   0.02392   0.00000  Uiso   1.00
H121   H     0.06118   0.89375   0.59408   0.00000  Uiso   1.00
H122   H     0.36147   0.86540   0.52657   0.00000  Uiso   1.00
H123   H     0.19289   0.82555   0.14915   0.00000  Uiso   1.00
H124   H     0.19178   0.87452   0.97270   0.00000  Uiso   1.00
H125   H     0.12144   0.80295   0.24310   0.00000  Uiso   1.00
H126   H     0.26385   0.78950   0.21107   0.00000  Uiso   1.00
H127   H     0.19301   0.94406   0.80958   0.00000  Uiso   1.00
H128   H     0.04473   0.79314   0.37974   0.00000  Uiso   1.00
H129   H     0.34502   0.76479   0.31222   0.00000  Uiso   1.00
O130   O     0.20084   0.02870   0.80520   0.00000  Uiso   1.00
O131   O     0.00630   0.83069   0.55324   0.00000  Uiso   1.00
O132   O     0.40027   0.79350   0.46465   0.00000  Uiso   1.00
N133   N     0.20575   0.01427   0.99769   0.00000  Uiso   1.00
N134   N     0.06711   0.87317   0.53074   0.00000  Uiso   1.00
N135   N     0.34785   0.84666   0.46764   0.00000  Uiso   1.00
N136   N     0.19690   0.96013   0.88235   0.00000  Uiso   1.00
N137   N     0.05826   0.81904   0.41540   0.00000  Uiso   1.00
N138   N     0.33900   0.79252   0.35230   0.00000  Uiso   1.00
C139   C     0.70770   0.41614   0.84214   0.00000  Uiso   1.00
C140   C     0.70501   0.42995   0.71902   0.00000  Uiso   1.00
C141   C     0.70767   0.47172   0.67975   0.00000  Uiso   1.00
C142   C     0.70447   0.47770   0.56406   0.00000  Uiso   1.00
C143   C     0.70113   0.50441   0.38411   0.00000  Uiso   1.00
C144   C     0.66679   0.39107   0.86592   0.00000  Uiso   1.00
C145   C     0.63732   0.40015   0.95018   0.00000  Uiso   1.00
C146   C     0.60196   0.37339   0.95816   0.00000  Uiso   1.00
C147   C     0.53930   0.33971   0.00632   0.00000  Uiso   1.00
C148   C     0.74417   0.38377   0.84852   0.00000  Uiso   1.00
C149   C     0.77975   0.38670   0.91816   0.00000  Uiso   1.00
C150   C     0.80953   0.35378   0.91151   0.00000  Uiso   1.00
C151   C     0.86700   0.30877   0.93265   0.00000  Uiso   1.00
C152   C     0.69729   0.35247   0.70650   0.00000  Uiso   1.00
C153   C     0.69935   0.39537   0.64535   0.00000  Uiso   1.00
C154   C     0.69615   0.40129   0.52969   0.00000  Uiso   1.00
C155   C     0.69881   0.44306   0.49026   0.00000  Uiso   1.00
C156   C     0.66114   0.35649   0.79226   0.00000  Uiso   1.00
C157   C     0.62581   0.32971   0.80012   0.00000  Uiso   1.00
C158   C     0.59629   0.33874   0.88436   0.00000  Uiso   1.00
C159   C     0.73852   0.34919   0.77485   0.00000  Uiso   1.00
C160   C     0.76824   0.31626   0.76809   0.00000  Uiso   1.00
C161   C     0.80386   0.31914   0.83771   0.00000  Uiso   1.00
H162   H     0.71210   0.44306   0.89949   0.00000  Uiso   1.00
H163   H     0.71204   0.49848   0.73679   0.00000  Uiso   1.00
H164   H     0.64171   0.42691   0.00718   0.00000  Uiso   1.00
H165   H     0.78412   0.41346   0.97516   0.00000  Uiso   1.00
H166   H     0.70946   0.54467   0.52392   0.00000  Uiso   1.00
H167   H     0.56118   0.39375   0.09408   0.00000  Uiso   1.00
H168   H     0.86147   0.36540   0.02657   0.00000  Uiso   1.00
H169   H     0.69289   0.32555   0.64915   0.00000  Uiso   1.00
H170   H     0.69178   0.37452   0.47270   0.00000  Uiso   1.00
H171   H     0.62144   0.30295   0.74310   0.00000  Uiso   1.00
H172   H     0.76385   0.28950   0.71107   0.00000  Uiso   1.00
H173   H     0.69301   0.44406   0.30958   0.00000  Uiso   1.00
H174   H     0.54473   0.29314   0.87974   0.00000  Uiso   1.00
H175   H     0.84502   0.26479   0.81222   0.00000  Uiso   1.00
O176   O     0.70084   0.52870   0.30520   0.00000  Uiso   1.00
O177   O     0.50630   0.33069   0.05324   0.00000  Uiso   1.00
O178   O     0.90027   0.29350   0.96465   0.00000  Uiso   1.00
N179   N     0.70575   0.51427   0.49769   0.00000  Uiso   1.00
N180   N     0.56711   0.37317   0.03074   0.00000  Uiso   1.00
N181   N     0.84785   0.34666   0.96764   0.00000  Uiso   1.00
N182   N     0.69690   0.46013   0.38235   0.00000  Uiso   1.00
N183   N     0.55826   0.31904   0.91540   0.00000  Uiso   1.00
N184   N     0.83900   0.29252   0.85230   0.00000  Uiso   1.00
C185   C     0.41614   0.79230   0.09214   0.00000  Uiso   1.00
C186   C     0.42995   0.79499   0.96902   0.00000  Uiso   1.00
C187   C     0.47172   0.79233   0.92975   0.00000  Uiso   1.00
C188   C     0.47770   0.79553   0.81406   0.00000  Uiso   1.00
C189   C     0.50441   0.79887   0.63411   0.00000  Uiso   1.00
C190   C     0.39107   0.83321   0.11592   0.00000  Uiso   1.00
C191   C     0.40015   0.86268   0.20018   0.00000  Uiso   1.00
C192   C     0.37339   0.89804   0.20816   0.00000  Uiso   1.00
C193   C     0.33971   0.96070   0.25632   0.00000  Uiso   1.00
C194   C     0.38377   0.75583   0.09852   0.00000  Uiso   1.00
C195   C     0.38670   0.72025   0.16816   0.00000  Uiso   1.00
C196   C     0.35378   0.69047   0.16151   0.00000  Uiso   1.00
C197   C     0.30877   0.63300   0.18265   0.00000  Uiso   1.00
C198   C     0.35247   0.80271   0.95650   0.00000  Uiso   1.00
C199   C     0.39537   0.80065   0.89535   0.00000  Uiso   1.00
C200   C     0.40129   0.80385   0.77969   0.00000  Uiso   1.00
C201   C     0.44306   0.80119   0.74026   0.00000  Uiso   1.00
C202   C     0.35649   0.83886   0.04226   0.00000  Uiso   1.00
C203   C     0.32971   0.87419   0.05012   0.00000  Uiso   1.00
C204   C     0.33874   0.90371   0.13436   0.00000  Uiso   1.00
C205   C     0.34919   0.76148   0.02485   0.00000  Uiso   1.00
C206   C     0.31626   0.73176   0.01809   0.00000  Uiso   1.00
C207   C     0.31914   0.69614   0.08771   0.00000  Uiso   1.00
H208   H     0.44306   0.78790   0.14949   0.00000  Uiso   1.00
H209   H     0.49848   0.78796   0.98679   0.00000  Uiso   1.00
H210   H     0.42691   0.85829   0.25718   0.00000  Uiso   1.00
H211   H     0.41346   0.71588   0.22516   0.00000  Uiso   1.00
H212   H     0.54467   0.79054   0.77392   0.00000  Uiso   1.00
H213   H     0.39375   0.93882   0.34408   0.00000  Uiso   1.00
H214   H     0.36540   0.63853   0.27657   0.00000  Uiso   1.00
H215   H     0.32555   0.80711   0.89915   0.00000  Uiso   1.00
H216   H     0.37452   0.80822   0.72270   0.00000  Uiso   1.00
H217   H     0.30295   0.87856   0.99310   0.00000  Uiso   1.00
H218   H     0.28950   0.73615   0.96107   0.00000  Uiso   1.00
H219   H     0.44406   0.80699   0.55958   0.00000  Uiso   1.00
H220   H     0.29314   0.95527   0.12974   0.00000  Uiso   1.00
H221   H     0.26479   0.65498   0.06222   0.00000  Uiso   1.00
O222   O     0.52870   0.79916   0.55520   0.00000  Uiso   1.00
O223   O     0.33069   0.99370   0.30324   0.00000  Uiso   1.00
O224   O     0.29350   0.59973   0.21465   0.00000  Uiso   1.00
N225   N     0.51427   0.79425   0.74769   0.00000  Uiso   1.00
N226   N     0.37317   0.93289   0.28074   0.00000  Uiso   1.00
N227   N     0.34666   0.65215   0.21764   0.00000  Uiso   1.00
N228   N     0.46013   0.80310   0.63235   0.00000  Uiso   1.00
N229   N     0.31904   0.94174   0.16540   0.00000  Uiso   1.00
N230   N     0.29252   0.66100   0.10230   0.00000  Uiso   1.00
C231   C     0.91614   0.29230   0.59214   0.00000  Uiso   1.00
C232   C     0.92995   0.29499   0.46902   0.00000  Uiso   1.00
C233   C     0.97172   0.29233   0.42975   0.00000  Uiso   1.00
C234   C     0.97770   0.29553   0.31406   0.00000  Uiso   1.00
C235   C     0.00441   0.29887   0.13411   0.00000  Uiso   1.00
C236   C     0.89107   0.33321   0.61592   0.00000  Uiso   1.00
C237   C     0.90015   0.36268   0.70018   0.00000  Uiso   1.00
C238   C     0.87339   0.39804   0.70816   0.00000  Uiso   1.00
C239   C     0.83971   0.46070   0.75632   0.00000  Uiso   1.00
C240   C     0.88377   0.25583   0.59852   0.00000  Uiso   1.00
C241   C     0.88670   0.22025   0.66816   0.00000  Uiso   1.00
C242   C     0.85378   0.19047   0.66151   0.00000  Uiso   1.00
C243   C     0.80877   0.13300   0.68265   0.00000  Uiso   1.00
C244   C     0.85247   0.30271   0.45650   0.00000  Uiso   1.00
C245   C     0.89537   0.30065   0.39535   0.00000  Uiso   1.00
C246   C     0.90129   0.30385   0.27969   0.00000  Uiso   1.00
C247   C     0.94306   0.30119   0.24026   0.00000  Uiso   1.00
C248   C     0.85649   0.33886   0.54226   0.00000  Uiso   1.00
C249   C     0.82971   0.37419   0.55012   0.00000  Uiso   1.00
C250   C     0.83874   0.40371   0.63436   0.00000  Uiso   1.00
C251   C     0.84919   0.26148   0.52485   0.00000  Uiso   1.00
C252   C     0.81626   0.23176   0.51809   0.00000  Uiso   1.00
C253   C     0.81914   0.19614   0.58771   0.00000  Uiso   1.00
H254   H     0.94306   0.28790   0.64949   0.00000  Uiso   1.00
H255   H     0.99848   0.28796   0.48679   0.00000  Uiso   1.00
H256   H     0.92691   0.35829   0.75718   0.00000  Uiso   1.00
H257   H     0.91346   0.21588   0.72516   0.00000  Uiso   1.00
H258   H     0.04467   0.29054   0.27392   0.00000  Uiso   1.00
H259   H     0.89375   0.43882   0.84408   0.00000  Uiso   1.00
H260   H     0.86540   0.13853   0.77657   0.00000  Uiso   1.00
H261   H     0.82555   0.30711   0.39915   0.00000  Uiso   1.00
H262   H     0.87452   0.30822   0.22270   0.00000  Uiso   1.00
H263   H     0.80295   0.37856   0.49310   0.00000  Uiso   1.00
H264   H     0.78950   0.23615   0.46107   0.00000  Uiso   1.00
H265   H     0.94406   0.30699   0.05958   0.00000  Uiso   1.00
H266   H     0.79314   0.45527   0.62974   0.00000  Uiso   1.00
H267   H     0.76479   0.15498   0.56222   0.00000  Uiso   1.00
O268   O     0.02870   0.29916   0.05520   0.00000  Uiso   1.00
O269   O     0.83069   0.49370   0.80324   0.00000  Uiso   1.00
O270   O     0.79350   0.09973   0.71465   0.00000  Uiso   1.00
N271   N     0.01427   0.29425   0.24769   0.00000  Uiso   1.00
N272   N     0.87317   0.43289   0.78074   0.00000  Uiso   1.00
N273   N     0.84666   0.15215   0.71764   0.00000  Uiso   1.00
N274   N     0.96013   0.30310   0.13235   0.00000  Uiso   1.00
N275   N     0.81904   0.44174   0.66540   0.00000  Uiso   1.00
N276   N     0.79252   0.16100   0.60230   0.00000  Uiso   1.00
C277   C     0.08386   0.70770   0.59214   0.00000  Uiso   1.00
C278   C     0.07005   0.70501   0.46902   0.00000  Uiso   1.00
C279   C     0.02828   0.70767   0.42975   0.00000  Uiso   1.00
C280   C     0.02230   0.70447   0.31406   0.00000  Uiso   1.00
C281   C     0.99559   0.70113   0.13411   0.00000  Uiso   1.00
C282   C     0.10893   0.66679   0.61592   0.00000  Uiso   1.00
C283   C     0.09985   0.63732   0.70018   0.00000  Uiso   1.00
C284   C     0.12661   0.60196   0.70816   0.00000  Uiso   1.00
C285   C     0.16029   0.53930   0.75632   0.00000  Uiso   1.00
C286   C     0.11623   0.74417   0.59852   0.00000  Uiso   1.00
C287   C     0.11330   0.77975   0.66816   0.00000  Uiso   1.00
C288   C     0.14622   0.80953   0.66151   0.00000  Uiso   1.00
C289   C     0.19123   0.86700   0.68265   0.00000  Uiso   1.00
C290   C     0.14753   0.69729   0.45650   0.00000  Uiso   1.00
C291   C     0.10463   0.69935   0.39535   0.00000  Uiso   1.00
C292   C     0.09871   0.69615   0.27969   0.00000  Uiso   1.00
C293   C     0.05694   0.69881   0.24026   0.00000  Uiso   1.00
C294   C     0.14351   0.66114   0.54226   0.00000  Uiso   1.00
C295   C     0.17029   0.62581   0.55012   0.00000  Uiso   1.00
C296   C     0.16126   0.59629   0.63436   0.00000  Uiso   1.00
C297   C     0.15081   0.73852   0.52485   0.00000  Uiso   1.00
C298   C     0.18374   0.76824   0.51809   0.00000  Uiso   1.00
C299   C     0.18086   0.80386   0.58771   0.00000  Uiso   1.00
H300   H     0.05694   0.71210   0.64949   0.00000  Uiso   1.00
H301   H     0.00152   0.71204   0.48679   0.00000  Uiso   1.00
H302   H     0.07309   0.64171   0.75718   0.00000  Uiso   1.00
H303   H     0.08654   0.78412   0.72516   0.00000  Uiso   1.00
H304   H     0.95533   0.70946   0.27392   0.00000  Uiso   1.00
H305   H     0.10625   0.56118   0.84408   0.00000  Uiso   1.00
H306   H     0.13460   0.86147   0.77657   0.00000  Uiso   1.00
H307   H     0.17445   0.69289   0.39915   0.00000  Uiso   1.00
H308   H     0.12548   0.69178   0.22270   0.00000  Uiso   1.00
H309   H     0.19705   0.62144   0.49310   0.00000  Uiso   1.00
H310   H     0.21050   0.76385   0.46107   0.00000  Uiso   1.00
H311   H     0.05594   0.69301   0.05958   0.00000  Uiso   1.00
H312   H     0.20686   0.54473   0.62974   0.00000  Uiso   1.00
H313   H     0.23521   0.84502   0.56222   0.00000  Uiso   1.00
O314   O     0.97130   0.70084   0.05520   0.00000  Uiso   1.00
O315   O     0.16931   0.50630   0.80324   0.00000  Uiso   1.00
O316   O     0.20650   0.90027   0.71465   0.00000  Uiso   1.00
N317   N     0.98573   0.70575   0.24769   0.00000  Uiso   1.00
N318   N     0.12683   0.56711   0.78074   0.00000  Uiso   1.00
N319   N     0.15334   0.84785   0.71764   0.00000  Uiso   1.00
N320   N     0.03987   0.69690   0.13235   0.00000  Uiso   1.00
N321   N     0.18096   0.55826   0.66540   0.00000  Uiso   1.00
N322   N     0.20748   0.83900   0.60230   0.00000  Uiso   1.00
C323   C     0.58386   0.20770   0.09214   0.00000  Uiso   1.00
C324   C     0.57005   0.20501   0.96902   0.00000  Uiso   1.00
C325   C     0.52828   0.20767   0.92975   0.00000  Uiso   1.00
C326   C     0.52230   0.20447   0.81406   0.00000  Uiso   1.00
C327   C     0.49559   0.20113   0.63411   0.00000  Uiso   1.00
C328   C     0.60893   0.16679   0.11592   0.00000  Uiso   1.00
C329   C     0.59985   0.13732   0.20018   0.00000  Uiso   1.00
C330   C     0.62661   0.10196   0.20816   0.00000  Uiso   1.00
C331   C     0.66029   0.03930   0.25632   0.00000  Uiso   1.00
C332   C     0.61623   0.24417   0.09852   0.00000  Uiso   1.00
C333   C     0.61330   0.27975   0.16816   0.00000  Uiso   1.00
C334   C     0.64622   0.30953   0.16151   0.00000  Uiso   1.00
C335   C     0.69123   0.36700   0.18265   0.00000  Uiso   1.00
C336   C     0.64753   0.19729   0.95650   0.00000  Uiso   1.00
C337   C     0.60463   0.19935   0.89535   0.00000  Uiso   1.00
C338   C     0.59871   0.19615   0.77969   0.00000  Uiso   1.00
C339   C     0.55694   0.19881   0.74026   0.00000  Uiso   1.00
C340   C     0.64351   0.16114   0.04226   0.00000  Uiso   1.00
C341   C     0.67029   0.12581   0.05012   0.00000  Uiso   1.00
C342   C     0.66126   0.09629   0.13436   0.00000  Uiso   1.00
C343   C     0.65081   0.23852   0.02485   0.00000  Uiso   1.00
C344   C     0.68374   0.26824   0.01809   0.00000  Uiso   1.00
C345   C     0.68086   0.30386   0.08771   0.00000  Uiso   1.00
H346   H     0.55694   0.21210   0.14949   0.00000  Uiso   1.00
H347   H     0.50152   0.21204   0.98679   0.00000  Uiso   1.00
H348   H     0.57309   0.14171   0.25718   0.00000  Uiso   1.00
H349   H     0.58654   0.28412   0.22516   0.00000  Uiso   1.00
H350   H     0.45533   0.20946   0.77392   0.00000  Uiso   1.00
H351   H     0.60625   0.06118   0.34408   0.00000  Uiso   1.00
H352   H     0.63460   0.36147   0.27657   0.00000  Uiso   1.00
H353   H     0.67445   0.19289   0.89915   0.00000  Uiso   1.00
H354   H     0.62548   0.19178   0.72270   0.00000  Uiso   1.00
H355   H     0.69705   0.12144   0.99310   0.00000  Uiso   1.00
H356   H     0.71050   0.26385   0.96107   0.00000  Uiso   1.00
H357   H     0.55594   0.19301   0.55958   0.00000  Uiso   1.00
H358   H     0.70686   0.04473   0.12974   0.00000  Uiso   1.00
H359   H     0.73521   0.34502   0.06222   0.00000  Uiso   1.00
O360   O     0.47130   0.20084   0.55520   0.00000  Uiso   1.00
O361   O     0.66931   0.00630   0.30324   0.00000  Uiso   1.00
O362   O     0.70650   0.40027   0.21465   0.00000  Uiso   1.00
N363   N     0.48573   0.20575   0.74769   0.00000  Uiso   1.00
N364   N     0.62683   0.06711   0.28074   0.00000  Uiso   1.00
N365   N     0.65334   0.34785   0.21764   0.00000  Uiso   1.00
N366   N     0.53987   0.19690   0.63235   0.00000  Uiso   1.00
N367   N     0.68096   0.05826   0.16540   0.00000  Uiso   1.00
N368   N     0.70748   0.33900   0.10230   0.00000  Uiso   1.00
C369   C     0.70770   0.91614   0.40786   0.00000  Uiso   1.00
C370   C     0.70501   0.92995   0.53098   0.00000  Uiso   1.00
C371   C     0.70767   0.97172   0.57025   0.00000  Uiso   1.00
C372   C     0.70447   0.97770   0.68594   0.00000  Uiso   1.00
C373   C     0.70113   0.00441   0.86589   0.00000  Uiso   1.00
C374   C     0.66679   0.89107   0.38408   0.00000  Uiso   1.00
C375   C     0.63732   0.90015   0.29982   0.00000  Uiso   1.00
C376   C     0.60196   0.87339   0.29184   0.00000  Uiso   1.00
C377   C     0.53930   0.83971   0.24368   0.00000  Uiso   1.00
C378   C     0.74417   0.88377   0.40148   0.00000  Uiso   1.00
C379   C     0.77975   0.88670   0.33184   0.00000  Uiso   1.00
C380   C     0.80953   0.85378   0.33849   0.00000  Uiso   1.00
C381   C     0.86700   0.80877   0.31735   0.00000  Uiso   1.00
C382   C     0.69729   0.85247   0.54350   0.00000  Uiso   1.00
C383   C     0.69935   0.89537   0.60465   0.00000  Uiso   1.00
C384   C     0.69615   0.90129   0.72031   0.00000  Uiso   1.00
C385   C     0.69881   0.94306   0.75974   0.00000  Uiso   1.00
C386   C     0.66114   0.85649   0.45774   0.00000  Uiso   1.00
C387   C     0.62581   0.82971   0.44988   0.00000  Uiso   1.00
C388   C     0.59629   0.83874   0.36564   0.00000  Uiso   1.00
C389   C     0.73852   0.84919   0.47515   0.00000  Uiso   1.00
C390   C     0.76824   0.81626   0.48191   0.00000  Uiso   1.00
C391   C     0.80386   0.81914   0.41229   0.00000  Uiso   1.00
H392   H     0.71210   0.94306   0.35051   0.00000  Uiso   1.00
H393   H     0.71204   0.99848   0.51321   0.00000  Uiso   1.00
H394   H     0.64171   0.92691   0.24282   0.00000  Uiso   1.00
H395   H     0.78412   0.91346   0.27484   0.00000  Uiso   1.00
H396   H     0.70946   0.04467   0.72608   0.00000  Uiso   1.00
H397   H     0.56118   0.89375   0.15592   0.00000  Uiso   1.00
H398   H     0.86147   0.86540   0.22343   0.00000  Uiso   1.00
H399   H     0.69289   0.82555   0.60085   0.00000  Uiso   1.00
H400   H     0.69178   0.87452   0.77730   0.00000  Uiso   1.00
H401   H     0.62144   0.80295   0.50690   0.00000  Uiso   1.00
H402   H     0.76385   0.78950   0.53893   0.00000  Uiso   1.00
H403   H     0.69301   0.94406   0.94042   0.00000  Uiso   1.00
H404   H     0.54473   0.79314   0.37026   0.00000  Uiso   1.00
H405   H     0.84502   0.76479   0.43778   0.00000  Uiso   1.00
O406   O     0.70084   0.02870   0.94480   0.00000  Uiso   1.00
O407   O     0.50630   0.83069   0.19676   0.00000  Uiso   1.00
O408   O     0.90027   0.79350   0.28535   0.00000  Uiso   1.00
N409   N     0.70575   0.01427   0.75231   0.00000  Uiso   1.00
N410   N     0.56711   0.87317   0.21926   0.00000  Uiso   1.00
N411   N     0.84785   0.84666   0.28236   0.00000  Uiso   1.00
N412   N     0.69690   0.96013   0.86765   0.00000  Uiso   1.00
N413   N     0.55826   0.81904   0.33460   0.00000  Uiso   1.00
N414   N     0.83900   0.79252   0.39770   0.00000  Uiso   1.00
C415   C     0.20770   0.41614   0.90786   0.00000  Uiso   1.00
C416   C     0.20501   0.42995   0.03098   0.00000  Uiso   1.00
C417   C     0.20767   0.47172   0.07025   0.00000  Uiso   1.00
C418   C     0.20447   0.47770   0.18594   0.00000  Uiso   1.00
C419   C     0.20113   0.50441   0.36589   0.00000  Uiso   1.00
C420   C     0.16679   0.39107   0.88408   0.00000  Uiso   1.00
C421   C     0.13732   0.40015   0.79982   0.00000  Uiso   1.00
C422   C     0.10196   0.37339   0.79184   0.00000  Uiso   1.00
C423   C     0.03930   0.33971   0.74368   0.00000  Uiso   1.00
C424   C     0.24417   0.38377   0.90148   0.00000  Uiso   1.00
C425   C     0.27975   0.38670   0.83184   0.00000  Uiso   1.00
C426   C     0.30953   0.35378   0.83849   0.00000  Uiso   1.00
C427   C     0.36700   0.30877   0.81735   0.00000  Uiso   1.00
C428   C     0.19729   0.35247   0.04350   0.00000  Uiso   1.00
C429   C     0.19935   0.39537   0.10465   0.00000  Uiso   1.00
C430   C     0.19615   0.40129   0.22031   0.00000  Uiso   1.00
C431   C     0.19881   0.44306   0.25974   0.00000  Uiso   1.00
C432   C     0.16114   0.35649   0.95774   0.00000  Uiso   1.00
C433   C     0.12581   0.32971   0.94988   0.00000  Uiso   1.00
C434   C     0.09629   0.33874   0.86564   0.00000  Uiso   1.00
C435   C     0.23852   0.34919   0.97515   0.00000  Uiso   1.00
C436   C     0.26824   0.31626   0.98191   0.00000  Uiso   1.00
C437   C     0.30386   0.31914   0.91229   0.00000  Uiso   1.00
H438   H     0.21210   0.44306   0.85051   0.00000  Uiso   1.00
H439   H     0.21204   0.49848   0.01321   0.00000  Uiso   1.00
H440   H     0.14171   0.42691   0.74282   0.00000  Uiso   1.00
H441   H     0.28412   0.41346   0.77484   0.00000  Uiso   1.00
H442   H     0.20946   0.54467   0.22608   0.00000  Uiso   1.00
H443   H     0.06118   0.39375   0.65592   0.00000  Uiso   1.00
H444   H     0.36147   0.36540   0.72343   0.00000  Uiso   1.00
H445   H     0.19289   0.32555   0.10085   0.00000  Uiso   1.00
H446   H     0.19178   0.37452   0.27730   0.00000  Uiso   1.00
H447   H     0.12144   0.30295   0.00690   0.00000  Uiso   1.00
H448   H     0.26385   0.28950   0.03893   0.00000  Uiso   1.00
H449   H     0.19301   0.44406   0.44042   0.00000  Uiso   1.00
H450   H     0.04473   0.29314   0.87026   0.00000  Uiso   1.00
H451   H     0.34502   0.26479   0.93778   0.00000  Uiso   1.00
O452   O     0.20084   0.52870   0.44480   0.00000  Uiso   1.00
O453   O     0.00630   0.33069   0.69676   0.00000  Uiso   1.00
O454   O     0.40027   0.29350   0.78535   0.00000  Uiso   1.00
N455   N     0.20575   0.51427   0.25231   0.00000  Uiso   1.00
N456   N     0.06711   0.37317   0.71926   0.00000  Uiso   1.00
N457   N     0.34785   0.34666   0.78236   0.00000  Uiso   1.00
N458   N     0.19690   0.46013   0.36765   0.00000  Uiso   1.00
N459   N     0.05826   0.31904   0.83460   0.00000  Uiso   1.00
N460   N     0.33900   0.29252   0.89770   0.00000  Uiso   1.00
C461   C     0.79230   0.58386   0.90786   0.00000  Uiso   1.00
C462   C     0.79499   0.57005   0.03098   0.00000  Uiso   1.00
C463   C     0.79233   0.52828   0.07025   0.00000  Uiso   1.00
C464   C     0.79553   0.52230   0.18594   0.00000  Uiso   1.00
C465   C     0.79887   0.49559   0.36589   0.00000  Uiso   1.00
C466   C     0.83321   0.60893   0.88408   0.00000  Uiso   1.00
C467   C     0.86268   0.59985   0.79982   0.00000  Uiso   1.00
C468   C     0.89804   0.62661   0.79184   0.00000  Uiso   1.00
C469   C     0.96070   0.66029   0.74368   0.00000  Uiso   1.00
C470   C     0.75583   0.61623   0.90148   0.00000  Uiso   1.00
C471   C     0.72025   0.61330   0.83184   0.00000  Uiso   1.00
C472   C     0.69047   0.64622   0.83849   0.00000  Uiso   1.00
C473   C     0.63300   0.69123   0.81735   0.00000  Uiso   1.00
C474   C     0.80271   0.64753   0.04350   0.00000  Uiso   1.00
C475   C     0.80065   0.60463   0.10465   0.00000  Uiso   1.00
C476   C     0.80385   0.59871   0.22031   0.00000  Uiso   1.00
C477   C     0.80119   0.55694   0.25974   0.00000  Uiso   1.00
C478   C     0.83886   0.64351   0.95774   0.00000  Uiso   1.00
C479   C     0.87419   0.67029   0.94988   0.00000  Uiso   1.00
C480   C     0.90371   0.66126   0.86564   0.00000  Uiso   1.00
C481   C     0.76148   0.65081   0.97515   0.00000  Uiso   1.00
C482   C     0.73176   0.68374   0.98191   0.00000  Uiso   1.00
C483   C     0.69614   0.68086   0.91229   0.00000  Uiso   1.00
H484   H     0.78790   0.55694   0.85051   0.00000  Uiso   1.00
H485   H     0.78796   0.50152   0.01321   0.00000  Uiso   1.00
H486   H     0.85829   0.57309   0.74282   0.00000  Uiso   1.00
H487   H     0.71588   0.58654   0.77484   0.00000  Uiso   1.00
H488   H     0.79054   0.45533   0.22608   0.00000  Uiso   1.00
H489   H     0.93882   0.60625   0.65592   0.00000  Uiso   1.00
H490   H     0.63853   0.63460   0.72343   0.00000  Uiso   1.00
H491   H     0.80711   0.67445   0.10085   0.00000  Uiso   1.00
H492   H     0.80822   0.62548   0.27730   0.00000  Uiso   1.00
H493   H     0.87856   0.69705   0.00690   0.00000  Uiso   1.00
H494   H     0.73615   0.71050   0.03893   0.00000  Uiso   1.00
H495   H     0.80699   0.55594   0.44042   0.00000  Uiso   1.00
H496   H     0.95527   0.70686   0.87026   0.00000  Uiso   1.00
H497   H     0.65498   0.73521   0.93778   0.00000  Uiso   1.00
O498   O     0.79916   0.47130   0.44480   0.00000  Uiso   1.00
O499   O     0.99370   0.66931   0.69676   0.00000  Uiso   1.00
O500   O     0.59973   0.70650   0.78535   0.00000  Uiso   1.00
N501   N     0.79425   0.48573   0.25231   0.00000  Uiso   1.00
N502   N     0.93289   0.62683   0.71926   0.00000  Uiso   1.00
N503   N     0.65215   0.65334   0.78236   0.00000  Uiso   1.00
N504   N     0.80310   0.53987   0.36765   0.00000  Uiso   1.00
N505   N     0.94174   0.68096   0.83460   0.00000  Uiso   1.00
N506   N     0.66100   0.70748   0.89770   0.00000  Uiso   1.00
C507   C     0.29230   0.08386   0.40786   0.00000  Uiso   1.00
C508   C     0.29499   0.07005   0.53098   0.00000  Uiso   1.00
C509   C     0.29233   0.02828   0.57025   0.00000  Uiso   1.00
C510   C     0.29553   0.02230   0.68594   0.00000  Uiso   1.00
C511   C     0.29887   0.99559   0.86589   0.00000  Uiso   1.00
C512   C     0.33321   0.10893   0.38408   0.00000  Uiso   1.00
C513   C     0.36268   0.09985   0.29982   0.00000  Uiso   1.00
C514   C     0.39804   0.12661   0.29184   0.00000  Uiso   1.00
C515   C     0.46070   0.16029   0.24368   0.00000  Uiso   1.00
C516   C     0.25583   0.11623   0.40148   0.00000  Uiso   1.00
C517   C     0.22025   0.11330   0.33184   0.00000  Uiso   1.00
C518   C     0.19047   0.14622   0.33849   0.00000  Uiso   1.00
C519   C     0.13300   0.19123   0.31735   0.00000  Uiso   1.00
C520   C     0.30271   0.14753   0.54350   0.00000  Uiso   1.00
C521   C     0.30065   0.10463   0.60465   0.00000  Uiso   1.00
C522   C     0.30385   0.09871   0.72031   0.00000  Uiso   1.00
C523   C     0.30119   0.05694   0.75974   0.00000  Uiso   1.00
C524   C     0.33886   0.14351   0.45774   0.00000  Uiso   1.00
C525   C     0.37419   0.17029   0.44988   0.00000  Uiso   1.00
C526   C     0.40371   0.16126   0.36564   0.00000  Uiso   1.00
C527   C     0.26148   0.15081   0.47515   0.00000  Uiso   1.00
C528   C     0.23176   0.18374   0.48191   0.00000  Uiso   1.00
C529   C     0.19614   0.18086   0.41229   0.00000  Uiso   1.00
H530   H     0.28790   0.05694   0.35051   0.00000  Uiso   1.00
H531   H     0.28796   0.00152   0.51321   0.00000  Uiso   1.00
H532   H     0.35829   0.07309   0.24282   0.00000  Uiso   1.00
H533   H     0.21588   0.08654   0.27484   0.00000  Uiso   1.00
H534   H     0.29054   0.95533   0.72608   0.00000  Uiso   1.00
H535   H     0.43882   0.10625   0.15592   0.00000  Uiso   1.00
H536   H     0.13853   0.13460   0.22343   0.00000  Uiso   1.00
H537   H     0.30711   0.17445   0.60085   0.00000  Uiso   1.00
H538   H     0.30822   0.12548   0.77730   0.00000  Uiso   1.00
H539   H     0.37856   0.19705   0.50690   0.00000  Uiso   1.00
H540   H     0.23615   0.21050   0.53893   0.00000  Uiso   1.00
H541   H     0.30699   0.05594   0.94042   0.00000  Uiso   1.00
H542   H     0.45527   0.20686   0.37026   0.00000  Uiso   1.00
H543   H     0.15498   0.23521   0.43778   0.00000  Uiso   1.00
O544   O     0.29916   0.97130   0.94480   0.00000  Uiso   1.00
O545   O     0.49370   0.16931   0.19676   0.00000  Uiso   1.00
O546   O     0.09973   0.20650   0.28535   0.00000  Uiso   1.00
N547   N     0.29425   0.98573   0.75231   0.00000  Uiso   1.00
N548   N     0.43289   0.12683   0.21926   0.00000  Uiso   1.00
N549   N     0.15215   0.15334   0.28236   0.00000  Uiso   1.00
N550   N     0.30310   0.03987   0.86765   0.00000  Uiso   1.00
N551   N     0.44174   0.18096   0.33460   0.00000  Uiso   1.00
N552   N     0.16100   0.20748   0.39770   0.00000  Uiso   1.00
C553   C     0.58386   0.70770   0.15786   0.00000  Uiso   1.00
C554   C     0.57005   0.70501   0.28098   0.00000  Uiso   1.00
C555   C     0.52828   0.70767   0.32025   0.00000  Uiso   1.00
C556   C     0.52230   0.70447   0.43594   0.00000  Uiso   1.00
C557   C     0.49559   0.70113   0.61589   0.00000  Uiso   1.00
C558   C     0.60893   0.66679   0.13408   0.00000  Uiso   1.00
C559   C     0.59985   0.63732   0.04982   0.00000  Uiso   1.00
C560   C     0.62661   0.60196   0.04184   0.00000  Uiso   1.00
C561   C     0.66029   0.53930   0.99368   0.00000  Uiso   1.00
C562   C     0.61623   0.74417   0.15148   0.00000  Uiso   1.00
C563   C     0.61330   0.77975   0.08184   0.00000  Uiso   1.00
C564   C     0.64622   0.80953   0.08849   0.00000  Uiso   1.00
C565   C     0.69123   0.86700   0.06735   0.00000  Uiso   1.00
C566   C     0.64753   0.69729   0.29350   0.00000  Uiso   1.00
C567   C     0.60463   0.69935   0.35465   0.00000  Uiso   1.00
C568   C     0.59871   0.69615   0.47031   0.00000  Uiso   1.00
C569   C     0.55694   0.69881   0.50974   0.00000  Uiso   1.00
C570   C     0.64351   0.66114   0.20774   0.00000  Uiso   1.00
C571   C     0.67029   0.62581   0.19988   0.00000  Uiso   1.00
C572   C     0.66126   0.59629   0.11564   0.00000  Uiso   1.00
C573   C     0.65081   0.73852   0.22515   0.00000  Uiso   1.00
C574   C     0.68374   0.76824   0.23191   0.00000  Uiso   1.00
C575   C     0.68086   0.80386   0.16229   0.00000  Uiso   1.00
H576   H     0.55694   0.71210   0.10051   0.00000  Uiso   1.00
H577   H     0.50152   0.71204   0.26321   0.00000  Uiso   1.00
H578   H     0.57309   0.64171   0.99282   0.00000  Uiso   1.00
H579   H     0.58654   0.78412   0.02484   0.00000  Uiso   1.00
H580   H     0.45533   0.70946   0.47608   0.00000  Uiso   1.00
H581   H     0.60625   0.56118   0.90592   0.00000  Uiso   1.00
H582   H     0.63460   0.86147   0.97343   0.00000  Uiso   1.00
H583   H     0.67445   0.69289   0.35085   0.00000  Uiso   1.00
H584   H     0.62548   0.69178   0.52730   0.00000  Uiso   1.00
H585   H     0.69705   0.62144   0.25690   0.00000  Uiso   1.00
H586   H     0.71050   0.76385   0.28893   0.00000  Uiso   1.00
H587   H     0.55594   0.69301   0.69042   0.00000  Uiso   1.00
H588   H     0.70686   0.54473   0.12026   0.00000  Uiso   1.00
H589   H     0.73521   0.84502   0.18778   0.00000  Uiso   1.00
O590   O     0.47130   0.70084   0.69480   0.00000  Uiso   1.00
O591   O     0.66931   0.50630   0.94676   0.00000  Uiso   1.00
O592   O     0.70650   0.90027   0.03535   0.00000  Uiso   1.00
N593   N     0.48573   0.70575   0.50231   0.00000  Uiso   1.00
N594   N     0.62683   0.56711   0.96926   0.00000  Uiso   1.00
N595   N     0.65334   0.84785   0.03236   0.00000  Uiso   1.00
N596   N     0.53987   0.69690   0.61765   0.00000  Uiso   1.00
N597   N     0.68096   0.55826   0.08460   0.00000  Uiso   1.00
N598   N     0.70748   0.83900   0.14770   0.00000  Uiso   1.00
C599   C     0.08386   0.20770   0.65786   0.00000  Uiso   1.00
C600   C     0.07005   0.20501   0.78098   0.00000  Uiso   1.00
C601   C     0.02828   0.20767   0.82025   0.00000  Uiso   1.00
C602   C     0.02230   0.20447   0.93594   0.00000  Uiso   1.00
C603   C     0.99559   0.20113   0.11589   0.00000  Uiso   1.00
C604   C     0.10893   0.16679   0.63408   0.00000  Uiso   1.00
C605   C     0.09985   0.13732   0.54982   0.00000  Uiso   1.00
C606   C     0.12661   0.10196   0.54184   0.00000  Uiso   1.00
C607   C     0.16029   0.03930   0.49368   0.00000  Uiso   1.00
C608   C     0.11623   0.24417   0.65148   0.00000  Uiso   1.00
C609   C     0.11330   0.27975   0.58184   0.00000  Uiso   1.00
C610   C     0.14622   0.30953   0.58849   0.00000  Uiso   1.00
C611   C     0.19123   0.36700   0.56735   0.00000  Uiso   1.00
C612   C     0.14753   0.19729   0.79350   0.00000  Uiso   1.00
C613   C     0.10463   0.19935   0.85465   0.00000  Uiso   1.00
C614   C     0.09871   0.19615   0.97031   0.00000  Uiso   1.00
C615   C     0.05694   0.19881   0.00974   0.00000  Uiso   1.00
C616   C     0.14351   0.16114   0.70774   0.00000  Uiso   1.00
C617   C     0.17029   0.12581   0.69988   0.00000  Uiso   1.00
C618   C     0.16126   0.09629   0.61564   0.00000  Uiso   1.00
C619   C     0.15081   0.23852   0.72515   0.00000  Uiso   1.00
C620   C     0.18374   0.26824   0.73191   0.00000  Uiso   1.00
C621   C     0.18086   0.30386   0.66229   0.00000  Uiso   1.00
H622   H     0.05694   0.21210   0.60051   0.00000  Uiso   1.00
H623   H     0.00152   0.21204   0.76321   0.00000  Uiso   1.00
H624   H     0.07309   0.14171   0.49282   0.00000  Uiso   1.00
H625   H     0.08654   0.28412   0.52484   0.00000  Uiso   1.00
H626   H     0.95533   0.20946   0.97608   0.00000  Uiso   1.00
H627   H     0.10625   0.06118   0.40592   0.00000  Uiso   1.00
H628   H     0.13460   0.36147   0.47343   0.00000  Uiso   1.00
H629   H     0.17445   0.19289   0.85085   0.00000  Uiso   1.00
H630   H     0.12548   0.19178   0.02730   0.00000  Uiso   1.00
H631   H     0.19705   0.12144   0.75690   0.00000  Uiso   1.00
H632   H     0.21050   0.26385   0.78893   0.00000  Uiso   1.00
H633   H     0.05594   0.19301   0.19042   0.00000  Uiso   1.00
H634   H     0.20686   0.04473   0.62026   0.00000  Uiso   1.00
H635   H     0.23521   0.34502   0.68778   0.00000  Uiso   1.00
O636   O     0.97130   0.20084   0.19480   0.00000  Uiso   1.00
O637   O     0.16931   0.00630   0.44676   0.00000  Uiso   1.00
O638   O     0.20650   0.40027   0.53535   0.00000  Uiso   1.00
N639   N     0.98573   0.20575   0.00231   0.00000  Uiso   1.00
N640   N     0.12683   0.06711   0.46926   0.00000  Uiso   1.00
N641   N     0.15334   0.34785   0.53236   0.00000  Uiso   1.00
N642   N     0.03987   0.19690   0.11765   0.00000  Uiso   1.00
N643   N     0.18096   0.05826   0.58460   0.00000  Uiso   1.00
N644   N     0.20748   0.33900   0.64770   0.00000  Uiso   1.00
C645   C     0.91614   0.79230   0.65786   0.00000  Uiso   1.00
C646   C     0.92995   0.79499   0.78098   0.00000  Uiso   1.00
C647   C     0.97172   0.79233   0.82025   0.00000  Uiso   1.00
C648   C     0.97770   0.79553   0.93594   0.00000  Uiso   1.00
C649   C     0.00441   0.79887   0.11589   0.00000  Uiso   1.00
C650   C     0.89107   0.83321   0.63408   0.00000  Uiso   1.00
C651   C     0.90015   0.86268   0.54982   0.00000  Uiso   1.00
C652   C     0.87339   0.89804   0.54184   0.00000  Uiso   1.00
C653   C     0.83971   0.96070   0.49368   0.00000  Uiso   1.00
C654   C     0.88377   0.75583   0.65148   0.00000  Uiso   1.00
C655   C     0.88670   0.72025   0.58184   0.00000  Uiso   1.00
C656   C     0.85378   0.69047   0.58849   0.00000  Uiso   1.00
C657   C     0.80877   0.63300   0.56735   0.00000  Uiso   1.00
C658   C     0.85247   0.80271   0.79350   0.00000  Uiso   1.00
C659   C     0.89537   0.80065   0.85465   0.00000  Uiso   1.00
C660   C     0.90129   0.80385   0.97031   0.00000  Uiso   1.00
C661   C     0.94306   0.80119   0.00974   0.00000  Uiso   1.00
C662   C     0.85649   0.83886   0.70774   0.00000  Uiso   1.00
C663   C     0.82971   0.87419   0.69988   0.00000  Uiso   1.00
C664   C     0.83874   0.90371   0.61564   0.00000  Uiso   1.00
C665   C     0.84919   0.76148   0.72515   0.00000  Uiso   1.00
C666   C     0.81626   0.73176   0.73191   0.00000  Uiso   1.00
C667   C     0.81914   0.69614   0.66229   0.00000  Uiso   1.00
H668   H     0.94306   0.78790   0.60051   0.00000  Uiso   1.00
H669   H     0.99848   0.78796   0.76321   0.00000  Uiso   1.00
H670   H     0.92691   0.85829   0.49282   0.00000  Uiso   1.00
H671   H     0.91346   0.71588   0.52484   0.00000  Uiso   1.00
H672   H     0.04467   0.79054   0.97608   0.00000  Uiso   1.00
H673   H     0.89375   0.93882   0.40592   0.00000  Uiso   1.00
H674   H     0.86540   0.63853   0.47343   0.00000  Uiso   1.00
H675   H     0.82555   0.80711   0.85085   0.00000  Uiso   1.00
H676   H     0.87452   0.80822   0.02730   0.00000  Uiso   1.00
H677   H     0.80295   0.87856   0.75690   0.00000  Uiso   1.00
H678   H     0.78950   0.73615   0.78893   0.00000  Uiso   1.00
H679   H     0.94406   0.80699   0.19042   0.00000  Uiso   1.00
H680   H     0.79314   0.95527   0.62026   0.00000  Uiso   1.00
H681   H     0.76479   0.65498   0.68778   0.00000  Uiso   1.00
O682   O     0.02870   0.79916   0.19480   0.00000  Uiso   1.00
O683   O     0.83069   0.99370   0.44676   0.00000  Uiso   1.00
O684   O     0.79350   0.59973   0.53535   0.00000  Uiso   1.00
N685   N     0.01427   0.79425   0.00231   0.00000  Uiso   1.00
N686   N     0.87317   0.93289   0.46926   0.00000  Uiso   1.00
N687   N     0.84666   0.65215   0.53236   0.00000  Uiso   1.00
N688   N     0.96013   0.80310   0.11765   0.00000  Uiso   1.00
N689   N     0.81904   0.94174   0.58460   0.00000  Uiso   1.00
N690   N     0.79252   0.66100   0.64770   0.00000  Uiso   1.00
C691   C     0.41614   0.29230   0.15786   0.00000  Uiso   1.00
C692   C     0.42995   0.29499   0.28098   0.00000  Uiso   1.00
C693   C     0.47172   0.29233   0.32025   0.00000  Uiso   1.00
C694   C     0.47770   0.29553   0.43594   0.00000  Uiso   1.00
C695   C     0.50441   0.29887   0.61589   0.00000  Uiso   1.00
C696   C     0.39107   0.33321   0.13408   0.00000  Uiso   1.00
C697   C     0.40015   0.36268   0.04982   0.00000  Uiso   1.00
C698   C     0.37339   0.39804   0.04184   0.00000  Uiso   1.00
C699   C     0.33971   0.46070   0.99368   0.00000  Uiso   1.00
C700   C     0.38377   0.25583   0.15148   0.00000  Uiso   1.00
C701   C     0.38670   0.22025   0.08184   0.00000  Uiso   1.00
C702   C     0.35378   0.19047   0.08849   0.00000  Uiso   1.00
C703   C     0.30877   0.13300   0.06735   0.00000  Uiso   1.00
C704   C     0.35247   0.30271   0.29350   0.00000  Uiso   1.00
C705   C     0.39537   0.30065   0.35465   0.00000  Uiso   1.00
C706   C     0.40129   0.30385   0.47031   0.00000  Uiso   1.00
C707   C     0.44306   0.30119   0.50974   0.00000  Uiso   1.00
C708   C     0.35649   0.33886   0.20774   0.00000  Uiso   1.00
C709   C     0.32971   0.37419   0.19988   0.00000  Uiso   1.00
C710   C     0.33874   0.40371   0.11564   0.00000  Uiso   1.00
C711   C     0.34919   0.26148   0.22515   0.00000  Uiso   1.00
C712   C     0.31626   0.23176   0.23191   0.00000  Uiso   1.00
C713   C     0.31914   0.19614   0.16229   0.00000  Uiso   1.00
H714   H     0.44306   0.28790   0.10051   0.00000  Uiso   1.00
H715   H     0.49848   0.28796   0.26321   0.00000  Uiso   1.00
H716   H     0.42691   0.35829   0.99282   0.00000  Uiso   1.00
H717   H     0.41346   0.21588   0.02484   0.00000  Uiso   1.00
H718   H     0.54467   0.29054   0.47608   0.00000  Uiso   1.00
H719   H     0.39375   0.43882   0.90592   0.00000  Uiso   1.00
H720   H     0.36540   0.13853   0.97343   0.00000  Uiso   1.00
H721   H     0.32555   0.30711   0.35085   0.00000  Uiso   1.00
H722   H     0.37452   0.30822   0.52730   0.00000  Uiso   1.00
H723   H     0.30295   0.37856   0.25690   0.00000  Uiso   1.00
H724   H     0.28950   0.23615   0.28893   0.00000  Uiso   1.00
H725   H     0.44406   0.30699   0.69042   0.00000  Uiso   1.00
H726   H     0.29314   0.45527   0.12026   0.00000  Uiso   1.00
H727   H     0.26479   0.15498   0.18778   0.00000  Uiso   1.00
O728   O     0.52870   0.29916   0.69480   0.00000  Uiso   1.00
O729   O     0.33069   0.49370   0.94676   0.00000  Uiso   1.00
O730   O     0.29350   0.09973   0.03535   0.00000  Uiso   1.00
N731   N     0.51427   0.29425   0.50231   0.00000  Uiso   1.00
N732   N     0.37317   0.43289   0.96926   0.00000  Uiso   1.00
N733   N     0.34666   0.15215   0.03236   0.00000  Uiso   1.00
N734   N     0.46013   0.30310   0.61765   0.00000  Uiso   1.00
N735   N     0.31904   0.44174   0.08460   0.00000  Uiso   1.00
N736   N     0.29252   0.16100   0.14770   0.00000  Uiso   1.00
