data_job_03219
_audit_creation_date              2018-12-19
_audit_creation_method            'Materials Studio'
_symmetry_space_group_name_H-M    'P1'
_symmetry_Int_Tables_number       1
_symmetry_cell_setting            triclinic
loop_
_symmetry_equiv_pos_as_xyz
  x,y,z
_cell_length_a                    88.3899
_cell_length_b                    14.5335
_cell_length_c                    12.5295
_cell_angle_alpha                 90.0000
_cell_angle_beta                  90.0000
_cell_angle_gamma                 90.0000
loop_
_atom_site_label
_atom_site_type_symbol
_atom_site_fract_x
_atom_site_fract_y
_atom_site_fract_z
_atom_site_U_iso_or_equiv
_atom_site_adp_type
_atom_site_occupancy
C1     C     0.16740   0.82505   0.32290   0.00000  Uiso   1.00
C2     C     0.18422   0.80684   0.33964   0.00000  Uiso   1.00
C3     C     0.19139   0.72246   0.32807   0.00000  Uiso   1.00
C4     C     0.20686   0.72008   0.34700   0.00000  Uiso   1.00
C5     C     0.23176   0.67975   0.36858   0.00000  Uiso   1.00
C6     C     0.16166   0.86709   0.42681   0.00000  Uiso   1.00
C7     C     0.14986   0.83338   0.48851   0.00000  Uiso   1.00
C8     C     0.14634   0.88173   0.58081   0.00000  Uiso   1.00
C9     C     0.13621   0.93499   0.73767   0.00000  Uiso   1.00
C10    C     0.16641   0.90113   0.23938   0.00000  Uiso   1.00
C11    C     0.15859   0.89605   0.14351   0.00000  Uiso   1.00
C12    C     0.15906   0.97306   0.07801   0.00000  Uiso   1.00
C13    C     0.15630   0.07916   0.94386   0.00000  Uiso   1.00
C14    C     0.18213   0.97085   0.37708   0.00000  Uiso   1.00
C15    C     0.19222   0.88604   0.36908   0.00000  Uiso   1.00
C16    C     0.20769   0.88378   0.38802   0.00000  Uiso   1.00
C17    C     0.21488   0.79941   0.37648   0.00000  Uiso   1.00
C18    C     0.16967   0.94629   0.45624   0.00000  Uiso   1.00
C19    C     0.16616   0.99470   0.54846   0.00000  Uiso   1.00
C20    C     0.15436   0.96107   0.61029   0.00000  Uiso   1.00
C21    C     0.17441   0.98032   0.26881   0.00000  Uiso   1.00
C22    C     0.17489   0.05736   0.20345   0.00000  Uiso   1.00
C23    C     0.16707   0.05240   0.10750   0.00000  Uiso   1.00
H24    H     0.16117   0.76339   0.29999   0.00000  Uiso   1.00
H25    H     0.18519   0.66119   0.30531   0.00000  Uiso   1.00
H26    H     0.14367   0.77210   0.46571   0.00000  Uiso   1.00
H27    H     0.15239   0.83475   0.12076   0.00000  Uiso   1.00
H28    H     0.21535   0.58279   0.32422   0.00000  Uiso   1.00
H29    H     0.12780   0.81668   0.66242   0.00000  Uiso   1.00
H30    H     0.14620   0.94879   0.93502   0.00000  Uiso   1.00
H31    H     0.18836   0.03251   0.39999   0.00000  Uiso   1.00
H32    H     0.21388   0.94508   0.41080   0.00000  Uiso   1.00
H33    H     0.17236   0.05599   0.57121   0.00000  Uiso   1.00
H34    H     0.18108   0.11864   0.22625   0.00000  Uiso   1.00
H35    H     0.23864   0.81321   0.40984   0.00000  Uiso   1.00
H36    H     0.15108   0.04709   0.74805   0.00000  Uiso   1.00
H37    H     0.16949   0.17920   0.02065   0.00000  Uiso   1.00
O38    O     0.24329   0.63562   0.37237   0.00000  Uiso   1.00
O39    O     0.12842   0.94247   0.81607   0.00000  Uiso   1.00
O40    O     0.15256   0.11580   0.86173   0.00000  Uiso   1.00
N41    N     0.21733   0.64903   0.34287   0.00000  Uiso   1.00
N42    N     0.13547   0.86768   0.65908   0.00000  Uiso   1.00
N43    N     0.15268   0.99120   0.97903   0.00000  Uiso   1.00
N44    N     0.22986   0.77301   0.38894   0.00000  Uiso   1.00
N45    N     0.14800   0.99167   0.70515   0.00000  Uiso   1.00
N46    N     0.16521   0.11519   0.02510   0.00000  Uiso   1.00
C47    C     0.16740   0.32505   0.82290   0.00000  Uiso   1.00
C48    C     0.18422   0.30684   0.83964   0.00000  Uiso   1.00
C49    C     0.19139   0.22246   0.82807   0.00000  Uiso   1.00
C50    C     0.20686   0.22008   0.84700   0.00000  Uiso   1.00
C51    C     0.23176   0.17975   0.86858   0.00000  Uiso   1.00
C52    C     0.16166   0.36709   0.92681   0.00000  Uiso   1.00
C53    C     0.14986   0.33338   0.98851   0.00000  Uiso   1.00
C54    C     0.14634   0.38173   0.08081   0.00000  Uiso   1.00
C55    C     0.13621   0.43499   0.23767   0.00000  Uiso   1.00
C56    C     0.16641   0.40113   0.73938   0.00000  Uiso   1.00
C57    C     0.15859   0.39605   0.64351   0.00000  Uiso   1.00
C58    C     0.15906   0.47306   0.57801   0.00000  Uiso   1.00
C59    C     0.15630   0.57916   0.44386   0.00000  Uiso   1.00
C60    C     0.18213   0.47085   0.87708   0.00000  Uiso   1.00
C61    C     0.19222   0.38604   0.86908   0.00000  Uiso   1.00
C62    C     0.20769   0.38378   0.88802   0.00000  Uiso   1.00
C63    C     0.21488   0.29941   0.87648   0.00000  Uiso   1.00
C64    C     0.16967   0.44629   0.95624   0.00000  Uiso   1.00
C65    C     0.16616   0.49470   0.04846   0.00000  Uiso   1.00
C66    C     0.15436   0.46107   0.11029   0.00000  Uiso   1.00
C67    C     0.17441   0.48032   0.76881   0.00000  Uiso   1.00
C68    C     0.17489   0.55736   0.70345   0.00000  Uiso   1.00
C69    C     0.16707   0.55240   0.60750   0.00000  Uiso   1.00
H70    H     0.16117   0.26339   0.79999   0.00000  Uiso   1.00
H71    H     0.18519   0.16119   0.80531   0.00000  Uiso   1.00
H72    H     0.14367   0.27210   0.96571   0.00000  Uiso   1.00
H73    H     0.15239   0.33475   0.62076   0.00000  Uiso   1.00
H74    H     0.21535   0.08279   0.82422   0.00000  Uiso   1.00
H75    H     0.12780   0.31668   0.16242   0.00000  Uiso   1.00
H76    H     0.14620   0.44879   0.43502   0.00000  Uiso   1.00
H77    H     0.18836   0.53251   0.89999   0.00000  Uiso   1.00
H78    H     0.21388   0.44508   0.91080   0.00000  Uiso   1.00
H79    H     0.17236   0.55599   0.07121   0.00000  Uiso   1.00
H80    H     0.18108   0.61864   0.72625   0.00000  Uiso   1.00
H81    H     0.23864   0.31321   0.90984   0.00000  Uiso   1.00
H82    H     0.15108   0.54709   0.24805   0.00000  Uiso   1.00
H83    H     0.16949   0.67920   0.52065   0.00000  Uiso   1.00
O84    O     0.24329   0.13562   0.87237   0.00000  Uiso   1.00
O85    O     0.12842   0.44247   0.31607   0.00000  Uiso   1.00
O86    O     0.15256   0.61580   0.36173   0.00000  Uiso   1.00
N87    N     0.21733   0.14903   0.84287   0.00000  Uiso   1.00
N88    N     0.13547   0.36768   0.15908   0.00000  Uiso   1.00
N89    N     0.15268   0.49120   0.47903   0.00000  Uiso   1.00
N90    N     0.22986   0.27301   0.88894   0.00000  Uiso   1.00
N91    N     0.14800   0.49167   0.20515   0.00000  Uiso   1.00
N92    N     0.16521   0.61519   0.52510   0.00000  Uiso   1.00
C93    C     0.66740   0.82505   0.82290   0.00000  Uiso   1.00
C94    C     0.68422   0.80684   0.83964   0.00000  Uiso   1.00
C95    C     0.69139   0.72246   0.82807   0.00000  Uiso   1.00
C96    C     0.70686   0.72008   0.84700   0.00000  Uiso   1.00
C97    C     0.73176   0.67975   0.86858   0.00000  Uiso   1.00
C98    C     0.66166   0.86709   0.92681   0.00000  Uiso   1.00
C99    C     0.64986   0.83338   0.98851   0.00000  Uiso   1.00
C100   C     0.64634   0.88173   0.08081   0.00000  Uiso   1.00
C101   C     0.63621   0.93499   0.23767   0.00000  Uiso   1.00
C102   C     0.66641   0.90113   0.73938   0.00000  Uiso   1.00
C103   C     0.65859   0.89605   0.64351   0.00000  Uiso   1.00
C104   C     0.65906   0.97306   0.57801   0.00000  Uiso   1.00
C105   C     0.65630   0.07916   0.44386   0.00000  Uiso   1.00
C106   C     0.68213   0.97085   0.87708   0.00000  Uiso   1.00
C107   C     0.69222   0.88604   0.86908   0.00000  Uiso   1.00
C108   C     0.70769   0.88378   0.88802   0.00000  Uiso   1.00
C109   C     0.71488   0.79941   0.87648   0.00000  Uiso   1.00
C110   C     0.66967   0.94629   0.95624   0.00000  Uiso   1.00
C111   C     0.66616   0.99470   0.04846   0.00000  Uiso   1.00
C112   C     0.65436   0.96107   0.11029   0.00000  Uiso   1.00
C113   C     0.67441   0.98032   0.76881   0.00000  Uiso   1.00
C114   C     0.67489   0.05736   0.70345   0.00000  Uiso   1.00
C115   C     0.66707   0.05240   0.60750   0.00000  Uiso   1.00
H116   H     0.66117   0.76339   0.79999   0.00000  Uiso   1.00
H117   H     0.68519   0.66119   0.80531   0.00000  Uiso   1.00
H118   H     0.64367   0.77210   0.96571   0.00000  Uiso   1.00
H119   H     0.65239   0.83475   0.62076   0.00000  Uiso   1.00
H120   H     0.71535   0.58279   0.82422   0.00000  Uiso   1.00
H121   H     0.62780   0.81668   0.16242   0.00000  Uiso   1.00
H122   H     0.64620   0.94879   0.43502   0.00000  Uiso   1.00
H123   H     0.68836   0.03251   0.89999   0.00000  Uiso   1.00
H124   H     0.71388   0.94508   0.91080   0.00000  Uiso   1.00
H125   H     0.67236   0.05599   0.07121   0.00000  Uiso   1.00
H126   H     0.68108   0.11864   0.72625   0.00000  Uiso   1.00
H127   H     0.73864   0.81321   0.90984   0.00000  Uiso   1.00
H128   H     0.65108   0.04709   0.24805   0.00000  Uiso   1.00
H129   H     0.66949   0.17920   0.52065   0.00000  Uiso   1.00
O130   O     0.74329   0.63562   0.87237   0.00000  Uiso   1.00
O131   O     0.62842   0.94247   0.31607   0.00000  Uiso   1.00
O132   O     0.65256   0.11580   0.36173   0.00000  Uiso   1.00
N133   N     0.71733   0.64903   0.84287   0.00000  Uiso   1.00
N134   N     0.63547   0.86768   0.15908   0.00000  Uiso   1.00
N135   N     0.65268   0.99120   0.47903   0.00000  Uiso   1.00
N136   N     0.72986   0.77301   0.88894   0.00000  Uiso   1.00
N137   N     0.64800   0.99167   0.20515   0.00000  Uiso   1.00
N138   N     0.66521   0.11519   0.52510   0.00000  Uiso   1.00
C139   C     0.66740   0.32505   0.32290   0.00000  Uiso   1.00
C140   C     0.68422   0.30684   0.33964   0.00000  Uiso   1.00
C141   C     0.69139   0.22246   0.32807   0.00000  Uiso   1.00
C142   C     0.70686   0.22008   0.34700   0.00000  Uiso   1.00
C143   C     0.73176   0.17975   0.36858   0.00000  Uiso   1.00
C144   C     0.66166   0.36709   0.42681   0.00000  Uiso   1.00
C145   C     0.64986   0.33338   0.48851   0.00000  Uiso   1.00
C146   C     0.64634   0.38173   0.58081   0.00000  Uiso   1.00
C147   C     0.63621   0.43499   0.73767   0.00000  Uiso   1.00
C148   C     0.66641   0.40113   0.23938   0.00000  Uiso   1.00
C149   C     0.65859   0.39605   0.14351   0.00000  Uiso   1.00
C150   C     0.65906   0.47306   0.07801   0.00000  Uiso   1.00
C151   C     0.65630   0.57916   0.94386   0.00000  Uiso   1.00
C152   C     0.68213   0.47085   0.37708   0.00000  Uiso   1.00
C153   C     0.69222   0.38604   0.36908   0.00000  Uiso   1.00
C154   C     0.70769   0.38378   0.38802   0.00000  Uiso   1.00
C155   C     0.71488   0.29941   0.37648   0.00000  Uiso   1.00
C156   C     0.66967   0.44629   0.45624   0.00000  Uiso   1.00
C157   C     0.66616   0.49470   0.54846   0.00000  Uiso   1.00
C158   C     0.65436   0.46107   0.61029   0.00000  Uiso   1.00
C159   C     0.67441   0.48032   0.26881   0.00000  Uiso   1.00
C160   C     0.67489   0.55736   0.20345   0.00000  Uiso   1.00
C161   C     0.66707   0.55240   0.10750   0.00000  Uiso   1.00
H162   H     0.66117   0.26339   0.29999   0.00000  Uiso   1.00
H163   H     0.68519   0.16119   0.30531   0.00000  Uiso   1.00
H164   H     0.64367   0.27210   0.46571   0.00000  Uiso   1.00
H165   H     0.65239   0.33475   0.12076   0.00000  Uiso   1.00
H166   H     0.71535   0.08279   0.32422   0.00000  Uiso   1.00
H167   H     0.62780   0.31668   0.66242   0.00000  Uiso   1.00
H168   H     0.64620   0.44879   0.93502   0.00000  Uiso   1.00
H169   H     0.68836   0.53251   0.39999   0.00000  Uiso   1.00
H170   H     0.71388   0.44508   0.41080   0.00000  Uiso   1.00
H171   H     0.67236   0.55599   0.57121   0.00000  Uiso   1.00
H172   H     0.68108   0.61864   0.22625   0.00000  Uiso   1.00
H173   H     0.73864   0.31321   0.40984   0.00000  Uiso   1.00
H174   H     0.65108   0.54709   0.74805   0.00000  Uiso   1.00
H175   H     0.66949   0.67920   0.02065   0.00000  Uiso   1.00
O176   O     0.74329   0.13562   0.37237   0.00000  Uiso   1.00
O177   O     0.62842   0.44247   0.81607   0.00000  Uiso   1.00
O178   O     0.65256   0.61580   0.86173   0.00000  Uiso   1.00
N179   N     0.71733   0.14903   0.34287   0.00000  Uiso   1.00
N180   N     0.63547   0.36768   0.65908   0.00000  Uiso   1.00
N181   N     0.65268   0.49120   0.97903   0.00000  Uiso   1.00
N182   N     0.72986   0.27301   0.38894   0.00000  Uiso   1.00
N183   N     0.64800   0.49167   0.70515   0.00000  Uiso   1.00
N184   N     0.66521   0.61519   0.02510   0.00000  Uiso   1.00
C185   C     0.83260   0.17495   0.32290   0.00000  Uiso   1.00
C186   C     0.81578   0.19316   0.33964   0.00000  Uiso   1.00
C187   C     0.80861   0.27754   0.32807   0.00000  Uiso   1.00
C188   C     0.79314   0.27992   0.34700   0.00000  Uiso   1.00
C189   C     0.76824   0.32025   0.36858   0.00000  Uiso   1.00
C190   C     0.83834   0.13291   0.42681   0.00000  Uiso   1.00
C191   C     0.85014   0.16662   0.48851   0.00000  Uiso   1.00
C192   C     0.85366   0.11827   0.58081   0.00000  Uiso   1.00
C193   C     0.86379   0.06501   0.73767   0.00000  Uiso   1.00
C194   C     0.83359   0.09887   0.23938   0.00000  Uiso   1.00
C195   C     0.84141   0.10395   0.14351   0.00000  Uiso   1.00
C196   C     0.84094   0.02694   0.07801   0.00000  Uiso   1.00
C197   C     0.84370   0.92084   0.94386   0.00000  Uiso   1.00
C198   C     0.81787   0.02915   0.37708   0.00000  Uiso   1.00
C199   C     0.80778   0.11396   0.36908   0.00000  Uiso   1.00
C200   C     0.79231   0.11622   0.38802   0.00000  Uiso   1.00
C201   C     0.78512   0.20059   0.37648   0.00000  Uiso   1.00
C202   C     0.83033   0.05371   0.45624   0.00000  Uiso   1.00
C203   C     0.83384   0.00530   0.54846   0.00000  Uiso   1.00
C204   C     0.84564   0.03893   0.61029   0.00000  Uiso   1.00
C205   C     0.82559   0.01968   0.26881   0.00000  Uiso   1.00
C206   C     0.82511   0.94264   0.20345   0.00000  Uiso   1.00
C207   C     0.83293   0.94760   0.10750   0.00000  Uiso   1.00
H208   H     0.83883   0.23661   0.29999   0.00000  Uiso   1.00
H209   H     0.81481   0.33881   0.30531   0.00000  Uiso   1.00
H210   H     0.85633   0.22790   0.46571   0.00000  Uiso   1.00
H211   H     0.84761   0.16525   0.12076   0.00000  Uiso   1.00
H212   H     0.78465   0.41721   0.32422   0.00000  Uiso   1.00
H213   H     0.87220   0.18332   0.66242   0.00000  Uiso   1.00
H214   H     0.85380   0.05121   0.93502   0.00000  Uiso   1.00
H215   H     0.81164   0.96749   0.39999   0.00000  Uiso   1.00
H216   H     0.78612   0.05492   0.41080   0.00000  Uiso   1.00
H217   H     0.82764   0.94401   0.57121   0.00000  Uiso   1.00
H218   H     0.81892   0.88136   0.22625   0.00000  Uiso   1.00
H219   H     0.76136   0.18679   0.40984   0.00000  Uiso   1.00
H220   H     0.84892   0.95291   0.74805   0.00000  Uiso   1.00
H221   H     0.83051   0.82080   0.02065   0.00000  Uiso   1.00
O222   O     0.75671   0.36438   0.37237   0.00000  Uiso   1.00
O223   O     0.87158   0.05753   0.81607   0.00000  Uiso   1.00
O224   O     0.84744   0.88420   0.86173   0.00000  Uiso   1.00
N225   N     0.78267   0.35097   0.34287   0.00000  Uiso   1.00
N226   N     0.86453   0.13232   0.65908   0.00000  Uiso   1.00
N227   N     0.84732   0.00880   0.97903   0.00000  Uiso   1.00
N228   N     0.77014   0.22699   0.38894   0.00000  Uiso   1.00
N229   N     0.85200   0.00833   0.70515   0.00000  Uiso   1.00
N230   N     0.83479   0.88481   0.02510   0.00000  Uiso   1.00
C231   C     0.83260   0.67495   0.82290   0.00000  Uiso   1.00
C232   C     0.81578   0.69316   0.83964   0.00000  Uiso   1.00
C233   C     0.80861   0.77754   0.82807   0.00000  Uiso   1.00
C234   C     0.79314   0.77992   0.84700   0.00000  Uiso   1.00
C235   C     0.76824   0.82025   0.86858   0.00000  Uiso   1.00
C236   C     0.83834   0.63291   0.92681   0.00000  Uiso   1.00
C237   C     0.85014   0.66662   0.98851   0.00000  Uiso   1.00
C238   C     0.85366   0.61827   0.08081   0.00000  Uiso   1.00
C239   C     0.86379   0.56501   0.23767   0.00000  Uiso   1.00
C240   C     0.83359   0.59887   0.73938   0.00000  Uiso   1.00
C241   C     0.84141   0.60395   0.64351   0.00000  Uiso   1.00
C242   C     0.84094   0.52694   0.57801   0.00000  Uiso   1.00
C243   C     0.84370   0.42084   0.44386   0.00000  Uiso   1.00
C244   C     0.81787   0.52915   0.87708   0.00000  Uiso   1.00
C245   C     0.80778   0.61396   0.86908   0.00000  Uiso   1.00
C246   C     0.79231   0.61622   0.88802   0.00000  Uiso   1.00
C247   C     0.78512   0.70059   0.87648   0.00000  Uiso   1.00
C248   C     0.83033   0.55371   0.95624   0.00000  Uiso   1.00
C249   C     0.83384   0.50530   0.04846   0.00000  Uiso   1.00
C250   C     0.84564   0.53893   0.11029   0.00000  Uiso   1.00
C251   C     0.82559   0.51968   0.76881   0.00000  Uiso   1.00
C252   C     0.82511   0.44264   0.70345   0.00000  Uiso   1.00
C253   C     0.83293   0.44760   0.60750   0.00000  Uiso   1.00
H254   H     0.83883   0.73661   0.79999   0.00000  Uiso   1.00
H255   H     0.81481   0.83881   0.80531   0.00000  Uiso   1.00
H256   H     0.85633   0.72790   0.96571   0.00000  Uiso   1.00
H257   H     0.84761   0.66525   0.62076   0.00000  Uiso   1.00
H258   H     0.78465   0.91721   0.82422   0.00000  Uiso   1.00
H259   H     0.87220   0.68332   0.16242   0.00000  Uiso   1.00
H260   H     0.85380   0.55121   0.43502   0.00000  Uiso   1.00
H261   H     0.81164   0.46749   0.89999   0.00000  Uiso   1.00
H262   H     0.78612   0.55492   0.91080   0.00000  Uiso   1.00
H263   H     0.82764   0.44401   0.07121   0.00000  Uiso   1.00
H264   H     0.81892   0.38136   0.72625   0.00000  Uiso   1.00
H265   H     0.76136   0.68679   0.90984   0.00000  Uiso   1.00
H266   H     0.84892   0.45291   0.24805   0.00000  Uiso   1.00
H267   H     0.83051   0.32080   0.52065   0.00000  Uiso   1.00
O268   O     0.75671   0.86438   0.87237   0.00000  Uiso   1.00
O269   O     0.87158   0.55753   0.31607   0.00000  Uiso   1.00
O270   O     0.84744   0.38420   0.36173   0.00000  Uiso   1.00
N271   N     0.78267   0.85097   0.84287   0.00000  Uiso   1.00
N272   N     0.86453   0.63232   0.15908   0.00000  Uiso   1.00
N273   N     0.84732   0.50880   0.47903   0.00000  Uiso   1.00
N274   N     0.77014   0.72699   0.88894   0.00000  Uiso   1.00
N275   N     0.85200   0.50833   0.20515   0.00000  Uiso   1.00
N276   N     0.83479   0.38481   0.52510   0.00000  Uiso   1.00
C277   C     0.33260   0.17495   0.82290   0.00000  Uiso   1.00
C278   C     0.31578   0.19316   0.83964   0.00000  Uiso   1.00
C279   C     0.30861   0.27754   0.82807   0.00000  Uiso   1.00
C280   C     0.29314   0.27992   0.84700   0.00000  Uiso   1.00
C281   C     0.26824   0.32025   0.86858   0.00000  Uiso   1.00
C282   C     0.33834   0.13291   0.92681   0.00000  Uiso   1.00
C283   C     0.35014   0.16662   0.98851   0.00000  Uiso   1.00
C284   C     0.35366   0.11827   0.08081   0.00000  Uiso   1.00
C285   C     0.36379   0.06501   0.23767   0.00000  Uiso   1.00
C286   C     0.33359   0.09887   0.73938   0.00000  Uiso   1.00
C287   C     0.34141   0.10395   0.64351   0.00000  Uiso   1.00
C288   C     0.34094   0.02694   0.57801   0.00000  Uiso   1.00
C289   C     0.34370   0.92084   0.44386   0.00000  Uiso   1.00
C290   C     0.31787   0.02915   0.87708   0.00000  Uiso   1.00
C291   C     0.30778   0.11396   0.86908   0.00000  Uiso   1.00
C292   C     0.29231   0.11622   0.88802   0.00000  Uiso   1.00
C293   C     0.28512   0.20059   0.87648   0.00000  Uiso   1.00
C294   C     0.33033   0.05371   0.95624   0.00000  Uiso   1.00
C295   C     0.33384   0.00530   0.04846   0.00000  Uiso   1.00
C296   C     0.34564   0.03893   0.11029   0.00000  Uiso   1.00
C297   C     0.32559   0.01968   0.76881   0.00000  Uiso   1.00
C298   C     0.32511   0.94264   0.70345   0.00000  Uiso   1.00
C299   C     0.33293   0.94760   0.60750   0.00000  Uiso   1.00
H300   H     0.33883   0.23661   0.79999   0.00000  Uiso   1.00
H301   H     0.31481   0.33881   0.80531   0.00000  Uiso   1.00
H302   H     0.35633   0.22790   0.96571   0.00000  Uiso   1.00
H303   H     0.34761   0.16525   0.62076   0.00000  Uiso   1.00
H304   H     0.28465   0.41721   0.82422   0.00000  Uiso   1.00
H305   H     0.37220   0.18332   0.16242   0.00000  Uiso   1.00
H306   H     0.35380   0.05121   0.43502   0.00000  Uiso   1.00
H307   H     0.31164   0.96749   0.89999   0.00000  Uiso   1.00
H308   H     0.28612   0.05492   0.91080   0.00000  Uiso   1.00
H309   H     0.32764   0.94401   0.07121   0.00000  Uiso   1.00
H310   H     0.31892   0.88136   0.72625   0.00000  Uiso   1.00
H311   H     0.26136   0.18679   0.90984   0.00000  Uiso   1.00
H312   H     0.34892   0.95291   0.24805   0.00000  Uiso   1.00
H313   H     0.33051   0.82080   0.52065   0.00000  Uiso   1.00
O314   O     0.25671   0.36438   0.87237   0.00000  Uiso   1.00
O315   O     0.37158   0.05753   0.31607   0.00000  Uiso   1.00
O316   O     0.34744   0.88420   0.36173   0.00000  Uiso   1.00
N317   N     0.28267   0.35097   0.84287   0.00000  Uiso   1.00
N318   N     0.36453   0.13232   0.15908   0.00000  Uiso   1.00
N319   N     0.34732   0.00880   0.47903   0.00000  Uiso   1.00
N320   N     0.27014   0.22699   0.88894   0.00000  Uiso   1.00
N321   N     0.35200   0.00833   0.20515   0.00000  Uiso   1.00
N322   N     0.33479   0.88481   0.52510   0.00000  Uiso   1.00
C323   C     0.33260   0.67495   0.32290   0.00000  Uiso   1.00
C324   C     0.31578   0.69316   0.33964   0.00000  Uiso   1.00
C325   C     0.30861   0.77754   0.32807   0.00000  Uiso   1.00
C326   C     0.29314   0.77992   0.34700   0.00000  Uiso   1.00
C327   C     0.26824   0.82025   0.36858   0.00000  Uiso   1.00
C328   C     0.33834   0.63291   0.42681   0.00000  Uiso   1.00
C329   C     0.35014   0.66662   0.48851   0.00000  Uiso   1.00
C330   C     0.35366   0.61827   0.58081   0.00000  Uiso   1.00
C331   C     0.36379   0.56501   0.73767   0.00000  Uiso   1.00
C332   C     0.33359   0.59887   0.23938   0.00000  Uiso   1.00
C333   C     0.34141   0.60395   0.14351   0.00000  Uiso   1.00
C334   C     0.34094   0.52694   0.07801   0.00000  Uiso   1.00
C335   C     0.34370   0.42084   0.94386   0.00000  Uiso   1.00
C336   C     0.31787   0.52915   0.37708   0.00000  Uiso   1.00
C337   C     0.30778   0.61396   0.36908   0.00000  Uiso   1.00
C338   C     0.29231   0.61622   0.38802   0.00000  Uiso   1.00
C339   C     0.28512   0.70059   0.37648   0.00000  Uiso   1.00
C340   C     0.33033   0.55371   0.45624   0.00000  Uiso   1.00
C341   C     0.33384   0.50530   0.54846   0.00000  Uiso   1.00
C342   C     0.34564   0.53893   0.61029   0.00000  Uiso   1.00
C343   C     0.32559   0.51968   0.26881   0.00000  Uiso   1.00
C344   C     0.32511   0.44264   0.20345   0.00000  Uiso   1.00
C345   C     0.33293   0.44760   0.10750   0.00000  Uiso   1.00
H346   H     0.33883   0.73661   0.29999   0.00000  Uiso   1.00
H347   H     0.31481   0.83881   0.30531   0.00000  Uiso   1.00
H348   H     0.35633   0.72790   0.46571   0.00000  Uiso   1.00
H349   H     0.34761   0.66525   0.12076   0.00000  Uiso   1.00
H350   H     0.28465   0.91721   0.32422   0.00000  Uiso   1.00
H351   H     0.37220   0.68332   0.66242   0.00000  Uiso   1.00
H352   H     0.35380   0.55121   0.93502   0.00000  Uiso   1.00
H353   H     0.31164   0.46749   0.39999   0.00000  Uiso   1.00
H354   H     0.28612   0.55492   0.41080   0.00000  Uiso   1.00
H355   H     0.32764   0.44401   0.57121   0.00000  Uiso   1.00
H356   H     0.31892   0.38136   0.22625   0.00000  Uiso   1.00
H357   H     0.26136   0.68679   0.40984   0.00000  Uiso   1.00
H358   H     0.34892   0.45291   0.74805   0.00000  Uiso   1.00
H359   H     0.33051   0.32080   0.02065   0.00000  Uiso   1.00
O360   O     0.25671   0.86438   0.37237   0.00000  Uiso   1.00
O361   O     0.37158   0.55753   0.81607   0.00000  Uiso   1.00
O362   O     0.34744   0.38420   0.86173   0.00000  Uiso   1.00
N363   N     0.28267   0.85097   0.34287   0.00000  Uiso   1.00
N364   N     0.36453   0.63232   0.65908   0.00000  Uiso   1.00
N365   N     0.34732   0.50880   0.97903   0.00000  Uiso   1.00
N366   N     0.27014   0.72699   0.38894   0.00000  Uiso   1.00
N367   N     0.35200   0.50833   0.70515   0.00000  Uiso   1.00
N368   N     0.33479   0.38481   0.02510   0.00000  Uiso   1.00
C369   C     0.41740   0.42495   0.57290   0.00000  Uiso   1.00
C370   C     0.43422   0.44316   0.58964   0.00000  Uiso   1.00
C371   C     0.44139   0.52754   0.57807   0.00000  Uiso   1.00
C372   C     0.45686   0.52992   0.59700   0.00000  Uiso   1.00
C373   C     0.48176   0.57025   0.61858   0.00000  Uiso   1.00
C374   C     0.41166   0.38291   0.67681   0.00000  Uiso   1.00
C375   C     0.39986   0.41662   0.73851   0.00000  Uiso   1.00
C376   C     0.39634   0.36827   0.83081   0.00000  Uiso   1.00
C377   C     0.38621   0.31501   0.98767   0.00000  Uiso   1.00
C378   C     0.41641   0.34887   0.48938   0.00000  Uiso   1.00
C379   C     0.40859   0.35395   0.39351   0.00000  Uiso   1.00
C380   C     0.40906   0.27694   0.32801   0.00000  Uiso   1.00
C381   C     0.40630   0.17084   0.19386   0.00000  Uiso   1.00
C382   C     0.43213   0.27915   0.62708   0.00000  Uiso   1.00
C383   C     0.44222   0.36396   0.61908   0.00000  Uiso   1.00
C384   C     0.45769   0.36622   0.63802   0.00000  Uiso   1.00
C385   C     0.46488   0.45059   0.62648   0.00000  Uiso   1.00
C386   C     0.41967   0.30371   0.70624   0.00000  Uiso   1.00
C387   C     0.41616   0.25530   0.79846   0.00000  Uiso   1.00
C388   C     0.40436   0.28893   0.86029   0.00000  Uiso   1.00
C389   C     0.42441   0.26968   0.51881   0.00000  Uiso   1.00
C390   C     0.42489   0.19264   0.45345   0.00000  Uiso   1.00
C391   C     0.41707   0.19760   0.35750   0.00000  Uiso   1.00
H392   H     0.41117   0.48661   0.54999   0.00000  Uiso   1.00
H393   H     0.43519   0.58881   0.55531   0.00000  Uiso   1.00
H394   H     0.39367   0.47790   0.71571   0.00000  Uiso   1.00
H395   H     0.40239   0.41525   0.37076   0.00000  Uiso   1.00
H396   H     0.46535   0.66721   0.57422   0.00000  Uiso   1.00
H397   H     0.37780   0.43332   0.91242   0.00000  Uiso   1.00
H398   H     0.39620   0.30121   0.18502   0.00000  Uiso   1.00
H399   H     0.43836   0.21749   0.64999   0.00000  Uiso   1.00
H400   H     0.46388   0.30492   0.66080   0.00000  Uiso   1.00
H401   H     0.42236   0.19401   0.82121   0.00000  Uiso   1.00
H402   H     0.43108   0.13136   0.47625   0.00000  Uiso   1.00
H403   H     0.48864   0.43679   0.65984   0.00000  Uiso   1.00
H404   H     0.40108   0.20291   0.99805   0.00000  Uiso   1.00
H405   H     0.41949   0.07080   0.27065   0.00000  Uiso   1.00
O406   O     0.49329   0.61438   0.62237   0.00000  Uiso   1.00
O407   O     0.37842   0.30753   0.06607   0.00000  Uiso   1.00
O408   O     0.40256   0.13420   0.11173   0.00000  Uiso   1.00
N409   N     0.46733   0.60097   0.59287   0.00000  Uiso   1.00
N410   N     0.38547   0.38232   0.90908   0.00000  Uiso   1.00
N411   N     0.40268   0.25880   0.22903   0.00000  Uiso   1.00
N412   N     0.47986   0.47699   0.63894   0.00000  Uiso   1.00
N413   N     0.39800   0.25833   0.95515   0.00000  Uiso   1.00
N414   N     0.41521   0.13481   0.27510   0.00000  Uiso   1.00
C415   C     0.41740   0.92495   0.07290   0.00000  Uiso   1.00
C416   C     0.43422   0.94316   0.08964   0.00000  Uiso   1.00
C417   C     0.44139   0.02754   0.07807   0.00000  Uiso   1.00
C418   C     0.45686   0.02992   0.09700   0.00000  Uiso   1.00
C419   C     0.48176   0.07025   0.11858   0.00000  Uiso   1.00
C420   C     0.41166   0.88291   0.17681   0.00000  Uiso   1.00
C421   C     0.39986   0.91662   0.23851   0.00000  Uiso   1.00
C422   C     0.39634   0.86827   0.33081   0.00000  Uiso   1.00
C423   C     0.38621   0.81501   0.48767   0.00000  Uiso   1.00
C424   C     0.41641   0.84887   0.98938   0.00000  Uiso   1.00
C425   C     0.40859   0.85395   0.89351   0.00000  Uiso   1.00
C426   C     0.40906   0.77694   0.82801   0.00000  Uiso   1.00
C427   C     0.40630   0.67084   0.69386   0.00000  Uiso   1.00
C428   C     0.43213   0.77915   0.12708   0.00000  Uiso   1.00
C429   C     0.44222   0.86396   0.11908   0.00000  Uiso   1.00
C430   C     0.45769   0.86622   0.13802   0.00000  Uiso   1.00
C431   C     0.46488   0.95059   0.12648   0.00000  Uiso   1.00
C432   C     0.41967   0.80371   0.20624   0.00000  Uiso   1.00
C433   C     0.41616   0.75530   0.29846   0.00000  Uiso   1.00
C434   C     0.40436   0.78893   0.36029   0.00000  Uiso   1.00
C435   C     0.42441   0.76968   0.01881   0.00000  Uiso   1.00
C436   C     0.42489   0.69264   0.95345   0.00000  Uiso   1.00
C437   C     0.41707   0.69760   0.85750   0.00000  Uiso   1.00
H438   H     0.41117   0.98661   0.04999   0.00000  Uiso   1.00
H439   H     0.43519   0.08881   0.05531   0.00000  Uiso   1.00
H440   H     0.39367   0.97790   0.21571   0.00000  Uiso   1.00
H441   H     0.40239   0.91525   0.87076   0.00000  Uiso   1.00
H442   H     0.46535   0.16721   0.07422   0.00000  Uiso   1.00
H443   H     0.37780   0.93332   0.41242   0.00000  Uiso   1.00
H444   H     0.39620   0.80121   0.68502   0.00000  Uiso   1.00
H445   H     0.43836   0.71749   0.14999   0.00000  Uiso   1.00
H446   H     0.46388   0.80492   0.16080   0.00000  Uiso   1.00
H447   H     0.42236   0.69401   0.32121   0.00000  Uiso   1.00
H448   H     0.43108   0.63136   0.97625   0.00000  Uiso   1.00
H449   H     0.48864   0.93679   0.15984   0.00000  Uiso   1.00
H450   H     0.40108   0.70291   0.49805   0.00000  Uiso   1.00
H451   H     0.41949   0.57080   0.77065   0.00000  Uiso   1.00
O452   O     0.49329   0.11438   0.12237   0.00000  Uiso   1.00
O453   O     0.37842   0.80753   0.56607   0.00000  Uiso   1.00
O454   O     0.40256   0.63420   0.61173   0.00000  Uiso   1.00
N455   N     0.46733   0.10097   0.09287   0.00000  Uiso   1.00
N456   N     0.38547   0.88232   0.40908   0.00000  Uiso   1.00
N457   N     0.40268   0.75880   0.72903   0.00000  Uiso   1.00
N458   N     0.47986   0.97699   0.13894   0.00000  Uiso   1.00
N459   N     0.39800   0.75833   0.45515   0.00000  Uiso   1.00
N460   N     0.41521   0.63481   0.77510   0.00000  Uiso   1.00
C461   C     0.91740   0.42495   0.07290   0.00000  Uiso   1.00
C462   C     0.93422   0.44316   0.08964   0.00000  Uiso   1.00
C463   C     0.94139   0.52754   0.07807   0.00000  Uiso   1.00
C464   C     0.95686   0.52992   0.09700   0.00000  Uiso   1.00
C465   C     0.98176   0.57025   0.11858   0.00000  Uiso   1.00
C466   C     0.91166   0.38291   0.17681   0.00000  Uiso   1.00
C467   C     0.89986   0.41662   0.23851   0.00000  Uiso   1.00
C468   C     0.89634   0.36827   0.33081   0.00000  Uiso   1.00
C469   C     0.88621   0.31501   0.48767   0.00000  Uiso   1.00
C470   C     0.91641   0.34887   0.98938   0.00000  Uiso   1.00
C471   C     0.90859   0.35395   0.89351   0.00000  Uiso   1.00
C472   C     0.90906   0.27694   0.82801   0.00000  Uiso   1.00
C473   C     0.90630   0.17084   0.69386   0.00000  Uiso   1.00
C474   C     0.93213   0.27915   0.12708   0.00000  Uiso   1.00
C475   C     0.94222   0.36396   0.11908   0.00000  Uiso   1.00
C476   C     0.95769   0.36622   0.13802   0.00000  Uiso   1.00
C477   C     0.96488   0.45059   0.12648   0.00000  Uiso   1.00
C478   C     0.91967   0.30371   0.20624   0.00000  Uiso   1.00
C479   C     0.91616   0.25530   0.29846   0.00000  Uiso   1.00
C480   C     0.90436   0.28893   0.36029   0.00000  Uiso   1.00
C481   C     0.92441   0.26968   0.01881   0.00000  Uiso   1.00
C482   C     0.92489   0.19264   0.95345   0.00000  Uiso   1.00
C483   C     0.91707   0.19760   0.85750   0.00000  Uiso   1.00
H484   H     0.91117   0.48661   0.04999   0.00000  Uiso   1.00
H485   H     0.93519   0.58881   0.05531   0.00000  Uiso   1.00
H486   H     0.89367   0.47790   0.21571   0.00000  Uiso   1.00
H487   H     0.90239   0.41525   0.87076   0.00000  Uiso   1.00
H488   H     0.96535   0.66721   0.07422   0.00000  Uiso   1.00
H489   H     0.87780   0.43332   0.41242   0.00000  Uiso   1.00
H490   H     0.89620   0.30121   0.68502   0.00000  Uiso   1.00
H491   H     0.93836   0.21749   0.14999   0.00000  Uiso   1.00
H492   H     0.96388   0.30492   0.16080   0.00000  Uiso   1.00
H493   H     0.92236   0.19401   0.32121   0.00000  Uiso   1.00
H494   H     0.93108   0.13136   0.97625   0.00000  Uiso   1.00
H495   H     0.98864   0.43679   0.15984   0.00000  Uiso   1.00
H496   H     0.90108   0.20291   0.49805   0.00000  Uiso   1.00
H497   H     0.91949   0.07080   0.77065   0.00000  Uiso   1.00
O498   O     0.99329   0.61438   0.12237   0.00000  Uiso   1.00
O499   O     0.87842   0.30753   0.56607   0.00000  Uiso   1.00
O500   O     0.90256   0.13420   0.61173   0.00000  Uiso   1.00
N501   N     0.96733   0.60097   0.09287   0.00000  Uiso   1.00
N502   N     0.88547   0.38232   0.40908   0.00000  Uiso   1.00
N503   N     0.90268   0.25880   0.72903   0.00000  Uiso   1.00
N504   N     0.97986   0.47699   0.13894   0.00000  Uiso   1.00
N505   N     0.89800   0.25833   0.45515   0.00000  Uiso   1.00
N506   N     0.91521   0.13481   0.77510   0.00000  Uiso   1.00
C507   C     0.91740   0.92495   0.57290   0.00000  Uiso   1.00
C508   C     0.93422   0.94316   0.58964   0.00000  Uiso   1.00
C509   C     0.94139   0.02754   0.57807   0.00000  Uiso   1.00
C510   C     0.95686   0.02992   0.59700   0.00000  Uiso   1.00
C511   C     0.98176   0.07025   0.61858   0.00000  Uiso   1.00
C512   C     0.91166   0.88291   0.67681   0.00000  Uiso   1.00
C513   C     0.89986   0.91662   0.73851   0.00000  Uiso   1.00
C514   C     0.89634   0.86827   0.83081   0.00000  Uiso   1.00
C515   C     0.88621   0.81501   0.98767   0.00000  Uiso   1.00
C516   C     0.91641   0.84887   0.48938   0.00000  Uiso   1.00
C517   C     0.90859   0.85395   0.39351   0.00000  Uiso   1.00
C518   C     0.90906   0.77694   0.32801   0.00000  Uiso   1.00
C519   C     0.90630   0.67084   0.19386   0.00000  Uiso   1.00
C520   C     0.93213   0.77915   0.62708   0.00000  Uiso   1.00
C521   C     0.94222   0.86396   0.61908   0.00000  Uiso   1.00
C522   C     0.95769   0.86622   0.63802   0.00000  Uiso   1.00
C523   C     0.96488   0.95059   0.62648   0.00000  Uiso   1.00
C524   C     0.91967   0.80371   0.70624   0.00000  Uiso   1.00
C525   C     0.91616   0.75530   0.79846   0.00000  Uiso   1.00
C526   C     0.90436   0.78893   0.86029   0.00000  Uiso   1.00
C527   C     0.92441   0.76968   0.51881   0.00000  Uiso   1.00
C528   C     0.92489   0.69264   0.45345   0.00000  Uiso   1.00
C529   C     0.91707   0.69760   0.35750   0.00000  Uiso   1.00
H530   H     0.91117   0.98661   0.54999   0.00000  Uiso   1.00
H531   H     0.93519   0.08881   0.55531   0.00000  Uiso   1.00
H532   H     0.89367   0.97790   0.71571   0.00000  Uiso   1.00
H533   H     0.90239   0.91525   0.37076   0.00000  Uiso   1.00
H534   H     0.96535   0.16721   0.57422   0.00000  Uiso   1.00
H535   H     0.87780   0.93332   0.91242   0.00000  Uiso   1.00
H536   H     0.89620   0.80121   0.18502   0.00000  Uiso   1.00
H537   H     0.93836   0.71749   0.64999   0.00000  Uiso   1.00
H538   H     0.96388   0.80492   0.66080   0.00000  Uiso   1.00
H539   H     0.92236   0.69401   0.82121   0.00000  Uiso   1.00
H540   H     0.93108   0.63136   0.47625   0.00000  Uiso   1.00
H541   H     0.98864   0.93679   0.65984   0.00000  Uiso   1.00
H542   H     0.90108   0.70291   0.99805   0.00000  Uiso   1.00
H543   H     0.91949   0.57080   0.27065   0.00000  Uiso   1.00
O544   O     0.99329   0.11438   0.62237   0.00000  Uiso   1.00
O545   O     0.87842   0.80753   0.06607   0.00000  Uiso   1.00
O546   O     0.90256   0.63420   0.11173   0.00000  Uiso   1.00
N547   N     0.96733   0.10097   0.59287   0.00000  Uiso   1.00
N548   N     0.88547   0.88232   0.90908   0.00000  Uiso   1.00
N549   N     0.90268   0.75880   0.22903   0.00000  Uiso   1.00
N550   N     0.97986   0.97699   0.63894   0.00000  Uiso   1.00
N551   N     0.89800   0.75833   0.95515   0.00000  Uiso   1.00
N552   N     0.91521   0.63481   0.27510   0.00000  Uiso   1.00
C553   C     0.08260   0.07505   0.57290   0.00000  Uiso   1.00
C554   C     0.06578   0.05684   0.58964   0.00000  Uiso   1.00
C555   C     0.05861   0.97246   0.57807   0.00000  Uiso   1.00
C556   C     0.04314   0.97008   0.59700   0.00000  Uiso   1.00
C557   C     0.01824   0.92975   0.61858   0.00000  Uiso   1.00
C558   C     0.08834   0.11709   0.67681   0.00000  Uiso   1.00
C559   C     0.10014   0.08338   0.73851   0.00000  Uiso   1.00
C560   C     0.10366   0.13173   0.83081   0.00000  Uiso   1.00
C561   C     0.11379   0.18499   0.98767   0.00000  Uiso   1.00
C562   C     0.08359   0.15113   0.48938   0.00000  Uiso   1.00
C563   C     0.09141   0.14605   0.39351   0.00000  Uiso   1.00
C564   C     0.09094   0.22306   0.32801   0.00000  Uiso   1.00
C565   C     0.09370   0.32916   0.19386   0.00000  Uiso   1.00
C566   C     0.06787   0.22085   0.62708   0.00000  Uiso   1.00
C567   C     0.05778   0.13604   0.61908   0.00000  Uiso   1.00
C568   C     0.04231   0.13378   0.63802   0.00000  Uiso   1.00
C569   C     0.03512   0.04941   0.62648   0.00000  Uiso   1.00
C570   C     0.08033   0.19629   0.70624   0.00000  Uiso   1.00
C571   C     0.08384   0.24470   0.79846   0.00000  Uiso   1.00
C572   C     0.09564   0.21107   0.86029   0.00000  Uiso   1.00
C573   C     0.07559   0.23032   0.51881   0.00000  Uiso   1.00
C574   C     0.07511   0.30736   0.45345   0.00000  Uiso   1.00
C575   C     0.08293   0.30240   0.35750   0.00000  Uiso   1.00
H576   H     0.08883   0.01339   0.54999   0.00000  Uiso   1.00
H577   H     0.06481   0.91119   0.55531   0.00000  Uiso   1.00
H578   H     0.10633   0.02210   0.71571   0.00000  Uiso   1.00
H579   H     0.09761   0.08475   0.37076   0.00000  Uiso   1.00
H580   H     0.03465   0.83279   0.57422   0.00000  Uiso   1.00
H581   H     0.12220   0.06668   0.91242   0.00000  Uiso   1.00
H582   H     0.10380   0.19879   0.18502   0.00000  Uiso   1.00
H583   H     0.06164   0.28251   0.64999   0.00000  Uiso   1.00
H584   H     0.03612   0.19508   0.66080   0.00000  Uiso   1.00
H585   H     0.07764   0.30599   0.82121   0.00000  Uiso   1.00
H586   H     0.06892   0.36864   0.47625   0.00000  Uiso   1.00
H587   H     0.01136   0.06321   0.65984   0.00000  Uiso   1.00
H588   H     0.09892   0.29709   0.99805   0.00000  Uiso   1.00
H589   H     0.08051   0.42920   0.27065   0.00000  Uiso   1.00
O590   O     0.00671   0.88562   0.62237   0.00000  Uiso   1.00
O591   O     0.12158   0.19247   0.06607   0.00000  Uiso   1.00
O592   O     0.09744   0.36580   0.11173   0.00000  Uiso   1.00
N593   N     0.03267   0.89903   0.59287   0.00000  Uiso   1.00
N594   N     0.11453   0.11768   0.90908   0.00000  Uiso   1.00
N595   N     0.09732   0.24120   0.22903   0.00000  Uiso   1.00
N596   N     0.02014   0.02301   0.63894   0.00000  Uiso   1.00
N597   N     0.10200   0.24167   0.95515   0.00000  Uiso   1.00
N598   N     0.08479   0.36519   0.27510   0.00000  Uiso   1.00
C599   C     0.08260   0.57505   0.07290   0.00000  Uiso   1.00
C600   C     0.06578   0.55684   0.08964   0.00000  Uiso   1.00
C601   C     0.05861   0.47246   0.07807   0.00000  Uiso   1.00
C602   C     0.04314   0.47008   0.09700   0.00000  Uiso   1.00
C603   C     0.01824   0.42975   0.11858   0.00000  Uiso   1.00
C604   C     0.08834   0.61709   0.17681   0.00000  Uiso   1.00
C605   C     0.10014   0.58338   0.23851   0.00000  Uiso   1.00
C606   C     0.10366   0.63173   0.33081   0.00000  Uiso   1.00
C607   C     0.11379   0.68499   0.48767   0.00000  Uiso   1.00
C608   C     0.08359   0.65113   0.98938   0.00000  Uiso   1.00
C609   C     0.09141   0.64605   0.89351   0.00000  Uiso   1.00
C610   C     0.09094   0.72306   0.82801   0.00000  Uiso   1.00
C611   C     0.09370   0.82916   0.69386   0.00000  Uiso   1.00
C612   C     0.06787   0.72085   0.12708   0.00000  Uiso   1.00
C613   C     0.05778   0.63604   0.11908   0.00000  Uiso   1.00
C614   C     0.04231   0.63378   0.13802   0.00000  Uiso   1.00
C615   C     0.03512   0.54941   0.12648   0.00000  Uiso   1.00
C616   C     0.08033   0.69629   0.20624   0.00000  Uiso   1.00
C617   C     0.08384   0.74470   0.29846   0.00000  Uiso   1.00
C618   C     0.09564   0.71107   0.36029   0.00000  Uiso   1.00
C619   C     0.07559   0.73032   0.01881   0.00000  Uiso   1.00
C620   C     0.07511   0.80736   0.95345   0.00000  Uiso   1.00
C621   C     0.08293   0.80240   0.85750   0.00000  Uiso   1.00
H622   H     0.08883   0.51339   0.04999   0.00000  Uiso   1.00
H623   H     0.06481   0.41119   0.05531   0.00000  Uiso   1.00
H624   H     0.10633   0.52210   0.21571   0.00000  Uiso   1.00
H625   H     0.09761   0.58475   0.87076   0.00000  Uiso   1.00
H626   H     0.03465   0.33279   0.07422   0.00000  Uiso   1.00
H627   H     0.12220   0.56668   0.41242   0.00000  Uiso   1.00
H628   H     0.10380   0.69879   0.68502   0.00000  Uiso   1.00
H629   H     0.06164   0.78251   0.14999   0.00000  Uiso   1.00
H630   H     0.03612   0.69508   0.16080   0.00000  Uiso   1.00
H631   H     0.07764   0.80599   0.32121   0.00000  Uiso   1.00
H632   H     0.06892   0.86864   0.97625   0.00000  Uiso   1.00
H633   H     0.01136   0.56321   0.15984   0.00000  Uiso   1.00
H634   H     0.09892   0.79709   0.49805   0.00000  Uiso   1.00
H635   H     0.08051   0.92920   0.77065   0.00000  Uiso   1.00
O636   O     0.00671   0.38562   0.12237   0.00000  Uiso   1.00
O637   O     0.12158   0.69247   0.56607   0.00000  Uiso   1.00
O638   O     0.09744   0.86580   0.61173   0.00000  Uiso   1.00
N639   N     0.03267   0.39903   0.09287   0.00000  Uiso   1.00
N640   N     0.11453   0.61768   0.40908   0.00000  Uiso   1.00
N641   N     0.09732   0.74120   0.72903   0.00000  Uiso   1.00
N642   N     0.02014   0.52301   0.13894   0.00000  Uiso   1.00
N643   N     0.10200   0.74167   0.45515   0.00000  Uiso   1.00
N644   N     0.08479   0.86519   0.77510   0.00000  Uiso   1.00
C645   C     0.58260   0.07505   0.07290   0.00000  Uiso   1.00
C646   C     0.56578   0.05684   0.08964   0.00000  Uiso   1.00
C647   C     0.55861   0.97246   0.07807   0.00000  Uiso   1.00
C648   C     0.54314   0.97008   0.09700   0.00000  Uiso   1.00
C649   C     0.51824   0.92975   0.11858   0.00000  Uiso   1.00
C650   C     0.58834   0.11709   0.17681   0.00000  Uiso   1.00
C651   C     0.60014   0.08338   0.23851   0.00000  Uiso   1.00
C652   C     0.60366   0.13173   0.33081   0.00000  Uiso   1.00
C653   C     0.61379   0.18499   0.48767   0.00000  Uiso   1.00
C654   C     0.58359   0.15113   0.98938   0.00000  Uiso   1.00
C655   C     0.59141   0.14605   0.89351   0.00000  Uiso   1.00
C656   C     0.59094   0.22306   0.82801   0.00000  Uiso   1.00
C657   C     0.59370   0.32916   0.69386   0.00000  Uiso   1.00
C658   C     0.56787   0.22085   0.12708   0.00000  Uiso   1.00
C659   C     0.55778   0.13604   0.11908   0.00000  Uiso   1.00
C660   C     0.54231   0.13378   0.13802   0.00000  Uiso   1.00
C661   C     0.53512   0.04941   0.12648   0.00000  Uiso   1.00
C662   C     0.58033   0.19629   0.20624   0.00000  Uiso   1.00
C663   C     0.58384   0.24470   0.29846   0.00000  Uiso   1.00
C664   C     0.59564   0.21107   0.36029   0.00000  Uiso   1.00
C665   C     0.57559   0.23032   0.01881   0.00000  Uiso   1.00
C666   C     0.57511   0.30736   0.95345   0.00000  Uiso   1.00
C667   C     0.58293   0.30240   0.85750   0.00000  Uiso   1.00
H668   H     0.58883   0.01339   0.04999   0.00000  Uiso   1.00
H669   H     0.56481   0.91119   0.05531   0.00000  Uiso   1.00
H670   H     0.60633   0.02210   0.21571   0.00000  Uiso   1.00
H671   H     0.59761   0.08475   0.87076   0.00000  Uiso   1.00
H672   H     0.53465   0.83279   0.07422   0.00000  Uiso   1.00
H673   H     0.62220   0.06668   0.41242   0.00000  Uiso   1.00
H674   H     0.60380   0.19879   0.68502   0.00000  Uiso   1.00
H675   H     0.56164   0.28251   0.14999   0.00000  Uiso   1.00
H676   H     0.53612   0.19508   0.16080   0.00000  Uiso   1.00
H677   H     0.57764   0.30599   0.32121   0.00000  Uiso   1.00
H678   H     0.56892   0.36864   0.97625   0.00000  Uiso   1.00
H679   H     0.51136   0.06321   0.15984   0.00000  Uiso   1.00
H680   H     0.59892   0.29709   0.49805   0.00000  Uiso   1.00
H681   H     0.58051   0.42920   0.77065   0.00000  Uiso   1.00
O682   O     0.50671   0.88562   0.12237   0.00000  Uiso   1.00
O683   O     0.62158   0.19247   0.56607   0.00000  Uiso   1.00
O684   O     0.59744   0.36580   0.61173   0.00000  Uiso   1.00
N685   N     0.53267   0.89903   0.09287   0.00000  Uiso   1.00
N686   N     0.61453   0.11768   0.40908   0.00000  Uiso   1.00
N687   N     0.59732   0.24120   0.72903   0.00000  Uiso   1.00
N688   N     0.52014   0.02301   0.13894   0.00000  Uiso   1.00
N689   N     0.60200   0.24167   0.45515   0.00000  Uiso   1.00
N690   N     0.58479   0.36519   0.77510   0.00000  Uiso   1.00
C691   C     0.58260   0.57505   0.57290   0.00000  Uiso   1.00
C692   C     0.56578   0.55684   0.58964   0.00000  Uiso   1.00
C693   C     0.55861   0.47246   0.57807   0.00000  Uiso   1.00
C694   C     0.54314   0.47008   0.59700   0.00000  Uiso   1.00
C695   C     0.51824   0.42975   0.61858   0.00000  Uiso   1.00
C696   C     0.58834   0.61709   0.67681   0.00000  Uiso   1.00
C697   C     0.60014   0.58338   0.73851   0.00000  Uiso   1.00
C698   C     0.60366   0.63173   0.83081   0.00000  Uiso   1.00
C699   C     0.61379   0.68499   0.98767   0.00000  Uiso   1.00
C700   C     0.58359   0.65113   0.48938   0.00000  Uiso   1.00
C701   C     0.59141   0.64605   0.39351   0.00000  Uiso   1.00
C702   C     0.59094   0.72306   0.32801   0.00000  Uiso   1.00
C703   C     0.59370   0.82916   0.19386   0.00000  Uiso   1.00
C704   C     0.56787   0.72085   0.62708   0.00000  Uiso   1.00
C705   C     0.55778   0.63604   0.61908   0.00000  Uiso   1.00
C706   C     0.54231   0.63378   0.63802   0.00000  Uiso   1.00
C707   C     0.53512   0.54941   0.62648   0.00000  Uiso   1.00
C708   C     0.58033   0.69629   0.70624   0.00000  Uiso   1.00
C709   C     0.58384   0.74470   0.79846   0.00000  Uiso   1.00
C710   C     0.59564   0.71107   0.86029   0.00000  Uiso   1.00
C711   C     0.57559   0.73032   0.51881   0.00000  Uiso   1.00
C712   C     0.57511   0.80736   0.45345   0.00000  Uiso   1.00
C713   C     0.58293   0.80240   0.35750   0.00000  Uiso   1.00
H714   H     0.58883   0.51339   0.54999   0.00000  Uiso   1.00
H715   H     0.56481   0.41119   0.55531   0.00000  Uiso   1.00
H716   H     0.60633   0.52210   0.71571   0.00000  Uiso   1.00
H717   H     0.59761   0.58475   0.37076   0.00000  Uiso   1.00
H718   H     0.53465   0.33279   0.57422   0.00000  Uiso   1.00
H719   H     0.62220   0.56668   0.91242   0.00000  Uiso   1.00
H720   H     0.60380   0.69879   0.18502   0.00000  Uiso   1.00
H721   H     0.56164   0.78251   0.64999   0.00000  Uiso   1.00
H722   H     0.53612   0.69508   0.66080   0.00000  Uiso   1.00
H723   H     0.57764   0.80599   0.82121   0.00000  Uiso   1.00
H724   H     0.56892   0.86864   0.47625   0.00000  Uiso   1.00
H725   H     0.51136   0.56321   0.65984   0.00000  Uiso   1.00
H726   H     0.59892   0.79709   0.99805   0.00000  Uiso   1.00
H727   H     0.58051   0.92920   0.27065   0.00000  Uiso   1.00
O728   O     0.50671   0.38562   0.62237   0.00000  Uiso   1.00
O729   O     0.62158   0.69247   0.06607   0.00000  Uiso   1.00
O730   O     0.59744   0.86580   0.11173   0.00000  Uiso   1.00
N731   N     0.53267   0.39903   0.59287   0.00000  Uiso   1.00
N732   N     0.61453   0.61768   0.90908   0.00000  Uiso   1.00
N733   N     0.59732   0.74120   0.22903   0.00000  Uiso   1.00
N734   N     0.52014   0.52301   0.63894   0.00000  Uiso   1.00
N735   N     0.60200   0.74167   0.95515   0.00000  Uiso   1.00
N736   N     0.58479   0.86519   0.27510   0.00000  Uiso   1.00
