data_job_02250
_audit_creation_date              2018-12-19
_audit_creation_method            'Materials Studio'
_symmetry_space_group_name_H-M    'P1'
_symmetry_Int_Tables_number       1
_symmetry_cell_setting            triclinic
loop_
_symmetry_equiv_pos_as_xyz
  x,y,z
_cell_length_a                    22.1361
_cell_length_b                    40.7780
_cell_length_c                    11.2328
_cell_angle_alpha                 90.0000
_cell_angle_beta                  90.0000
_cell_angle_gamma                 90.0000
loop_
_atom_site_label
_atom_site_type_symbol
_atom_site_fract_x
_atom_site_fract_y
_atom_site_fract_z
_atom_site_U_iso_or_equiv
_atom_site_adp_type
_atom_site_occupancy
C1     C     0.66413   0.69222   0.67034   0.00000  Uiso   1.00
C2     C     0.59603   0.69782   0.66752   0.00000  Uiso   1.00
C3     C     0.56716   0.72535   0.62237   0.00000  Uiso   1.00
C4     C     0.50451   0.72579   0.62800   0.00000  Uiso   1.00
C5     C     0.40372   0.73846   0.61612   0.00000  Uiso   1.00
C6     C     0.67507   0.65998   0.60506   0.00000  Uiso   1.00
C7     C     0.71266   0.65568   0.50741   0.00000  Uiso   1.00
C8     C     0.71655   0.62426   0.46047   0.00000  Uiso   1.00
C9     C     0.73851   0.57816   0.35167   0.00000  Uiso   1.00
C10    C     0.68022   0.68585   0.80029   0.00000  Uiso   1.00
C11    C     0.72216   0.70330   0.86678   0.00000  Uiso   1.00
C12    C     0.73039   0.69366   0.98420   0.00000  Uiso   1.00
C13    C     0.76035   0.68774   0.17852   0.00000  Uiso   1.00
C14    C     0.60421   0.64404   0.76062   0.00000  Uiso   1.00
C15    C     0.56349   0.67165   0.71656   0.00000  Uiso   1.00
C16    C     0.50087   0.67205   0.72227   0.00000  Uiso   1.00
C17    C     0.47190   0.69957   0.67714   0.00000  Uiso   1.00
C18    C     0.64253   0.63381   0.65410   0.00000  Uiso   1.00
C19    C     0.64637   0.60238   0.60730   0.00000  Uiso   1.00
C20    C     0.68395   0.59804   0.50960   0.00000  Uiso   1.00
C21    C     0.64768   0.65968   0.84933   0.00000  Uiso   1.00
C22    C     0.65586   0.65000   0.96667   0.00000  Uiso   1.00
C23    C     0.69779   0.66744   0.03333   0.00000  Uiso   1.00
H24    H     0.68947   0.71259   0.63215   0.00000  Uiso   1.00
H25    H     0.59236   0.74560   0.58442   0.00000  Uiso   1.00
H26    H     0.73784   0.67594   0.46948   0.00000  Uiso   1.00
H27    H     0.74733   0.72355   0.82880   0.00000  Uiso   1.00
H28    H     0.47034   0.77064   0.55308   0.00000  Uiso   1.00
H29    H     0.77712   0.62376   0.31076   0.00000  Uiso   1.00
H30    H     0.79713   0.72417   0.06845   0.00000  Uiso   1.00
H31    H     0.57888   0.62367   0.79880   0.00000  Uiso   1.00
H32    H     0.47570   0.65179   0.76022   0.00000  Uiso   1.00
H33    H     0.62118   0.58213   0.64528   0.00000  Uiso   1.00
H34    H     0.63067   0.62975   0.00459   0.00000  Uiso   1.00
H35    H     0.37565   0.69450   0.69577   0.00000  Uiso   1.00
H36    H     0.68244   0.54762   0.45344   0.00000  Uiso   1.00
H37    H     0.70244   0.64803   0.21113   0.00000  Uiso   1.00
O38    O     0.35711   0.75267   0.59600   0.00000  Uiso   1.00
O39    O     0.75961   0.55997   0.27810   0.00000  Uiso   1.00
O40    O     0.78586   0.69170   0.27216   0.00000  Uiso   1.00
N41    N     0.46221   0.74886   0.59198   0.00000  Uiso   1.00
N42    N     0.74903   0.61154   0.36541   0.00000  Uiso   1.00
N43    N     0.76775   0.70541   0.07377   0.00000  Uiso   1.00
N44    N     0.41127   0.70790   0.66876   0.00000  Uiso   1.00
N45    N     0.69808   0.57057   0.44219   0.00000  Uiso   1.00
N46    N     0.71680   0.66444   0.15055   0.00000  Uiso   1.00
C47    C     0.66413   0.19222   0.17034   0.00000  Uiso   1.00
C48    C     0.59603   0.19782   0.16752   0.00000  Uiso   1.00
C49    C     0.56716   0.22535   0.12237   0.00000  Uiso   1.00
C50    C     0.50451   0.22579   0.12800   0.00000  Uiso   1.00
C51    C     0.40372   0.23846   0.11612   0.00000  Uiso   1.00
C52    C     0.67507   0.15998   0.10506   0.00000  Uiso   1.00
C53    C     0.71266   0.15568   0.00741   0.00000  Uiso   1.00
C54    C     0.71655   0.12426   0.96047   0.00000  Uiso   1.00
C55    C     0.73851   0.07816   0.85167   0.00000  Uiso   1.00
C56    C     0.68022   0.18585   0.30029   0.00000  Uiso   1.00
C57    C     0.72216   0.20330   0.36678   0.00000  Uiso   1.00
C58    C     0.73039   0.19366   0.48420   0.00000  Uiso   1.00
C59    C     0.76035   0.18774   0.67852   0.00000  Uiso   1.00
C60    C     0.60421   0.14404   0.26062   0.00000  Uiso   1.00
C61    C     0.56349   0.17165   0.21656   0.00000  Uiso   1.00
C62    C     0.50087   0.17205   0.22227   0.00000  Uiso   1.00
C63    C     0.47190   0.19957   0.17714   0.00000  Uiso   1.00
C64    C     0.64253   0.13381   0.15410   0.00000  Uiso   1.00
C65    C     0.64637   0.10238   0.10730   0.00000  Uiso   1.00
C66    C     0.68395   0.09804   0.00960   0.00000  Uiso   1.00
C67    C     0.64768   0.15968   0.34933   0.00000  Uiso   1.00
C68    C     0.65586   0.15000   0.46667   0.00000  Uiso   1.00
C69    C     0.69779   0.16744   0.53333   0.00000  Uiso   1.00
H70    H     0.68947   0.21259   0.13215   0.00000  Uiso   1.00
H71    H     0.59236   0.24560   0.08442   0.00000  Uiso   1.00
H72    H     0.73784   0.17594   0.96948   0.00000  Uiso   1.00
H73    H     0.74733   0.22355   0.32880   0.00000  Uiso   1.00
H74    H     0.47034   0.27064   0.05308   0.00000  Uiso   1.00
H75    H     0.77712   0.12376   0.81076   0.00000  Uiso   1.00
H76    H     0.79713   0.22417   0.56845   0.00000  Uiso   1.00
H77    H     0.57888   0.12367   0.29880   0.00000  Uiso   1.00
H78    H     0.47570   0.15179   0.26022   0.00000  Uiso   1.00
H79    H     0.62118   0.08213   0.14528   0.00000  Uiso   1.00
H80    H     0.63067   0.12975   0.50459   0.00000  Uiso   1.00
H81    H     0.37565   0.19450   0.19577   0.00000  Uiso   1.00
H82    H     0.68244   0.04762   0.95344   0.00000  Uiso   1.00
H83    H     0.70244   0.14803   0.71113   0.00000  Uiso   1.00
O84    O     0.35711   0.25267   0.09600   0.00000  Uiso   1.00
O85    O     0.75961   0.05997   0.77810   0.00000  Uiso   1.00
O86    O     0.78586   0.19170   0.77216   0.00000  Uiso   1.00
N87    N     0.46221   0.24886   0.09198   0.00000  Uiso   1.00
N88    N     0.74903   0.11154   0.86541   0.00000  Uiso   1.00
N89    N     0.76775   0.20541   0.57377   0.00000  Uiso   1.00
N90    N     0.41127   0.20790   0.16876   0.00000  Uiso   1.00
N91    N     0.69808   0.07057   0.94219   0.00000  Uiso   1.00
N92    N     0.71680   0.16444   0.65055   0.00000  Uiso   1.00
C93    C     0.16413   0.69222   0.17034   0.00000  Uiso   1.00
C94    C     0.09603   0.69782   0.16752   0.00000  Uiso   1.00
C95    C     0.06716   0.72535   0.12237   0.00000  Uiso   1.00
C96    C     0.00451   0.72579   0.12800   0.00000  Uiso   1.00
C97    C     0.90372   0.73846   0.11612   0.00000  Uiso   1.00
C98    C     0.17507   0.65998   0.10506   0.00000  Uiso   1.00
C99    C     0.21266   0.65568   0.00741   0.00000  Uiso   1.00
C100   C     0.21655   0.62426   0.96047   0.00000  Uiso   1.00
C101   C     0.23851   0.57816   0.85167   0.00000  Uiso   1.00
C102   C     0.18022   0.68585   0.30029   0.00000  Uiso   1.00
C103   C     0.22216   0.70330   0.36678   0.00000  Uiso   1.00
C104   C     0.23039   0.69366   0.48420   0.00000  Uiso   1.00
C105   C     0.26035   0.68774   0.67852   0.00000  Uiso   1.00
C106   C     0.10421   0.64404   0.26062   0.00000  Uiso   1.00
C107   C     0.06349   0.67165   0.21656   0.00000  Uiso   1.00
C108   C     0.00087   0.67205   0.22227   0.00000  Uiso   1.00
C109   C     0.97190   0.69957   0.17714   0.00000  Uiso   1.00
C110   C     0.14253   0.63381   0.15410   0.00000  Uiso   1.00
C111   C     0.14637   0.60238   0.10730   0.00000  Uiso   1.00
C112   C     0.18395   0.59804   0.00960   0.00000  Uiso   1.00
C113   C     0.14768   0.65968   0.34933   0.00000  Uiso   1.00
C114   C     0.15586   0.65000   0.46667   0.00000  Uiso   1.00
C115   C     0.19779   0.66744   0.53333   0.00000  Uiso   1.00
H116   H     0.18947   0.71259   0.13215   0.00000  Uiso   1.00
H117   H     0.09236   0.74560   0.08442   0.00000  Uiso   1.00
H118   H     0.23784   0.67594   0.96948   0.00000  Uiso   1.00
H119   H     0.24733   0.72355   0.32880   0.00000  Uiso   1.00
H120   H     0.97034   0.77064   0.05308   0.00000  Uiso   1.00
H121   H     0.27712   0.62376   0.81076   0.00000  Uiso   1.00
H122   H     0.29713   0.72417   0.56845   0.00000  Uiso   1.00
H123   H     0.07888   0.62367   0.29880   0.00000  Uiso   1.00
H124   H     0.97570   0.65179   0.26022   0.00000  Uiso   1.00
H125   H     0.12118   0.58213   0.14528   0.00000  Uiso   1.00
H126   H     0.13067   0.62975   0.50459   0.00000  Uiso   1.00
H127   H     0.87565   0.69450   0.19577   0.00000  Uiso   1.00
H128   H     0.18244   0.54762   0.95344   0.00000  Uiso   1.00
H129   H     0.20244   0.64803   0.71113   0.00000  Uiso   1.00
O130   O     0.85711   0.75267   0.09600   0.00000  Uiso   1.00
O131   O     0.25961   0.55997   0.77810   0.00000  Uiso   1.00
O132   O     0.28586   0.69170   0.77216   0.00000  Uiso   1.00
N133   N     0.96221   0.74886   0.09198   0.00000  Uiso   1.00
N134   N     0.24903   0.61154   0.86541   0.00000  Uiso   1.00
N135   N     0.26775   0.70541   0.57377   0.00000  Uiso   1.00
N136   N     0.91127   0.70790   0.16876   0.00000  Uiso   1.00
N137   N     0.19808   0.57057   0.94219   0.00000  Uiso   1.00
N138   N     0.21680   0.66444   0.65055   0.00000  Uiso   1.00
C139   C     0.16413   0.19222   0.67034   0.00000  Uiso   1.00
C140   C     0.09603   0.19782   0.66752   0.00000  Uiso   1.00
C141   C     0.06716   0.22535   0.62237   0.00000  Uiso   1.00
C142   C     0.00451   0.22579   0.62800   0.00000  Uiso   1.00
C143   C     0.90372   0.23846   0.61612   0.00000  Uiso   1.00
C144   C     0.17507   0.15998   0.60506   0.00000  Uiso   1.00
C145   C     0.21266   0.15568   0.50741   0.00000  Uiso   1.00
C146   C     0.21655   0.12426   0.46047   0.00000  Uiso   1.00
C147   C     0.23851   0.07816   0.35167   0.00000  Uiso   1.00
C148   C     0.18022   0.18585   0.80029   0.00000  Uiso   1.00
C149   C     0.22216   0.20330   0.86678   0.00000  Uiso   1.00
C150   C     0.23039   0.19366   0.98420   0.00000  Uiso   1.00
C151   C     0.26035   0.18774   0.17852   0.00000  Uiso   1.00
C152   C     0.10421   0.14404   0.76062   0.00000  Uiso   1.00
C153   C     0.06349   0.17165   0.71656   0.00000  Uiso   1.00
C154   C     0.00087   0.17205   0.72227   0.00000  Uiso   1.00
C155   C     0.97190   0.19957   0.67714   0.00000  Uiso   1.00
C156   C     0.14253   0.13381   0.65410   0.00000  Uiso   1.00
C157   C     0.14637   0.10238   0.60730   0.00000  Uiso   1.00
C158   C     0.18395   0.09804   0.50960   0.00000  Uiso   1.00
C159   C     0.14768   0.15968   0.84933   0.00000  Uiso   1.00
C160   C     0.15586   0.15000   0.96667   0.00000  Uiso   1.00
C161   C     0.19779   0.16744   0.03333   0.00000  Uiso   1.00
H162   H     0.18947   0.21259   0.63215   0.00000  Uiso   1.00
H163   H     0.09236   0.24560   0.58442   0.00000  Uiso   1.00
H164   H     0.23784   0.17594   0.46948   0.00000  Uiso   1.00
H165   H     0.24733   0.22355   0.82880   0.00000  Uiso   1.00
H166   H     0.97034   0.27064   0.55308   0.00000  Uiso   1.00
H167   H     0.27712   0.12376   0.31076   0.00000  Uiso   1.00
H168   H     0.29713   0.22417   0.06845   0.00000  Uiso   1.00
H169   H     0.07888   0.12367   0.79880   0.00000  Uiso   1.00
H170   H     0.97570   0.15179   0.76022   0.00000  Uiso   1.00
H171   H     0.12118   0.08213   0.64528   0.00000  Uiso   1.00
H172   H     0.13067   0.12975   0.00459   0.00000  Uiso   1.00
H173   H     0.87565   0.19450   0.69577   0.00000  Uiso   1.00
H174   H     0.18244   0.04762   0.45344   0.00000  Uiso   1.00
H175   H     0.20244   0.14803   0.21113   0.00000  Uiso   1.00
O176   O     0.85711   0.25267   0.59600   0.00000  Uiso   1.00
O177   O     0.25961   0.05997   0.27810   0.00000  Uiso   1.00
O178   O     0.28586   0.19170   0.27216   0.00000  Uiso   1.00
N179   N     0.96221   0.24886   0.59198   0.00000  Uiso   1.00
N180   N     0.24903   0.11154   0.36541   0.00000  Uiso   1.00
N181   N     0.26775   0.20541   0.07377   0.00000  Uiso   1.00
N182   N     0.91127   0.20790   0.66876   0.00000  Uiso   1.00
N183   N     0.19808   0.07057   0.44219   0.00000  Uiso   1.00
N184   N     0.21680   0.16444   0.15055   0.00000  Uiso   1.00
C185   C     0.33587   0.30778   0.67034   0.00000  Uiso   1.00
C186   C     0.40397   0.30218   0.66752   0.00000  Uiso   1.00
C187   C     0.43284   0.27465   0.62237   0.00000  Uiso   1.00
C188   C     0.49549   0.27421   0.62800   0.00000  Uiso   1.00
C189   C     0.59628   0.26154   0.61612   0.00000  Uiso   1.00
C190   C     0.32493   0.34002   0.60506   0.00000  Uiso   1.00
C191   C     0.28734   0.34432   0.50741   0.00000  Uiso   1.00
C192   C     0.28345   0.37574   0.46047   0.00000  Uiso   1.00
C193   C     0.26149   0.42184   0.35167   0.00000  Uiso   1.00
C194   C     0.31978   0.31415   0.80029   0.00000  Uiso   1.00
C195   C     0.27784   0.29670   0.86678   0.00000  Uiso   1.00
C196   C     0.26961   0.30634   0.98420   0.00000  Uiso   1.00
C197   C     0.23965   0.31226   0.17852   0.00000  Uiso   1.00
C198   C     0.39579   0.35596   0.76062   0.00000  Uiso   1.00
C199   C     0.43651   0.32835   0.71656   0.00000  Uiso   1.00
C200   C     0.49913   0.32795   0.72227   0.00000  Uiso   1.00
C201   C     0.52810   0.30043   0.67714   0.00000  Uiso   1.00
C202   C     0.35747   0.36619   0.65410   0.00000  Uiso   1.00
C203   C     0.35363   0.39762   0.60730   0.00000  Uiso   1.00
C204   C     0.31605   0.40196   0.50960   0.00000  Uiso   1.00
C205   C     0.35232   0.34032   0.84933   0.00000  Uiso   1.00
C206   C     0.34414   0.35000   0.96667   0.00000  Uiso   1.00
C207   C     0.30221   0.33256   0.03333   0.00000  Uiso   1.00
H208   H     0.31053   0.28741   0.63215   0.00000  Uiso   1.00
H209   H     0.40764   0.25440   0.58442   0.00000  Uiso   1.00
H210   H     0.26216   0.32406   0.46948   0.00000  Uiso   1.00
H211   H     0.25267   0.27645   0.82880   0.00000  Uiso   1.00
H212   H     0.52966   0.22936   0.55308   0.00000  Uiso   1.00
H213   H     0.22288   0.37624   0.31076   0.00000  Uiso   1.00
H214   H     0.20287   0.27583   0.06845   0.00000  Uiso   1.00
H215   H     0.42112   0.37633   0.79880   0.00000  Uiso   1.00
H216   H     0.52430   0.34821   0.76022   0.00000  Uiso   1.00
H217   H     0.37882   0.41787   0.64528   0.00000  Uiso   1.00
H218   H     0.36933   0.37025   0.00459   0.00000  Uiso   1.00
H219   H     0.62435   0.30550   0.69577   0.00000  Uiso   1.00
H220   H     0.31756   0.45238   0.45344   0.00000  Uiso   1.00
H221   H     0.29756   0.35197   0.21113   0.00000  Uiso   1.00
O222   O     0.64289   0.24733   0.59600   0.00000  Uiso   1.00
O223   O     0.24039   0.44003   0.27810   0.00000  Uiso   1.00
O224   O     0.21414   0.30830   0.27216   0.00000  Uiso   1.00
N225   N     0.53779   0.25114   0.59198   0.00000  Uiso   1.00
N226   N     0.25097   0.38846   0.36541   0.00000  Uiso   1.00
N227   N     0.23225   0.29459   0.07377   0.00000  Uiso   1.00
N228   N     0.58873   0.29210   0.66876   0.00000  Uiso   1.00
N229   N     0.30192   0.42943   0.44219   0.00000  Uiso   1.00
N230   N     0.28320   0.33556   0.15055   0.00000  Uiso   1.00
C231   C     0.33587   0.80778   0.17034   0.00000  Uiso   1.00
C232   C     0.40397   0.80218   0.16752   0.00000  Uiso   1.00
C233   C     0.43284   0.77465   0.12237   0.00000  Uiso   1.00
C234   C     0.49549   0.77421   0.12800   0.00000  Uiso   1.00
C235   C     0.59628   0.76154   0.11612   0.00000  Uiso   1.00
C236   C     0.32493   0.84002   0.10506   0.00000  Uiso   1.00
C237   C     0.28734   0.84432   0.00741   0.00000  Uiso   1.00
C238   C     0.28345   0.87574   0.96047   0.00000  Uiso   1.00
C239   C     0.26149   0.92184   0.85167   0.00000  Uiso   1.00
C240   C     0.31978   0.81415   0.30029   0.00000  Uiso   1.00
C241   C     0.27784   0.79670   0.36678   0.00000  Uiso   1.00
C242   C     0.26961   0.80634   0.48420   0.00000  Uiso   1.00
C243   C     0.23965   0.81226   0.67852   0.00000  Uiso   1.00
C244   C     0.39579   0.85596   0.26062   0.00000  Uiso   1.00
C245   C     0.43651   0.82835   0.21656   0.00000  Uiso   1.00
C246   C     0.49913   0.82795   0.22227   0.00000  Uiso   1.00
C247   C     0.52810   0.80043   0.17714   0.00000  Uiso   1.00
C248   C     0.35747   0.86619   0.15410   0.00000  Uiso   1.00
C249   C     0.35363   0.89762   0.10730   0.00000  Uiso   1.00
C250   C     0.31605   0.90196   0.00960   0.00000  Uiso   1.00
C251   C     0.35232   0.84032   0.34933   0.00000  Uiso   1.00
C252   C     0.34414   0.85000   0.46667   0.00000  Uiso   1.00
C253   C     0.30221   0.83256   0.53333   0.00000  Uiso   1.00
H254   H     0.31053   0.78741   0.13215   0.00000  Uiso   1.00
H255   H     0.40764   0.75440   0.08442   0.00000  Uiso   1.00
H256   H     0.26216   0.82406   0.96948   0.00000  Uiso   1.00
H257   H     0.25267   0.77645   0.32880   0.00000  Uiso   1.00
H258   H     0.52966   0.72936   0.05308   0.00000  Uiso   1.00
H259   H     0.22288   0.87624   0.81076   0.00000  Uiso   1.00
H260   H     0.20287   0.77583   0.56845   0.00000  Uiso   1.00
H261   H     0.42112   0.87633   0.29880   0.00000  Uiso   1.00
H262   H     0.52430   0.84821   0.26022   0.00000  Uiso   1.00
H263   H     0.37882   0.91787   0.14528   0.00000  Uiso   1.00
H264   H     0.36933   0.87025   0.50459   0.00000  Uiso   1.00
H265   H     0.62435   0.80550   0.19577   0.00000  Uiso   1.00
H266   H     0.31756   0.95238   0.95344   0.00000  Uiso   1.00
H267   H     0.29756   0.85197   0.71113   0.00000  Uiso   1.00
O268   O     0.64289   0.74733   0.09600   0.00000  Uiso   1.00
O269   O     0.24039   0.94003   0.77810   0.00000  Uiso   1.00
O270   O     0.21414   0.80830   0.77216   0.00000  Uiso   1.00
N271   N     0.53779   0.75114   0.09198   0.00000  Uiso   1.00
N272   N     0.25097   0.88846   0.86541   0.00000  Uiso   1.00
N273   N     0.23225   0.79459   0.57377   0.00000  Uiso   1.00
N274   N     0.58873   0.79210   0.16876   0.00000  Uiso   1.00
N275   N     0.30192   0.92943   0.94219   0.00000  Uiso   1.00
N276   N     0.28320   0.83556   0.65055   0.00000  Uiso   1.00
C277   C     0.83587   0.30778   0.17034   0.00000  Uiso   1.00
C278   C     0.90397   0.30218   0.16752   0.00000  Uiso   1.00
C279   C     0.93284   0.27465   0.12237   0.00000  Uiso   1.00
C280   C     0.99549   0.27421   0.12800   0.00000  Uiso   1.00
C281   C     0.09628   0.26154   0.11612   0.00000  Uiso   1.00
C282   C     0.82493   0.34002   0.10506   0.00000  Uiso   1.00
C283   C     0.78734   0.34432   0.00741   0.00000  Uiso   1.00
C284   C     0.78345   0.37574   0.96047   0.00000  Uiso   1.00
C285   C     0.76149   0.42184   0.85167   0.00000  Uiso   1.00
C286   C     0.81978   0.31415   0.30029   0.00000  Uiso   1.00
C287   C     0.77784   0.29670   0.36678   0.00000  Uiso   1.00
C288   C     0.76961   0.30634   0.48420   0.00000  Uiso   1.00
C289   C     0.73965   0.31226   0.67852   0.00000  Uiso   1.00
C290   C     0.89579   0.35596   0.26062   0.00000  Uiso   1.00
C291   C     0.93651   0.32835   0.21656   0.00000  Uiso   1.00
C292   C     0.99913   0.32795   0.22227   0.00000  Uiso   1.00
C293   C     0.02810   0.30043   0.17714   0.00000  Uiso   1.00
C294   C     0.85747   0.36619   0.15410   0.00000  Uiso   1.00
C295   C     0.85363   0.39762   0.10730   0.00000  Uiso   1.00
C296   C     0.81605   0.40196   0.00960   0.00000  Uiso   1.00
C297   C     0.85232   0.34032   0.34933   0.00000  Uiso   1.00
C298   C     0.84414   0.35000   0.46667   0.00000  Uiso   1.00
C299   C     0.80221   0.33256   0.53333   0.00000  Uiso   1.00
H300   H     0.81053   0.28741   0.13215   0.00000  Uiso   1.00
H301   H     0.90764   0.25440   0.08442   0.00000  Uiso   1.00
H302   H     0.76216   0.32406   0.96948   0.00000  Uiso   1.00
H303   H     0.75267   0.27645   0.32880   0.00000  Uiso   1.00
H304   H     0.02966   0.22936   0.05308   0.00000  Uiso   1.00
H305   H     0.72288   0.37624   0.81076   0.00000  Uiso   1.00
H306   H     0.70287   0.27583   0.56845   0.00000  Uiso   1.00
H307   H     0.92112   0.37633   0.29880   0.00000  Uiso   1.00
H308   H     0.02430   0.34821   0.26022   0.00000  Uiso   1.00
H309   H     0.87882   0.41787   0.14528   0.00000  Uiso   1.00
H310   H     0.86933   0.37025   0.50459   0.00000  Uiso   1.00
H311   H     0.12435   0.30550   0.19577   0.00000  Uiso   1.00
H312   H     0.81756   0.45238   0.95344   0.00000  Uiso   1.00
H313   H     0.79756   0.35197   0.71113   0.00000  Uiso   1.00
O314   O     0.14289   0.24733   0.09600   0.00000  Uiso   1.00
O315   O     0.74039   0.44003   0.77810   0.00000  Uiso   1.00
O316   O     0.71414   0.30830   0.77216   0.00000  Uiso   1.00
N317   N     0.03779   0.25114   0.09198   0.00000  Uiso   1.00
N318   N     0.75097   0.38846   0.86541   0.00000  Uiso   1.00
N319   N     0.73225   0.29459   0.57377   0.00000  Uiso   1.00
N320   N     0.08873   0.29210   0.16876   0.00000  Uiso   1.00
N321   N     0.80192   0.42943   0.94219   0.00000  Uiso   1.00
N322   N     0.78320   0.33556   0.65055   0.00000  Uiso   1.00
C323   C     0.83587   0.80778   0.67034   0.00000  Uiso   1.00
C324   C     0.90397   0.80218   0.66752   0.00000  Uiso   1.00
C325   C     0.93284   0.77465   0.62237   0.00000  Uiso   1.00
C326   C     0.99549   0.77421   0.62800   0.00000  Uiso   1.00
C327   C     0.09628   0.76154   0.61612   0.00000  Uiso   1.00
C328   C     0.82493   0.84002   0.60506   0.00000  Uiso   1.00
C329   C     0.78734   0.84432   0.50741   0.00000  Uiso   1.00
C330   C     0.78345   0.87574   0.46047   0.00000  Uiso   1.00
C331   C     0.76149   0.92184   0.35167   0.00000  Uiso   1.00
C332   C     0.81978   0.81415   0.80029   0.00000  Uiso   1.00
C333   C     0.77784   0.79670   0.86678   0.00000  Uiso   1.00
C334   C     0.76961   0.80634   0.98420   0.00000  Uiso   1.00
C335   C     0.73965   0.81226   0.17852   0.00000  Uiso   1.00
C336   C     0.89579   0.85596   0.76062   0.00000  Uiso   1.00
C337   C     0.93651   0.82835   0.71656   0.00000  Uiso   1.00
C338   C     0.99913   0.82795   0.72227   0.00000  Uiso   1.00
C339   C     0.02810   0.80043   0.67714   0.00000  Uiso   1.00
C340   C     0.85747   0.86619   0.65410   0.00000  Uiso   1.00
C341   C     0.85363   0.89762   0.60730   0.00000  Uiso   1.00
C342   C     0.81605   0.90196   0.50960   0.00000  Uiso   1.00
C343   C     0.85232   0.84032   0.84933   0.00000  Uiso   1.00
C344   C     0.84414   0.85000   0.96667   0.00000  Uiso   1.00
C345   C     0.80221   0.83256   0.03333   0.00000  Uiso   1.00
H346   H     0.81053   0.78741   0.63215   0.00000  Uiso   1.00
H347   H     0.90764   0.75440   0.58442   0.00000  Uiso   1.00
H348   H     0.76216   0.82406   0.46948   0.00000  Uiso   1.00
H349   H     0.75267   0.77645   0.82880   0.00000  Uiso   1.00
H350   H     0.02966   0.72936   0.55308   0.00000  Uiso   1.00
H351   H     0.72288   0.87624   0.31076   0.00000  Uiso   1.00
H352   H     0.70287   0.77583   0.06845   0.00000  Uiso   1.00
H353   H     0.92112   0.87633   0.79880   0.00000  Uiso   1.00
H354   H     0.02430   0.84821   0.76022   0.00000  Uiso   1.00
H355   H     0.87882   0.91787   0.64528   0.00000  Uiso   1.00
H356   H     0.86933   0.87025   0.00459   0.00000  Uiso   1.00
H357   H     0.12435   0.80550   0.69577   0.00000  Uiso   1.00
H358   H     0.81756   0.95238   0.45344   0.00000  Uiso   1.00
H359   H     0.79756   0.85197   0.21113   0.00000  Uiso   1.00
O360   O     0.14289   0.74733   0.59600   0.00000  Uiso   1.00
O361   O     0.74039   0.94003   0.27810   0.00000  Uiso   1.00
O362   O     0.71414   0.80830   0.27216   0.00000  Uiso   1.00
N363   N     0.03779   0.75114   0.59198   0.00000  Uiso   1.00
N364   N     0.75097   0.88846   0.36541   0.00000  Uiso   1.00
N365   N     0.73225   0.79459   0.07377   0.00000  Uiso   1.00
N366   N     0.08873   0.79210   0.66876   0.00000  Uiso   1.00
N367   N     0.80192   0.92943   0.44219   0.00000  Uiso   1.00
N368   N     0.78320   0.83556   0.15055   0.00000  Uiso   1.00
C369   C     0.91413   0.55778   0.92034   0.00000  Uiso   1.00
C370   C     0.84603   0.55218   0.91752   0.00000  Uiso   1.00
C371   C     0.81716   0.52465   0.87237   0.00000  Uiso   1.00
C372   C     0.75451   0.52421   0.87800   0.00000  Uiso   1.00
C373   C     0.65372   0.51154   0.86612   0.00000  Uiso   1.00
C374   C     0.92507   0.59002   0.85506   0.00000  Uiso   1.00
C375   C     0.96266   0.59432   0.75741   0.00000  Uiso   1.00
C376   C     0.96655   0.62574   0.71047   0.00000  Uiso   1.00
C377   C     0.98851   0.67184   0.60167   0.00000  Uiso   1.00
C378   C     0.93022   0.56415   0.05029   0.00000  Uiso   1.00
C379   C     0.97216   0.54670   0.11678   0.00000  Uiso   1.00
C380   C     0.98039   0.55634   0.23420   0.00000  Uiso   1.00
C381   C     0.01035   0.56226   0.42852   0.00000  Uiso   1.00
C382   C     0.85421   0.60596   0.01062   0.00000  Uiso   1.00
C383   C     0.81349   0.57835   0.96656   0.00000  Uiso   1.00
C384   C     0.75087   0.57795   0.97227   0.00000  Uiso   1.00
C385   C     0.72190   0.55043   0.92714   0.00000  Uiso   1.00
C386   C     0.89253   0.61619   0.90410   0.00000  Uiso   1.00
C387   C     0.89637   0.64762   0.85730   0.00000  Uiso   1.00
C388   C     0.93395   0.65196   0.75960   0.00000  Uiso   1.00
C389   C     0.89768   0.59032   0.09933   0.00000  Uiso   1.00
C390   C     0.90586   0.60000   0.21667   0.00000  Uiso   1.00
C391   C     0.94779   0.58256   0.28333   0.00000  Uiso   1.00
H392   H     0.93947   0.53741   0.88215   0.00000  Uiso   1.00
H393   H     0.84236   0.50440   0.83442   0.00000  Uiso   1.00
H394   H     0.98784   0.57406   0.71948   0.00000  Uiso   1.00
H395   H     0.99733   0.52645   0.07880   0.00000  Uiso   1.00
H396   H     0.72034   0.47936   0.80308   0.00000  Uiso   1.00
H397   H     0.02712   0.62624   0.56076   0.00000  Uiso   1.00
H398   H     0.04713   0.52583   0.31845   0.00000  Uiso   1.00
H399   H     0.82888   0.62633   0.04880   0.00000  Uiso   1.00
H400   H     0.72570   0.59821   0.01022   0.00000  Uiso   1.00
H401   H     0.87118   0.66787   0.89528   0.00000  Uiso   1.00
H402   H     0.88067   0.62025   0.25459   0.00000  Uiso   1.00
H403   H     0.62565   0.55550   0.94577   0.00000  Uiso   1.00
H404   H     0.93244   0.70238   0.70344   0.00000  Uiso   1.00
H405   H     0.95244   0.60197   0.46113   0.00000  Uiso   1.00
O406   O     0.60711   0.49733   0.84600   0.00000  Uiso   1.00
O407   O     0.00961   0.69003   0.52810   0.00000  Uiso   1.00
O408   O     0.03586   0.55830   0.52216   0.00000  Uiso   1.00
N409   N     0.71221   0.50114   0.84198   0.00000  Uiso   1.00
N410   N     0.99903   0.63846   0.61541   0.00000  Uiso   1.00
N411   N     0.01775   0.54459   0.32377   0.00000  Uiso   1.00
N412   N     0.66127   0.54210   0.91876   0.00000  Uiso   1.00
N413   N     0.94808   0.67943   0.69219   0.00000  Uiso   1.00
N414   N     0.96680   0.58556   0.40055   0.00000  Uiso   1.00
C415   C     0.91413   0.05778   0.42034   0.00000  Uiso   1.00
C416   C     0.84603   0.05218   0.41752   0.00000  Uiso   1.00
C417   C     0.81716   0.02465   0.37237   0.00000  Uiso   1.00
C418   C     0.75451   0.02421   0.37800   0.00000  Uiso   1.00
C419   C     0.65372   0.01154   0.36612   0.00000  Uiso   1.00
C420   C     0.92507   0.09002   0.35506   0.00000  Uiso   1.00
C421   C     0.96266   0.09432   0.25741   0.00000  Uiso   1.00
C422   C     0.96655   0.12574   0.21047   0.00000  Uiso   1.00
C423   C     0.98851   0.17184   0.10167   0.00000  Uiso   1.00
C424   C     0.93022   0.06415   0.55029   0.00000  Uiso   1.00
C425   C     0.97216   0.04670   0.61678   0.00000  Uiso   1.00
C426   C     0.98039   0.05634   0.73420   0.00000  Uiso   1.00
C427   C     0.01035   0.06226   0.92852   0.00000  Uiso   1.00
C428   C     0.85421   0.10596   0.51062   0.00000  Uiso   1.00
C429   C     0.81349   0.07835   0.46656   0.00000  Uiso   1.00
C430   C     0.75087   0.07795   0.47227   0.00000  Uiso   1.00
C431   C     0.72190   0.05043   0.42714   0.00000  Uiso   1.00
C432   C     0.89253   0.11619   0.40410   0.00000  Uiso   1.00
C433   C     0.89637   0.14762   0.35730   0.00000  Uiso   1.00
C434   C     0.93395   0.15196   0.25960   0.00000  Uiso   1.00
C435   C     0.89768   0.09032   0.59933   0.00000  Uiso   1.00
C436   C     0.90586   0.10000   0.71667   0.00000  Uiso   1.00
C437   C     0.94779   0.08256   0.78333   0.00000  Uiso   1.00
H438   H     0.93947   0.03741   0.38215   0.00000  Uiso   1.00
H439   H     0.84236   0.00440   0.33442   0.00000  Uiso   1.00
H440   H     0.98784   0.07406   0.21948   0.00000  Uiso   1.00
H441   H     0.99733   0.02645   0.57880   0.00000  Uiso   1.00
H442   H     0.72034   0.97936   0.30308   0.00000  Uiso   1.00
H443   H     0.02712   0.12624   0.06076   0.00000  Uiso   1.00
H444   H     0.04713   0.02583   0.81845   0.00000  Uiso   1.00
H445   H     0.82888   0.12633   0.54880   0.00000  Uiso   1.00
H446   H     0.72570   0.09821   0.51022   0.00000  Uiso   1.00
H447   H     0.87118   0.16787   0.39528   0.00000  Uiso   1.00
H448   H     0.88067   0.12025   0.75459   0.00000  Uiso   1.00
H449   H     0.62565   0.05550   0.44577   0.00000  Uiso   1.00
H450   H     0.93244   0.20238   0.20344   0.00000  Uiso   1.00
H451   H     0.95244   0.10197   0.96113   0.00000  Uiso   1.00
O452   O     0.60711   0.99733   0.34600   0.00000  Uiso   1.00
O453   O     0.00961   0.19003   0.02810   0.00000  Uiso   1.00
O454   O     0.03586   0.05830   0.02216   0.00000  Uiso   1.00
N455   N     0.71221   0.00114   0.34198   0.00000  Uiso   1.00
N456   N     0.99903   0.13846   0.11541   0.00000  Uiso   1.00
N457   N     0.01775   0.04459   0.82377   0.00000  Uiso   1.00
N458   N     0.66127   0.04210   0.41876   0.00000  Uiso   1.00
N459   N     0.94808   0.17943   0.19219   0.00000  Uiso   1.00
N460   N     0.96680   0.08556   0.90055   0.00000  Uiso   1.00
C461   C     0.41413   0.55778   0.42034   0.00000  Uiso   1.00
C462   C     0.34603   0.55218   0.41752   0.00000  Uiso   1.00
C463   C     0.31716   0.52465   0.37237   0.00000  Uiso   1.00
C464   C     0.25451   0.52421   0.37800   0.00000  Uiso   1.00
C465   C     0.15372   0.51154   0.36612   0.00000  Uiso   1.00
C466   C     0.42507   0.59002   0.35506   0.00000  Uiso   1.00
C467   C     0.46266   0.59432   0.25741   0.00000  Uiso   1.00
C468   C     0.46655   0.62574   0.21047   0.00000  Uiso   1.00
C469   C     0.48851   0.67184   0.10167   0.00000  Uiso   1.00
C470   C     0.43022   0.56415   0.55029   0.00000  Uiso   1.00
C471   C     0.47216   0.54670   0.61678   0.00000  Uiso   1.00
C472   C     0.48039   0.55634   0.73420   0.00000  Uiso   1.00
C473   C     0.51035   0.56226   0.92852   0.00000  Uiso   1.00
C474   C     0.35421   0.60596   0.51062   0.00000  Uiso   1.00
C475   C     0.31349   0.57835   0.46656   0.00000  Uiso   1.00
C476   C     0.25087   0.57795   0.47227   0.00000  Uiso   1.00
C477   C     0.22190   0.55043   0.42714   0.00000  Uiso   1.00
C478   C     0.39253   0.61619   0.40410   0.00000  Uiso   1.00
C479   C     0.39637   0.64762   0.35730   0.00000  Uiso   1.00
C480   C     0.43395   0.65196   0.25960   0.00000  Uiso   1.00
C481   C     0.39768   0.59032   0.59933   0.00000  Uiso   1.00
C482   C     0.40586   0.60000   0.71667   0.00000  Uiso   1.00
C483   C     0.44779   0.58256   0.78333   0.00000  Uiso   1.00
H484   H     0.43947   0.53741   0.38215   0.00000  Uiso   1.00
H485   H     0.34236   0.50440   0.33442   0.00000  Uiso   1.00
H486   H     0.48784   0.57406   0.21948   0.00000  Uiso   1.00
H487   H     0.49733   0.52645   0.57880   0.00000  Uiso   1.00
H488   H     0.22034   0.47936   0.30308   0.00000  Uiso   1.00
H489   H     0.52712   0.62624   0.06076   0.00000  Uiso   1.00
H490   H     0.54713   0.52583   0.81845   0.00000  Uiso   1.00
H491   H     0.32888   0.62633   0.54880   0.00000  Uiso   1.00
H492   H     0.22570   0.59821   0.51022   0.00000  Uiso   1.00
H493   H     0.37118   0.66787   0.39528   0.00000  Uiso   1.00
H494   H     0.38067   0.62025   0.75459   0.00000  Uiso   1.00
H495   H     0.12565   0.55550   0.44577   0.00000  Uiso   1.00
H496   H     0.43244   0.70238   0.20344   0.00000  Uiso   1.00
H497   H     0.45244   0.60197   0.96113   0.00000  Uiso   1.00
O498   O     0.10711   0.49733   0.34600   0.00000  Uiso   1.00
O499   O     0.50961   0.69003   0.02810   0.00000  Uiso   1.00
O500   O     0.53586   0.55830   0.02216   0.00000  Uiso   1.00
N501   N     0.21221   0.50114   0.34198   0.00000  Uiso   1.00
N502   N     0.49903   0.63846   0.11541   0.00000  Uiso   1.00
N503   N     0.51775   0.54459   0.82377   0.00000  Uiso   1.00
N504   N     0.16127   0.54210   0.41876   0.00000  Uiso   1.00
N505   N     0.44808   0.67943   0.19219   0.00000  Uiso   1.00
N506   N     0.46680   0.58556   0.90055   0.00000  Uiso   1.00
C507   C     0.41413   0.05778   0.92034   0.00000  Uiso   1.00
C508   C     0.34603   0.05218   0.91752   0.00000  Uiso   1.00
C509   C     0.31716   0.02465   0.87237   0.00000  Uiso   1.00
C510   C     0.25451   0.02421   0.87800   0.00000  Uiso   1.00
C511   C     0.15372   0.01154   0.86612   0.00000  Uiso   1.00
C512   C     0.42507   0.09002   0.85506   0.00000  Uiso   1.00
C513   C     0.46266   0.09432   0.75741   0.00000  Uiso   1.00
C514   C     0.46655   0.12574   0.71047   0.00000  Uiso   1.00
C515   C     0.48851   0.17184   0.60167   0.00000  Uiso   1.00
C516   C     0.43022   0.06415   0.05029   0.00000  Uiso   1.00
C517   C     0.47216   0.04670   0.11678   0.00000  Uiso   1.00
C518   C     0.48039   0.05634   0.23420   0.00000  Uiso   1.00
C519   C     0.51035   0.06226   0.42852   0.00000  Uiso   1.00
C520   C     0.35421   0.10596   0.01062   0.00000  Uiso   1.00
C521   C     0.31349   0.07835   0.96656   0.00000  Uiso   1.00
C522   C     0.25087   0.07795   0.97227   0.00000  Uiso   1.00
C523   C     0.22190   0.05043   0.92714   0.00000  Uiso   1.00
C524   C     0.39253   0.11619   0.90410   0.00000  Uiso   1.00
C525   C     0.39637   0.14762   0.85730   0.00000  Uiso   1.00
C526   C     0.43395   0.15196   0.75960   0.00000  Uiso   1.00
C527   C     0.39768   0.09032   0.09933   0.00000  Uiso   1.00
C528   C     0.40586   0.10000   0.21667   0.00000  Uiso   1.00
C529   C     0.44779   0.08256   0.28333   0.00000  Uiso   1.00
H530   H     0.43947   0.03741   0.88215   0.00000  Uiso   1.00
H531   H     0.34236   0.00440   0.83442   0.00000  Uiso   1.00
H532   H     0.48784   0.07406   0.71948   0.00000  Uiso   1.00
H533   H     0.49733   0.02645   0.07880   0.00000  Uiso   1.00
H534   H     0.22034   0.97936   0.80308   0.00000  Uiso   1.00
H535   H     0.52712   0.12624   0.56076   0.00000  Uiso   1.00
H536   H     0.54713   0.02583   0.31845   0.00000  Uiso   1.00
H537   H     0.32888   0.12633   0.04880   0.00000  Uiso   1.00
H538   H     0.22570   0.09821   0.01022   0.00000  Uiso   1.00
H539   H     0.37118   0.16787   0.89528   0.00000  Uiso   1.00
H540   H     0.38067   0.12025   0.25459   0.00000  Uiso   1.00
H541   H     0.12565   0.05550   0.94577   0.00000  Uiso   1.00
H542   H     0.43244   0.20238   0.70344   0.00000  Uiso   1.00
H543   H     0.45244   0.10197   0.46113   0.00000  Uiso   1.00
O544   O     0.10711   0.99733   0.84600   0.00000  Uiso   1.00
O545   O     0.50961   0.19003   0.52810   0.00000  Uiso   1.00
O546   O     0.53586   0.05830   0.52216   0.00000  Uiso   1.00
N547   N     0.21221   0.00114   0.84198   0.00000  Uiso   1.00
N548   N     0.49903   0.13846   0.61541   0.00000  Uiso   1.00
N549   N     0.51775   0.04459   0.32377   0.00000  Uiso   1.00
N550   N     0.16127   0.04210   0.91876   0.00000  Uiso   1.00
N551   N     0.44808   0.17943   0.69219   0.00000  Uiso   1.00
N552   N     0.46680   0.08556   0.40055   0.00000  Uiso   1.00
C553   C     0.58587   0.94222   0.92034   0.00000  Uiso   1.00
C554   C     0.65397   0.94782   0.91752   0.00000  Uiso   1.00
C555   C     0.68284   0.97535   0.87237   0.00000  Uiso   1.00
C556   C     0.74549   0.97579   0.87800   0.00000  Uiso   1.00
C557   C     0.84628   0.98846   0.86612   0.00000  Uiso   1.00
C558   C     0.57493   0.90998   0.85506   0.00000  Uiso   1.00
C559   C     0.53734   0.90568   0.75741   0.00000  Uiso   1.00
C560   C     0.53345   0.87426   0.71047   0.00000  Uiso   1.00
C561   C     0.51149   0.82816   0.60167   0.00000  Uiso   1.00
C562   C     0.56978   0.93585   0.05029   0.00000  Uiso   1.00
C563   C     0.52784   0.95330   0.11678   0.00000  Uiso   1.00
C564   C     0.51961   0.94366   0.23420   0.00000  Uiso   1.00
C565   C     0.48965   0.93774   0.42852   0.00000  Uiso   1.00
C566   C     0.64579   0.89404   0.01062   0.00000  Uiso   1.00
C567   C     0.68651   0.92165   0.96656   0.00000  Uiso   1.00
C568   C     0.74913   0.92205   0.97227   0.00000  Uiso   1.00
C569   C     0.77810   0.94957   0.92714   0.00000  Uiso   1.00
C570   C     0.60747   0.88381   0.90410   0.00000  Uiso   1.00
C571   C     0.60363   0.85238   0.85730   0.00000  Uiso   1.00
C572   C     0.56605   0.84804   0.75960   0.00000  Uiso   1.00
C573   C     0.60232   0.90968   0.09933   0.00000  Uiso   1.00
C574   C     0.59414   0.90000   0.21667   0.00000  Uiso   1.00
C575   C     0.55221   0.91744   0.28333   0.00000  Uiso   1.00
H576   H     0.56053   0.96259   0.88215   0.00000  Uiso   1.00
H577   H     0.65764   0.99560   0.83442   0.00000  Uiso   1.00
H578   H     0.51216   0.92594   0.71948   0.00000  Uiso   1.00
H579   H     0.50267   0.97355   0.07880   0.00000  Uiso   1.00
H580   H     0.77966   0.02064   0.80308   0.00000  Uiso   1.00
H581   H     0.47288   0.87376   0.56076   0.00000  Uiso   1.00
H582   H     0.45287   0.97417   0.31845   0.00000  Uiso   1.00
H583   H     0.67112   0.87367   0.04880   0.00000  Uiso   1.00
H584   H     0.77430   0.90179   0.01022   0.00000  Uiso   1.00
H585   H     0.62882   0.83213   0.89528   0.00000  Uiso   1.00
H586   H     0.61933   0.87975   0.25459   0.00000  Uiso   1.00
H587   H     0.87435   0.94450   0.94577   0.00000  Uiso   1.00
H588   H     0.56756   0.79762   0.70344   0.00000  Uiso   1.00
H589   H     0.54756   0.89803   0.46113   0.00000  Uiso   1.00
O590   O     0.89289   0.00267   0.84600   0.00000  Uiso   1.00
O591   O     0.49039   0.80997   0.52810   0.00000  Uiso   1.00
O592   O     0.46414   0.94170   0.52216   0.00000  Uiso   1.00
N593   N     0.78779   0.99886   0.84198   0.00000  Uiso   1.00
N594   N     0.50097   0.86154   0.61541   0.00000  Uiso   1.00
N595   N     0.48225   0.95541   0.32377   0.00000  Uiso   1.00
N596   N     0.83873   0.95790   0.91876   0.00000  Uiso   1.00
N597   N     0.55192   0.82057   0.69219   0.00000  Uiso   1.00
N598   N     0.53320   0.91444   0.40055   0.00000  Uiso   1.00
C599   C     0.58587   0.44222   0.42034   0.00000  Uiso   1.00
C600   C     0.65397   0.44782   0.41752   0.00000  Uiso   1.00
C601   C     0.68284   0.47535   0.37237   0.00000  Uiso   1.00
C602   C     0.74549   0.47579   0.37800   0.00000  Uiso   1.00
C603   C     0.84628   0.48846   0.36612   0.00000  Uiso   1.00
C604   C     0.57493   0.40998   0.35506   0.00000  Uiso   1.00
C605   C     0.53734   0.40568   0.25741   0.00000  Uiso   1.00
C606   C     0.53345   0.37426   0.21047   0.00000  Uiso   1.00
C607   C     0.51149   0.32816   0.10167   0.00000  Uiso   1.00
C608   C     0.56978   0.43585   0.55029   0.00000  Uiso   1.00
C609   C     0.52784   0.45330   0.61678   0.00000  Uiso   1.00
C610   C     0.51961   0.44366   0.73420   0.00000  Uiso   1.00
C611   C     0.48965   0.43774   0.92852   0.00000  Uiso   1.00
C612   C     0.64579   0.39404   0.51062   0.00000  Uiso   1.00
C613   C     0.68651   0.42165   0.46656   0.00000  Uiso   1.00
C614   C     0.74913   0.42205   0.47227   0.00000  Uiso   1.00
C615   C     0.77810   0.44957   0.42714   0.00000  Uiso   1.00
C616   C     0.60747   0.38381   0.40410   0.00000  Uiso   1.00
C617   C     0.60363   0.35238   0.35730   0.00000  Uiso   1.00
C618   C     0.56605   0.34804   0.25960   0.00000  Uiso   1.00
C619   C     0.60232   0.40968   0.59933   0.00000  Uiso   1.00
C620   C     0.59414   0.40000   0.71667   0.00000  Uiso   1.00
C621   C     0.55221   0.41744   0.78333   0.00000  Uiso   1.00
H622   H     0.56053   0.46259   0.38215   0.00000  Uiso   1.00
H623   H     0.65764   0.49560   0.33442   0.00000  Uiso   1.00
H624   H     0.51216   0.42594   0.21948   0.00000  Uiso   1.00
H625   H     0.50267   0.47355   0.57880   0.00000  Uiso   1.00
H626   H     0.77966   0.52064   0.30308   0.00000  Uiso   1.00
H627   H     0.47288   0.37376   0.06076   0.00000  Uiso   1.00
H628   H     0.45287   0.47417   0.81845   0.00000  Uiso   1.00
H629   H     0.67112   0.37367   0.54880   0.00000  Uiso   1.00
H630   H     0.77430   0.40179   0.51022   0.00000  Uiso   1.00
H631   H     0.62882   0.33213   0.39528   0.00000  Uiso   1.00
H632   H     0.61933   0.37975   0.75459   0.00000  Uiso   1.00
H633   H     0.87435   0.44450   0.44577   0.00000  Uiso   1.00
H634   H     0.56756   0.29762   0.20344   0.00000  Uiso   1.00
H635   H     0.54756   0.39803   0.96113   0.00000  Uiso   1.00
O636   O     0.89289   0.50267   0.34600   0.00000  Uiso   1.00
O637   O     0.49039   0.30997   0.02810   0.00000  Uiso   1.00
O638   O     0.46414   0.44170   0.02216   0.00000  Uiso   1.00
N639   N     0.78779   0.49886   0.34198   0.00000  Uiso   1.00
N640   N     0.50097   0.36154   0.11541   0.00000  Uiso   1.00
N641   N     0.48225   0.45541   0.82377   0.00000  Uiso   1.00
N642   N     0.83873   0.45790   0.41876   0.00000  Uiso   1.00
N643   N     0.55192   0.32057   0.19219   0.00000  Uiso   1.00
N644   N     0.53320   0.41444   0.90055   0.00000  Uiso   1.00
C645   C     0.08587   0.94222   0.42034   0.00000  Uiso   1.00
C646   C     0.15397   0.94782   0.41752   0.00000  Uiso   1.00
C647   C     0.18284   0.97535   0.37237   0.00000  Uiso   1.00
C648   C     0.24549   0.97579   0.37800   0.00000  Uiso   1.00
C649   C     0.34628   0.98846   0.36612   0.00000  Uiso   1.00
C650   C     0.07493   0.90998   0.35506   0.00000  Uiso   1.00
C651   C     0.03734   0.90568   0.25741   0.00000  Uiso   1.00
C652   C     0.03345   0.87426   0.21047   0.00000  Uiso   1.00
C653   C     0.01149   0.82816   0.10167   0.00000  Uiso   1.00
C654   C     0.06978   0.93585   0.55029   0.00000  Uiso   1.00
C655   C     0.02784   0.95330   0.61678   0.00000  Uiso   1.00
C656   C     0.01961   0.94366   0.73420   0.00000  Uiso   1.00
C657   C     0.98965   0.93774   0.92852   0.00000  Uiso   1.00
C658   C     0.14579   0.89404   0.51062   0.00000  Uiso   1.00
C659   C     0.18651   0.92165   0.46656   0.00000  Uiso   1.00
C660   C     0.24913   0.92205   0.47227   0.00000  Uiso   1.00
C661   C     0.27810   0.94957   0.42714   0.00000  Uiso   1.00
C662   C     0.10747   0.88381   0.40410   0.00000  Uiso   1.00
C663   C     0.10363   0.85238   0.35730   0.00000  Uiso   1.00
C664   C     0.06605   0.84804   0.25960   0.00000  Uiso   1.00
C665   C     0.10232   0.90968   0.59933   0.00000  Uiso   1.00
C666   C     0.09414   0.90000   0.71667   0.00000  Uiso   1.00
C667   C     0.05221   0.91744   0.78333   0.00000  Uiso   1.00
H668   H     0.06053   0.96259   0.38215   0.00000  Uiso   1.00
H669   H     0.15764   0.99560   0.33442   0.00000  Uiso   1.00
H670   H     0.01216   0.92594   0.21948   0.00000  Uiso   1.00
H671   H     0.00267   0.97355   0.57880   0.00000  Uiso   1.00
H672   H     0.27966   0.02064   0.30308   0.00000  Uiso   1.00
H673   H     0.97288   0.87376   0.06076   0.00000  Uiso   1.00
H674   H     0.95287   0.97417   0.81845   0.00000  Uiso   1.00
H675   H     0.17112   0.87367   0.54880   0.00000  Uiso   1.00
H676   H     0.27430   0.90179   0.51022   0.00000  Uiso   1.00
H677   H     0.12882   0.83213   0.39528   0.00000  Uiso   1.00
H678   H     0.11933   0.87975   0.75459   0.00000  Uiso   1.00
H679   H     0.37435   0.94450   0.44577   0.00000  Uiso   1.00
H680   H     0.06756   0.79762   0.20344   0.00000  Uiso   1.00
H681   H     0.04756   0.89803   0.96113   0.00000  Uiso   1.00
O682   O     0.39289   0.00267   0.34600   0.00000  Uiso   1.00
O683   O     0.99039   0.80997   0.02810   0.00000  Uiso   1.00
O684   O     0.96414   0.94170   0.02216   0.00000  Uiso   1.00
N685   N     0.28779   0.99886   0.34198   0.00000  Uiso   1.00
N686   N     0.00097   0.86154   0.11541   0.00000  Uiso   1.00
N687   N     0.98225   0.95541   0.82377   0.00000  Uiso   1.00
N688   N     0.33873   0.95790   0.41876   0.00000  Uiso   1.00
N689   N     0.05192   0.82057   0.19219   0.00000  Uiso   1.00
N690   N     0.03320   0.91444   0.90055   0.00000  Uiso   1.00
C691   C     0.08587   0.44222   0.92034   0.00000  Uiso   1.00
C692   C     0.15397   0.44782   0.91752   0.00000  Uiso   1.00
C693   C     0.18284   0.47535   0.87237   0.00000  Uiso   1.00
C694   C     0.24549   0.47579   0.87800   0.00000  Uiso   1.00
C695   C     0.34628   0.48846   0.86612   0.00000  Uiso   1.00
C696   C     0.07493   0.40998   0.85506   0.00000  Uiso   1.00
C697   C     0.03734   0.40568   0.75741   0.00000  Uiso   1.00
C698   C     0.03345   0.37426   0.71047   0.00000  Uiso   1.00
C699   C     0.01149   0.32816   0.60167   0.00000  Uiso   1.00
C700   C     0.06978   0.43585   0.05029   0.00000  Uiso   1.00
C701   C     0.02784   0.45330   0.11678   0.00000  Uiso   1.00
C702   C     0.01961   0.44366   0.23420   0.00000  Uiso   1.00
C703   C     0.98965   0.43774   0.42852   0.00000  Uiso   1.00
C704   C     0.14579   0.39404   0.01062   0.00000  Uiso   1.00
C705   C     0.18651   0.42165   0.96656   0.00000  Uiso   1.00
C706   C     0.24913   0.42205   0.97227   0.00000  Uiso   1.00
C707   C     0.27810   0.44957   0.92714   0.00000  Uiso   1.00
C708   C     0.10747   0.38381   0.90410   0.00000  Uiso   1.00
C709   C     0.10363   0.35238   0.85730   0.00000  Uiso   1.00
C710   C     0.06605   0.34804   0.75960   0.00000  Uiso   1.00
C711   C     0.10232   0.40968   0.09933   0.00000  Uiso   1.00
C712   C     0.09414   0.40000   0.21667   0.00000  Uiso   1.00
C713   C     0.05221   0.41744   0.28333   0.00000  Uiso   1.00
H714   H     0.06053   0.46259   0.88215   0.00000  Uiso   1.00
H715   H     0.15764   0.49560   0.83442   0.00000  Uiso   1.00
H716   H     0.01216   0.42594   0.71948   0.00000  Uiso   1.00
H717   H     0.00267   0.47355   0.07880   0.00000  Uiso   1.00
H718   H     0.27966   0.52064   0.80308   0.00000  Uiso   1.00
H719   H     0.97288   0.37376   0.56076   0.00000  Uiso   1.00
H720   H     0.95287   0.47417   0.31845   0.00000  Uiso   1.00
H721   H     0.17112   0.37367   0.04880   0.00000  Uiso   1.00
H722   H     0.27430   0.40179   0.01022   0.00000  Uiso   1.00
H723   H     0.12882   0.33213   0.89528   0.00000  Uiso   1.00
H724   H     0.11933   0.37975   0.25459   0.00000  Uiso   1.00
H725   H     0.37435   0.44450   0.94577   0.00000  Uiso   1.00
H726   H     0.06756   0.29762   0.70344   0.00000  Uiso   1.00
H727   H     0.04756   0.39803   0.46113   0.00000  Uiso   1.00
O728   O     0.39289   0.50267   0.84600   0.00000  Uiso   1.00
O729   O     0.99039   0.30997   0.52810   0.00000  Uiso   1.00
O730   O     0.96414   0.44170   0.52216   0.00000  Uiso   1.00
N731   N     0.28779   0.49886   0.84198   0.00000  Uiso   1.00
N732   N     0.00097   0.36154   0.61541   0.00000  Uiso   1.00
N733   N     0.98225   0.45541   0.32377   0.00000  Uiso   1.00
N734   N     0.33873   0.45790   0.91876   0.00000  Uiso   1.00
N735   N     0.05192   0.32057   0.69219   0.00000  Uiso   1.00
N736   N     0.03320   0.41444   0.40055   0.00000  Uiso   1.00
