data_job_07090
_audit_creation_date              2018-12-19
_audit_creation_method            'Materials Studio'
_symmetry_space_group_name_H-M    'P1'
_symmetry_Int_Tables_number       1
_symmetry_cell_setting            triclinic
loop_
_symmetry_equiv_pos_as_xyz
  x,y,z
_cell_length_a                    20.2779
_cell_length_b                    20.2779
_cell_length_c                    76.3514
_cell_angle_alpha                 90.0000
_cell_angle_beta                  90.0000
_cell_angle_gamma                 120.0000
loop_
_atom_site_label
_atom_site_type_symbol
_atom_site_fract_x
_atom_site_fract_y
_atom_site_fract_z
_atom_site_U_iso_or_equiv
_atom_site_adp_type
_atom_site_occupancy
C1     C     0.34956   0.95663   0.55885   0.00000  Uiso   1.00
C2     C     0.30560   0.98199   0.54708   0.00000  Uiso   1.00
C3     C     0.28808   0.03832   0.55099   0.00000  Uiso   1.00
C4     C     0.24741   0.05309   0.53849   0.00000  Uiso   1.00
C5     C     0.18251   0.09855   0.52263   0.00000  Uiso   1.00
C6     C     0.29799   0.87115   0.56147   0.00000  Uiso   1.00
C7     C     0.27407   0.83429   0.57748   0.00000  Uiso   1.00
C8     C     0.22700   0.75576   0.57709   0.00000  Uiso   1.00
C9     C     0.15032   0.62913   0.58357   0.00000  Uiso   1.00
C10    C     0.41696   0.96609   0.54803   0.00000  Uiso   1.00
C11    C     0.82641   0.67570   0.21940   0.00000  Uiso   1.00
C12    C     0.87950   0.67709   0.20770   0.00000  Uiso   1.00
C13    C     0.65421   0.03121   0.52664   0.00000  Uiso   1.00
C14    C     0.30850   0.88271   0.52969   0.00000  Uiso   1.00
C15    C     0.28330   0.94184   0.53124   0.00000  Uiso   1.00
C16    C     0.24265   0.95654   0.51873   0.00000  Uiso   1.00
C17    C     0.22507   0.01288   0.52263   0.00000  Uiso   1.00
C18    C     0.27568   0.83100   0.54563   0.00000  Uiso   1.00
C19    C     0.22864   0.75251   0.54522   0.00000  Uiso   1.00
C20    C     0.20466   0.71553   0.56123   0.00000  Uiso   1.00
C21    C     0.39466   0.92594   0.53219   0.00000  Uiso   1.00
C22    C     0.44764   0.92726   0.52048   0.00000  Uiso   1.00
C23    C     0.52383   0.97020   0.52517   0.00000  Uiso   1.00
H24    H     0.36693   0.98788   0.57118   0.00000  Uiso   1.00
H25    H     0.30534   0.06937   0.56325   0.00000  Uiso   1.00
H26    H     0.29135   0.86537   0.58973   0.00000  Uiso   1.00
H27    H     0.84364   0.70676   0.23166   0.00000  Uiso   1.00
H28    H     0.22721   0.14198   0.54747   0.00000  Uiso   1.00
H29    H     0.19771   0.71184   0.60332   0.00000  Uiso   1.00
H30    H     0.65945   0.08028   0.55115   0.00000  Uiso   1.00
H31    H     0.29114   0.85145   0.51736   0.00000  Uiso   1.00
H32    H     0.22540   0.92546   0.50648   0.00000  Uiso   1.00
H33    H     0.21140   0.72146   0.53296   0.00000  Uiso   1.00
H34    H     0.09703   0.22952   0.84156   0.00000  Uiso   1.00
H35    H     0.16232   0.02518   0.50140   0.00000  Uiso   1.00
H36    H     0.13283   0.59503   0.55724   0.00000  Uiso   1.00
H37    H     0.59456   0.96348   0.50507   0.00000  Uiso   1.00
O38    O     0.15287   0.13471   0.51825   0.00000  Uiso   1.00
O39    O     0.44751   0.23704   0.25818   0.00000  Uiso   1.00
O40    O     0.71996   0.05377   0.52307   0.00000  Uiso   1.00
N41    N     0.22097   0.10435   0.53812   0.00000  Uiso   1.00
N42    N     0.19339   0.70219   0.59033   0.00000  Uiso   1.00
N43    N     0.62507   0.04664   0.54156   0.00000  Uiso   1.00
N44    N     0.18606   0.04150   0.51333   0.00000  Uiso   1.00
N45    N     0.15847   0.63934   0.56554   0.00000  Uiso   1.00
N46    N     0.59015   0.98379   0.51677   0.00000  Uiso   1.00
C47    C     0.01623   0.28996   0.89218   0.00000  Uiso   1.00
C48    C     0.97227   0.31532   0.88041   0.00000  Uiso   1.00
C49    C     0.95475   0.37165   0.88432   0.00000  Uiso   1.00
C50    C     0.91408   0.38643   0.87183   0.00000  Uiso   1.00
C51    C     0.84918   0.43188   0.85596   0.00000  Uiso   1.00
C52    C     0.96465   0.20448   0.89480   0.00000  Uiso   1.00
C53    C     0.94074   0.16762   0.91081   0.00000  Uiso   1.00
C54    C     0.89367   0.08909   0.91043   0.00000  Uiso   1.00
C55    C     0.81699   0.96246   0.91690   0.00000  Uiso   1.00
C56    C     0.08362   0.29942   0.88136   0.00000  Uiso   1.00
C57    C     0.49307   0.00904   0.55274   0.00000  Uiso   1.00
C58    C     0.54617   0.01042   0.54104   0.00000  Uiso   1.00
C59    C     0.32088   0.36454   0.85997   0.00000  Uiso   1.00
C60    C     0.97517   0.21605   0.86303   0.00000  Uiso   1.00
C61    C     0.94997   0.27517   0.86457   0.00000  Uiso   1.00
C62    C     0.90932   0.28987   0.85207   0.00000  Uiso   1.00
C63    C     0.89174   0.34621   0.85596   0.00000  Uiso   1.00
C64    C     0.94235   0.16433   0.87896   0.00000  Uiso   1.00
C65    C     0.89531   0.08584   0.87855   0.00000  Uiso   1.00
C66    C     0.87132   0.04887   0.89456   0.00000  Uiso   1.00
C67    C     0.06132   0.25928   0.86552   0.00000  Uiso   1.00
C68    C     0.11431   0.26059   0.85381   0.00000  Uiso   1.00
C69    C     0.19049   0.30354   0.85850   0.00000  Uiso   1.00
H70    H     0.03359   0.32122   0.90451   0.00000  Uiso   1.00
H71    H     0.97201   0.40270   0.89658   0.00000  Uiso   1.00
H72    H     0.95801   0.19870   0.92307   0.00000  Uiso   1.00
H73    H     0.51031   0.04010   0.56499   0.00000  Uiso   1.00
H74    H     0.89388   0.47532   0.88081   0.00000  Uiso   1.00
H75    H     0.86438   0.04517   0.93665   0.00000  Uiso   1.00
H76    H     0.32612   0.41362   0.88448   0.00000  Uiso   1.00
H77    H     0.95781   0.18479   0.85070   0.00000  Uiso   1.00
H78    H     0.89207   0.25879   0.83981   0.00000  Uiso   1.00
H79    H     0.87807   0.05479   0.86630   0.00000  Uiso   1.00
H80    H     0.76370   0.56285   0.17489   0.00000  Uiso   1.00
H81    H     0.82899   0.35851   0.83473   0.00000  Uiso   1.00
H82    H     0.79949   0.92837   0.89057   0.00000  Uiso   1.00
H83    H     0.26123   0.29681   0.83841   0.00000  Uiso   1.00
O84    O     0.81953   0.46804   0.85158   0.00000  Uiso   1.00
O85    O     0.11418   0.57037   0.59151   0.00000  Uiso   1.00
O86    O     0.38663   0.38710   0.85641   0.00000  Uiso   1.00
N87    N     0.88764   0.43768   0.87146   0.00000  Uiso   1.00
N88    N     0.86005   0.03552   0.92367   0.00000  Uiso   1.00
N89    N     0.29174   0.37997   0.87490   0.00000  Uiso   1.00
N90    N     0.85273   0.37483   0.84666   0.00000  Uiso   1.00
N91    N     0.82514   0.97267   0.89887   0.00000  Uiso   1.00
N92    N     0.25682   0.31712   0.85010   0.00000  Uiso   1.00
C93    C     0.68290   0.62330   0.22552   0.00000  Uiso   1.00
C94    C     0.63894   0.64866   0.21374   0.00000  Uiso   1.00
C95    C     0.62141   0.70498   0.21766   0.00000  Uiso   1.00
C96    C     0.58075   0.71976   0.20516   0.00000  Uiso   1.00
C97    C     0.51585   0.76522   0.18929   0.00000  Uiso   1.00
C98    C     0.63132   0.53782   0.22813   0.00000  Uiso   1.00
C99    C     0.60741   0.50095   0.24415   0.00000  Uiso   1.00
C100   C     0.56033   0.42242   0.24376   0.00000  Uiso   1.00
C101   C     0.48366   0.29579   0.25023   0.00000  Uiso   1.00
C102   C     0.75029   0.63276   0.21469   0.00000  Uiso   1.00
C103   C     0.15974   0.34237   0.88607   0.00000  Uiso   1.00
C104   C     0.21284   0.34376   0.87437   0.00000  Uiso   1.00
C105   C     0.98754   0.69787   0.19331   0.00000  Uiso   1.00
C106   C     0.64184   0.54938   0.19636   0.00000  Uiso   1.00
C107   C     0.61663   0.60850   0.19791   0.00000  Uiso   1.00
C108   C     0.57599   0.62320   0.18540   0.00000  Uiso   1.00
C109   C     0.55841   0.67954   0.18929   0.00000  Uiso   1.00
C110   C     0.60902   0.49767   0.21230   0.00000  Uiso   1.00
C111   C     0.56198   0.41917   0.21189   0.00000  Uiso   1.00
C112   C     0.53799   0.38220   0.22789   0.00000  Uiso   1.00
C113   C     0.72799   0.59261   0.19885   0.00000  Uiso   1.00
C114   C     0.78098   0.59393   0.18714   0.00000  Uiso   1.00
C115   C     0.85716   0.63687   0.19184   0.00000  Uiso   1.00
H116   H     0.70026   0.65455   0.23785   0.00000  Uiso   1.00
H117   H     0.63868   0.73603   0.22992   0.00000  Uiso   1.00
H118   H     0.62468   0.53204   0.25640   0.00000  Uiso   1.00
H119   H     0.17698   0.37343   0.89833   0.00000  Uiso   1.00
H120   H     0.56054   0.80865   0.21414   0.00000  Uiso   1.00
H121   H     0.53105   0.37851   0.26998   0.00000  Uiso   1.00
H122   H     0.99278   0.74695   0.21782   0.00000  Uiso   1.00
H123   H     0.62447   0.51812   0.18403   0.00000  Uiso   1.00
H124   H     0.55873   0.59212   0.17314   0.00000  Uiso   1.00
H125   H     0.54473   0.38812   0.19963   0.00000  Uiso   1.00
H126   H     0.43036   0.89618   0.50822   0.00000  Uiso   1.00
H127   H     0.49565   0.69185   0.16806   0.00000  Uiso   1.00
H128   H     0.46616   0.26170   0.22391   0.00000  Uiso   1.00
H129   H     0.92789   0.63015   0.17174   0.00000  Uiso   1.00
O130   O     0.48620   0.80137   0.18492   0.00000  Uiso   1.00
O131   O     0.78085   0.90371   0.92485   0.00000  Uiso   1.00
O132   O     0.05330   0.72043   0.18974   0.00000  Uiso   1.00
N133   N     0.55431   0.77102   0.20479   0.00000  Uiso   1.00
N134   N     0.52672   0.36886   0.25700   0.00000  Uiso   1.00
N135   N     0.95840   0.71331   0.20823   0.00000  Uiso   1.00
N136   N     0.51939   0.70817   0.18000   0.00000  Uiso   1.00
N137   N     0.49180   0.30601   0.23221   0.00000  Uiso   1.00
N138   N     0.92349   0.65045   0.18344   0.00000  Uiso   1.00
C139   C     0.04337   0.39293   0.55885   0.00000  Uiso   1.00
C140   C     0.01801   0.32361   0.54708   0.00000  Uiso   1.00
C141   C     0.96168   0.24977   0.55099   0.00000  Uiso   1.00
C142   C     0.94691   0.19432   0.53849   0.00000  Uiso   1.00
C143   C     0.90145   0.08396   0.52263   0.00000  Uiso   1.00
C144   C     0.12885   0.42684   0.56147   0.00000  Uiso   1.00
C145   C     0.16571   0.43979   0.57748   0.00000  Uiso   1.00
C146   C     0.24424   0.47125   0.57709   0.00000  Uiso   1.00
C147   C     0.37087   0.52120   0.58357   0.00000  Uiso   1.00
C148   C     0.03391   0.45087   0.54803   0.00000  Uiso   1.00
C149   C     0.32430   0.15071   0.21940   0.00000  Uiso   1.00
C150   C     0.32291   0.20241   0.20770   0.00000  Uiso   1.00
C151   C     0.96879   0.62300   0.52664   0.00000  Uiso   1.00
C152   C     0.11729   0.42579   0.52969   0.00000  Uiso   1.00
C153   C     0.05816   0.34146   0.53124   0.00000  Uiso   1.00
C154   C     0.04346   0.28612   0.51873   0.00000  Uiso   1.00
C155   C     0.98712   0.21220   0.52263   0.00000  Uiso   1.00
C156   C     0.16900   0.44468   0.54563   0.00000  Uiso   1.00
C157   C     0.24749   0.47614   0.54522   0.00000  Uiso   1.00
C158   C     0.28447   0.48912   0.56123   0.00000  Uiso   1.00
C159   C     0.07406   0.46871   0.53219   0.00000  Uiso   1.00
C160   C     0.07274   0.52038   0.52048   0.00000  Uiso   1.00
C161   C     0.02980   0.55362   0.52517   0.00000  Uiso   1.00
H162   H     0.01212   0.37904   0.57118   0.00000  Uiso   1.00
H163   H     0.93063   0.23598   0.56325   0.00000  Uiso   1.00
H164   H     0.13463   0.42598   0.58973   0.00000  Uiso   1.00
H165   H     0.29324   0.13688   0.23166   0.00000  Uiso   1.00
H166   H     0.85802   0.08523   0.54747   0.00000  Uiso   1.00
H167   H     0.28816   0.48587   0.60332   0.00000  Uiso   1.00
H168   H     0.91972   0.57917   0.55115   0.00000  Uiso   1.00
H169   H     0.14855   0.43968   0.51736   0.00000  Uiso   1.00
H170   H     0.07454   0.29994   0.50648   0.00000  Uiso   1.00
H171   H     0.27854   0.48994   0.53296   0.00000  Uiso   1.00
H172   H     0.77048   0.86751   0.84156   0.00000  Uiso   1.00
H173   H     0.97482   0.13714   0.50140   0.00000  Uiso   1.00
H174   H     0.40497   0.53779   0.55724   0.00000  Uiso   1.00
H175   H     0.03652   0.63108   0.50507   0.00000  Uiso   1.00
O176   O     0.86529   0.01816   0.51825   0.00000  Uiso   1.00
O177   O     0.76296   0.21047   0.25818   0.00000  Uiso   1.00
O178   O     0.94623   0.66620   0.52307   0.00000  Uiso   1.00
N179   N     0.89565   0.11663   0.53812   0.00000  Uiso   1.00
N180   N     0.29781   0.49120   0.59033   0.00000  Uiso   1.00
N181   N     0.95336   0.57843   0.54156   0.00000  Uiso   1.00
N182   N     0.95850   0.14456   0.51333   0.00000  Uiso   1.00
N183   N     0.36066   0.51913   0.56554   0.00000  Uiso   1.00
N184   N     0.01621   0.60636   0.51677   0.00000  Uiso   1.00
C185   C     0.71004   0.72627   0.89218   0.00000  Uiso   1.00
C186   C     0.68468   0.65695   0.88041   0.00000  Uiso   1.00
C187   C     0.62835   0.58310   0.88432   0.00000  Uiso   1.00
C188   C     0.61357   0.52765   0.87183   0.00000  Uiso   1.00
C189   C     0.56812   0.41730   0.85596   0.00000  Uiso   1.00
C190   C     0.79552   0.76017   0.89480   0.00000  Uiso   1.00
C191   C     0.83238   0.77312   0.91081   0.00000  Uiso   1.00
C192   C     0.91091   0.80458   0.91043   0.00000  Uiso   1.00
C193   C     0.03754   0.85453   0.91690   0.00000  Uiso   1.00
C194   C     0.70058   0.78420   0.88136   0.00000  Uiso   1.00
C195   C     0.99096   0.48404   0.55274   0.00000  Uiso   1.00
C196   C     0.98958   0.53574   0.54104   0.00000  Uiso   1.00
C197   C     0.63546   0.95634   0.85997   0.00000  Uiso   1.00
C198   C     0.78395   0.75912   0.86303   0.00000  Uiso   1.00
C199   C     0.72483   0.67479   0.86457   0.00000  Uiso   1.00
C200   C     0.71013   0.61945   0.85207   0.00000  Uiso   1.00
C201   C     0.65379   0.54553   0.85596   0.00000  Uiso   1.00
C202   C     0.83567   0.77802   0.87896   0.00000  Uiso   1.00
C203   C     0.91416   0.80947   0.87855   0.00000  Uiso   1.00
C204   C     0.95113   0.82246   0.89456   0.00000  Uiso   1.00
C205   C     0.74072   0.80205   0.86552   0.00000  Uiso   1.00
C206   C     0.73941   0.85372   0.85381   0.00000  Uiso   1.00
C207   C     0.69646   0.88696   0.85850   0.00000  Uiso   1.00
H208   H     0.67878   0.71238   0.90451   0.00000  Uiso   1.00
H209   H     0.59730   0.56931   0.89658   0.00000  Uiso   1.00
H210   H     0.80130   0.75931   0.92307   0.00000  Uiso   1.00
H211   H     0.95990   0.47022   0.56499   0.00000  Uiso   1.00
H212   H     0.52468   0.41856   0.88081   0.00000  Uiso   1.00
H213   H     0.95483   0.81921   0.93665   0.00000  Uiso   1.00
H214   H     0.58638   0.91250   0.88448   0.00000  Uiso   1.00
H215   H     0.81521   0.77302   0.85070   0.00000  Uiso   1.00
H216   H     0.74121   0.63328   0.83981   0.00000  Uiso   1.00
H217   H     0.94521   0.82328   0.86630   0.00000  Uiso   1.00
H218   H     0.43715   0.20085   0.17489   0.00000  Uiso   1.00
H219   H     0.64149   0.47048   0.83473   0.00000  Uiso   1.00
H220   H     0.07163   0.87113   0.89057   0.00000  Uiso   1.00
H221   H     0.70319   0.96441   0.83841   0.00000  Uiso   1.00
O222   O     0.53196   0.35149   0.85158   0.00000  Uiso   1.00
O223   O     0.42963   0.54381   0.59151   0.00000  Uiso   1.00
O224   O     0.61290   0.99953   0.85641   0.00000  Uiso   1.00
N225   N     0.56232   0.44996   0.87146   0.00000  Uiso   1.00
N226   N     0.96448   0.82453   0.92367   0.00000  Uiso   1.00
N227   N     0.62003   0.91176   0.87490   0.00000  Uiso   1.00
N228   N     0.62517   0.47789   0.84666   0.00000  Uiso   1.00
N229   N     0.02733   0.85246   0.89887   0.00000  Uiso   1.00
N230   N     0.68288   0.93970   0.85010   0.00000  Uiso   1.00
C231   C     0.37670   0.05960   0.22552   0.00000  Uiso   1.00
C232   C     0.35134   0.99028   0.21374   0.00000  Uiso   1.00
C233   C     0.29502   0.91643   0.21766   0.00000  Uiso   1.00
C234   C     0.28024   0.86099   0.20516   0.00000  Uiso   1.00
C235   C     0.23478   0.75063   0.18929   0.00000  Uiso   1.00
C236   C     0.46218   0.09350   0.22813   0.00000  Uiso   1.00
C237   C     0.49905   0.10645   0.24415   0.00000  Uiso   1.00
C238   C     0.57758   0.13791   0.24376   0.00000  Uiso   1.00
C239   C     0.70421   0.18786   0.25023   0.00000  Uiso   1.00
C240   C     0.36724   0.11753   0.21469   0.00000  Uiso   1.00
C241   C     0.65763   0.81737   0.88607   0.00000  Uiso   1.00
C242   C     0.65624   0.86908   0.87437   0.00000  Uiso   1.00
C243   C     0.30213   0.28967   0.19331   0.00000  Uiso   1.00
C244   C     0.45062   0.09246   0.19636   0.00000  Uiso   1.00
C245   C     0.39150   0.00813   0.19791   0.00000  Uiso   1.00
C246   C     0.37680   0.95278   0.18540   0.00000  Uiso   1.00
C247   C     0.32046   0.87886   0.18929   0.00000  Uiso   1.00
C248   C     0.50233   0.11135   0.21230   0.00000  Uiso   1.00
C249   C     0.58083   0.14280   0.21189   0.00000  Uiso   1.00
C250   C     0.61780   0.15579   0.22789   0.00000  Uiso   1.00
C251   C     0.40739   0.13538   0.19885   0.00000  Uiso   1.00
C252   C     0.40607   0.18705   0.18714   0.00000  Uiso   1.00
C253   C     0.36313   0.22029   0.19184   0.00000  Uiso   1.00
H254   H     0.34545   0.04571   0.23785   0.00000  Uiso   1.00
H255   H     0.26397   0.90264   0.22992   0.00000  Uiso   1.00
H256   H     0.46796   0.09264   0.25640   0.00000  Uiso   1.00
H257   H     0.62657   0.80355   0.89833   0.00000  Uiso   1.00
H258   H     0.19135   0.75189   0.21414   0.00000  Uiso   1.00
H259   H     0.62149   0.15254   0.26998   0.00000  Uiso   1.00
H260   H     0.25305   0.24583   0.21782   0.00000  Uiso   1.00
H261   H     0.48188   0.10635   0.18403   0.00000  Uiso   1.00
H262   H     0.40788   0.96661   0.17314   0.00000  Uiso   1.00
H263   H     0.61188   0.15661   0.19963   0.00000  Uiso   1.00
H264   H     0.10382   0.53418   0.50822   0.00000  Uiso   1.00
H265   H     0.30815   0.80381   0.16806   0.00000  Uiso   1.00
H266   H     0.73830   0.20446   0.22391   0.00000  Uiso   1.00
H267   H     0.36985   0.29775   0.17174   0.00000  Uiso   1.00
O268   O     0.19863   0.68483   0.18492   0.00000  Uiso   1.00
O269   O     0.09629   0.87714   0.92485   0.00000  Uiso   1.00
O270   O     0.27957   0.33286   0.18974   0.00000  Uiso   1.00
N271   N     0.22898   0.78329   0.20479   0.00000  Uiso   1.00
N272   N     0.63114   0.15786   0.25700   0.00000  Uiso   1.00
N273   N     0.28669   0.24510   0.20823   0.00000  Uiso   1.00
N274   N     0.29183   0.81123   0.18000   0.00000  Uiso   1.00
N275   N     0.69399   0.18580   0.23221   0.00000  Uiso   1.00
N276   N     0.34955   0.27303   0.18344   0.00000  Uiso   1.00
C277   C     0.60707   0.65044   0.55885   0.00000  Uiso   1.00
C278   C     0.67639   0.69440   0.54708   0.00000  Uiso   1.00
C279   C     0.75023   0.71192   0.55099   0.00000  Uiso   1.00
C280   C     0.80568   0.75259   0.53849   0.00000  Uiso   1.00
C281   C     0.91604   0.81749   0.52263   0.00000  Uiso   1.00
C282   C     0.57316   0.70201   0.56147   0.00000  Uiso   1.00
C283   C     0.56021   0.72593   0.57748   0.00000  Uiso   1.00
C284   C     0.52875   0.77300   0.57709   0.00000  Uiso   1.00
C285   C     0.47880   0.84968   0.58357   0.00000  Uiso   1.00
C286   C     0.54913   0.58304   0.54803   0.00000  Uiso   1.00
C287   C     0.84929   0.17359   0.21940   0.00000  Uiso   1.00
C288   C     0.79759   0.12050   0.20770   0.00000  Uiso   1.00
C289   C     0.37700   0.34579   0.52664   0.00000  Uiso   1.00
C290   C     0.57421   0.69150   0.52969   0.00000  Uiso   1.00
C291   C     0.65854   0.71670   0.53124   0.00000  Uiso   1.00
C292   C     0.71388   0.75735   0.51873   0.00000  Uiso   1.00
C293   C     0.78780   0.77493   0.52263   0.00000  Uiso   1.00
C294   C     0.55532   0.72432   0.54563   0.00000  Uiso   1.00
C295   C     0.52386   0.77136   0.54522   0.00000  Uiso   1.00
C296   C     0.51088   0.79534   0.56123   0.00000  Uiso   1.00
C297   C     0.53129   0.60534   0.53219   0.00000  Uiso   1.00
C298   C     0.47962   0.55236   0.52048   0.00000  Uiso   1.00
C299   C     0.44638   0.47617   0.52517   0.00000  Uiso   1.00
H300   H     0.62096   0.63307   0.57118   0.00000  Uiso   1.00
H301   H     0.76402   0.69466   0.56325   0.00000  Uiso   1.00
H302   H     0.57402   0.70865   0.58973   0.00000  Uiso   1.00
H303   H     0.86312   0.15636   0.23166   0.00000  Uiso   1.00
H304   H     0.91477   0.77279   0.54747   0.00000  Uiso   1.00
H305   H     0.51413   0.80229   0.60332   0.00000  Uiso   1.00
H306   H     0.42083   0.34055   0.55115   0.00000  Uiso   1.00
H307   H     0.56032   0.70886   0.51736   0.00000  Uiso   1.00
H308   H     0.70006   0.77460   0.50648   0.00000  Uiso   1.00
H309   H     0.51006   0.78860   0.53296   0.00000  Uiso   1.00
H310   H     0.13249   0.90297   0.84156   0.00000  Uiso   1.00
H311   H     0.86286   0.83768   0.50140   0.00000  Uiso   1.00
H312   H     0.46221   0.86717   0.55724   0.00000  Uiso   1.00
H313   H     0.36892   0.40544   0.50507   0.00000  Uiso   1.00
O314   O     0.98184   0.84713   0.51825   0.00000  Uiso   1.00
O315   O     0.78953   0.55249   0.25818   0.00000  Uiso   1.00
O316   O     0.33380   0.28004   0.52307   0.00000  Uiso   1.00
N317   N     0.88337   0.77903   0.53812   0.00000  Uiso   1.00
N318   N     0.50880   0.80661   0.59033   0.00000  Uiso   1.00
N319   N     0.42157   0.37493   0.54156   0.00000  Uiso   1.00
N320   N     0.85544   0.81394   0.51333   0.00000  Uiso   1.00
N321   N     0.48087   0.84153   0.56554   0.00000  Uiso   1.00
N322   N     0.39364   0.40985   0.51677   0.00000  Uiso   1.00
C323   C     0.27373   0.98377   0.89218   0.00000  Uiso   1.00
C324   C     0.34305   0.02773   0.88041   0.00000  Uiso   1.00
C325   C     0.41690   0.04525   0.88432   0.00000  Uiso   1.00
C326   C     0.47235   0.08592   0.87183   0.00000  Uiso   1.00
C327   C     0.58270   0.15082   0.85596   0.00000  Uiso   1.00
C328   C     0.23983   0.03535   0.89480   0.00000  Uiso   1.00
C329   C     0.22688   0.05926   0.91081   0.00000  Uiso   1.00
C330   C     0.19542   0.10633   0.91043   0.00000  Uiso   1.00
C331   C     0.14547   0.18301   0.91690   0.00000  Uiso   1.00
C332   C     0.21580   0.91638   0.88136   0.00000  Uiso   1.00
C333   C     0.51596   0.50693   0.55274   0.00000  Uiso   1.00
C334   C     0.46426   0.45383   0.54104   0.00000  Uiso   1.00
C335   C     0.04366   0.67912   0.85997   0.00000  Uiso   1.00
C336   C     0.24088   0.02483   0.86303   0.00000  Uiso   1.00
C337   C     0.32521   0.05003   0.86457   0.00000  Uiso   1.00
C338   C     0.38055   0.09068   0.85207   0.00000  Uiso   1.00
C339   C     0.45447   0.10826   0.85596   0.00000  Uiso   1.00
C340   C     0.22198   0.05765   0.87896   0.00000  Uiso   1.00
C341   C     0.19053   0.10469   0.87855   0.00000  Uiso   1.00
C342   C     0.17754   0.12868   0.89456   0.00000  Uiso   1.00
C343   C     0.19795   0.93868   0.86552   0.00000  Uiso   1.00
C344   C     0.14628   0.88569   0.85381   0.00000  Uiso   1.00
C345   C     0.11304   0.80951   0.85850   0.00000  Uiso   1.00
H346   H     0.28762   0.96641   0.90451   0.00000  Uiso   1.00
H347   H     0.43069   0.02799   0.89658   0.00000  Uiso   1.00
H348   H     0.24069   0.04199   0.92307   0.00000  Uiso   1.00
H349   H     0.52978   0.48969   0.56499   0.00000  Uiso   1.00
H350   H     0.58144   0.10612   0.88081   0.00000  Uiso   1.00
H351   H     0.18079   0.13562   0.93665   0.00000  Uiso   1.00
H352   H     0.08750   0.67388   0.88448   0.00000  Uiso   1.00
H353   H     0.22698   0.04219   0.85070   0.00000  Uiso   1.00
H354   H     0.36672   0.10793   0.83981   0.00000  Uiso   1.00
H355   H     0.17672   0.12193   0.86630   0.00000  Uiso   1.00
H356   H     0.79915   0.23630   0.17489   0.00000  Uiso   1.00
H357   H     0.52952   0.17101   0.83473   0.00000  Uiso   1.00
H358   H     0.12887   0.20051   0.89057   0.00000  Uiso   1.00
H359   H     0.03559   0.73877   0.83841   0.00000  Uiso   1.00
O360   O     0.64851   0.18047   0.85158   0.00000  Uiso   1.00
O361   O     0.45619   0.88582   0.59151   0.00000  Uiso   1.00
O362   O     0.00047   0.61337   0.85641   0.00000  Uiso   1.00
N363   N     0.55004   0.11236   0.87146   0.00000  Uiso   1.00
N364   N     0.17547   0.13995   0.92367   0.00000  Uiso   1.00
N365   N     0.08824   0.70826   0.87490   0.00000  Uiso   1.00
N366   N     0.52211   0.14727   0.84666   0.00000  Uiso   1.00
N367   N     0.14754   0.17486   0.89887   0.00000  Uiso   1.00
N368   N     0.06030   0.74318   0.85010   0.00000  Uiso   1.00
C369   C     0.94040   0.31710   0.22552   0.00000  Uiso   1.00
C370   C     0.00972   0.36106   0.21374   0.00000  Uiso   1.00
C371   C     0.08357   0.37859   0.21766   0.00000  Uiso   1.00
C372   C     0.13901   0.41925   0.20516   0.00000  Uiso   1.00
C373   C     0.24937   0.48415   0.18929   0.00000  Uiso   1.00
C374   C     0.90650   0.36868   0.22813   0.00000  Uiso   1.00
C375   C     0.89355   0.39259   0.24415   0.00000  Uiso   1.00
C376   C     0.86209   0.43967   0.24376   0.00000  Uiso   1.00
C377   C     0.81214   0.51634   0.25023   0.00000  Uiso   1.00
C378   C     0.88247   0.24971   0.21469   0.00000  Uiso   1.00
C379   C     0.18263   0.84026   0.88607   0.00000  Uiso   1.00
C380   C     0.13092   0.78716   0.87437   0.00000  Uiso   1.00
C381   C     0.71033   0.01246   0.19331   0.00000  Uiso   1.00
C382   C     0.90754   0.35816   0.19636   0.00000  Uiso   1.00
C383   C     0.99187   0.38337   0.19791   0.00000  Uiso   1.00
C384   C     0.04722   0.42401   0.18540   0.00000  Uiso   1.00
C385   C     0.12114   0.44159   0.18929   0.00000  Uiso   1.00
C386   C     0.88865   0.39098   0.21230   0.00000  Uiso   1.00
C387   C     0.85720   0.43802   0.21189   0.00000  Uiso   1.00
C388   C     0.84421   0.46201   0.22789   0.00000  Uiso   1.00
C389   C     0.86462   0.27201   0.19885   0.00000  Uiso   1.00
C390   C     0.81295   0.21902   0.18714   0.00000  Uiso   1.00
C391   C     0.77971   0.14284   0.19184   0.00000  Uiso   1.00
H392   H     0.95429   0.29974   0.23785   0.00000  Uiso   1.00
H393   H     0.09736   0.36132   0.22992   0.00000  Uiso   1.00
H394   H     0.90736   0.37532   0.25640   0.00000  Uiso   1.00
H395   H     0.19645   0.82302   0.89833   0.00000  Uiso   1.00
H396   H     0.24811   0.43946   0.21414   0.00000  Uiso   1.00
H397   H     0.84746   0.46895   0.26998   0.00000  Uiso   1.00
H398   H     0.75417   0.00722   0.21782   0.00000  Uiso   1.00
H399   H     0.89365   0.37553   0.18403   0.00000  Uiso   1.00
H400   H     0.03339   0.44127   0.17314   0.00000  Uiso   1.00
H401   H     0.84339   0.45527   0.19963   0.00000  Uiso   1.00
H402   H     0.46582   0.56964   0.50822   0.00000  Uiso   1.00
H403   H     0.19619   0.50435   0.16806   0.00000  Uiso   1.00
H404   H     0.79554   0.53384   0.22391   0.00000  Uiso   1.00
H405   H     0.70225   0.07211   0.17174   0.00000  Uiso   1.00
O406   O     0.31517   0.51380   0.18492   0.00000  Uiso   1.00
O407   O     0.12286   0.21915   0.92485   0.00000  Uiso   1.00
O408   O     0.66714   0.94670   0.18974   0.00000  Uiso   1.00
N409   N     0.21671   0.44569   0.20479   0.00000  Uiso   1.00
N410   N     0.84214   0.47328   0.25700   0.00000  Uiso   1.00
N411   N     0.75490   0.04160   0.20823   0.00000  Uiso   1.00
N412   N     0.18877   0.48061   0.18000   0.00000  Uiso   1.00
N413   N     0.81420   0.50820   0.23221   0.00000  Uiso   1.00
N414   N     0.72697   0.07651   0.18344   0.00000  Uiso   1.00
C415   C     0.95663   0.34956   0.94115   0.00000  Uiso   1.00
C416   C     0.98199   0.30560   0.95292   0.00000  Uiso   1.00
C417   C     0.03832   0.28808   0.94901   0.00000  Uiso   1.00
C418   C     0.05309   0.24741   0.96151   0.00000  Uiso   1.00
C419   C     0.09855   0.18251   0.97737   0.00000  Uiso   1.00
C420   C     0.87115   0.29799   0.93853   0.00000  Uiso   1.00
C421   C     0.83429   0.27407   0.92252   0.00000  Uiso   1.00
C422   C     0.75576   0.22700   0.92291   0.00000  Uiso   1.00
C423   C     0.62913   0.15032   0.91643   0.00000  Uiso   1.00
C424   C     0.96609   0.41696   0.95197   0.00000  Uiso   1.00
C425   C     0.67570   0.82641   0.28060   0.00000  Uiso   1.00
C426   C     0.67709   0.87950   0.29230   0.00000  Uiso   1.00
C427   C     0.03121   0.65421   0.97336   0.00000  Uiso   1.00
C428   C     0.88271   0.30850   0.97031   0.00000  Uiso   1.00
C429   C     0.94184   0.28330   0.96876   0.00000  Uiso   1.00
C430   C     0.95654   0.24265   0.98127   0.00000  Uiso   1.00
C431   C     0.01288   0.22507   0.97737   0.00000  Uiso   1.00
C432   C     0.83100   0.27568   0.95437   0.00000  Uiso   1.00
C433   C     0.75251   0.22864   0.95478   0.00000  Uiso   1.00
C434   C     0.71553   0.20466   0.93877   0.00000  Uiso   1.00
C435   C     0.92594   0.39466   0.96781   0.00000  Uiso   1.00
C436   C     0.92726   0.44764   0.97952   0.00000  Uiso   1.00
C437   C     0.97020   0.52383   0.97483   0.00000  Uiso   1.00
H438   H     0.98788   0.36693   0.92882   0.00000  Uiso   1.00
H439   H     0.06937   0.30534   0.93675   0.00000  Uiso   1.00
H440   H     0.86537   0.29135   0.91027   0.00000  Uiso   1.00
H441   H     0.70676   0.84364   0.26834   0.00000  Uiso   1.00
H442   H     0.14198   0.22721   0.95253   0.00000  Uiso   1.00
H443   H     0.71184   0.19771   0.89668   0.00000  Uiso   1.00
H444   H     0.08028   0.65945   0.94885   0.00000  Uiso   1.00
H445   H     0.85145   0.29114   0.98264   0.00000  Uiso   1.00
H446   H     0.92546   0.22540   0.99352   0.00000  Uiso   1.00
H447   H     0.72146   0.21140   0.96704   0.00000  Uiso   1.00
H448   H     0.22952   0.09703   0.65844   0.00000  Uiso   1.00
H449   H     0.02518   0.16232   0.99860   0.00000  Uiso   1.00
H450   H     0.59503   0.13283   0.94276   0.00000  Uiso   1.00
H451   H     0.96348   0.59456   0.99493   0.00000  Uiso   1.00
O452   O     0.13471   0.15287   0.98175   0.00000  Uiso   1.00
O453   O     0.23704   0.44751   0.24182   0.00000  Uiso   1.00
O454   O     0.05377   0.71996   0.97693   0.00000  Uiso   1.00
N455   N     0.10435   0.22097   0.96188   0.00000  Uiso   1.00
N456   N     0.70219   0.19339   0.90967   0.00000  Uiso   1.00
N457   N     0.04664   0.62507   0.95844   0.00000  Uiso   1.00
N458   N     0.04150   0.18606   0.98667   0.00000  Uiso   1.00
N459   N     0.63934   0.15847   0.93446   0.00000  Uiso   1.00
N460   N     0.98379   0.59015   0.98323   0.00000  Uiso   1.00
C461   C     0.62330   0.68290   0.27448   0.00000  Uiso   1.00
C462   C     0.64866   0.63894   0.28626   0.00000  Uiso   1.00
C463   C     0.70498   0.62141   0.28234   0.00000  Uiso   1.00
C464   C     0.71976   0.58075   0.29484   0.00000  Uiso   1.00
C465   C     0.76522   0.51585   0.31071   0.00000  Uiso   1.00
C466   C     0.53782   0.63132   0.27187   0.00000  Uiso   1.00
C467   C     0.50095   0.60741   0.25585   0.00000  Uiso   1.00
C468   C     0.42242   0.56033   0.25624   0.00000  Uiso   1.00
C469   C     0.29579   0.48366   0.24977   0.00000  Uiso   1.00
C470   C     0.63276   0.75029   0.28531   0.00000  Uiso   1.00
C471   C     0.34237   0.15974   0.61393   0.00000  Uiso   1.00
C472   C     0.34376   0.21284   0.62563   0.00000  Uiso   1.00
C473   C     0.69787   0.98754   0.30669   0.00000  Uiso   1.00
C474   C     0.54938   0.64184   0.30364   0.00000  Uiso   1.00
C475   C     0.60850   0.61663   0.30209   0.00000  Uiso   1.00
C476   C     0.62320   0.57599   0.31460   0.00000  Uiso   1.00
C477   C     0.67954   0.55841   0.31071   0.00000  Uiso   1.00
C478   C     0.49767   0.60902   0.28770   0.00000  Uiso   1.00
C479   C     0.41917   0.56198   0.28811   0.00000  Uiso   1.00
C480   C     0.38220   0.53799   0.27211   0.00000  Uiso   1.00
C481   C     0.59261   0.72799   0.30115   0.00000  Uiso   1.00
C482   C     0.59393   0.78098   0.31286   0.00000  Uiso   1.00
C483   C     0.63687   0.85716   0.30816   0.00000  Uiso   1.00
H484   H     0.65455   0.70026   0.26215   0.00000  Uiso   1.00
H485   H     0.73603   0.63868   0.27008   0.00000  Uiso   1.00
H486   H     0.53204   0.62468   0.24360   0.00000  Uiso   1.00
H487   H     0.37343   0.17698   0.60167   0.00000  Uiso   1.00
H488   H     0.80865   0.56054   0.28586   0.00000  Uiso   1.00
H489   H     0.37851   0.53105   0.23002   0.00000  Uiso   1.00
H490   H     0.74695   0.99278   0.28218   0.00000  Uiso   1.00
H491   H     0.51812   0.62447   0.31597   0.00000  Uiso   1.00
H492   H     0.59212   0.55873   0.32686   0.00000  Uiso   1.00
H493   H     0.38812   0.54473   0.30037   0.00000  Uiso   1.00
H494   H     0.89618   0.43036   0.99178   0.00000  Uiso   1.00
H495   H     0.69185   0.49565   0.33194   0.00000  Uiso   1.00
H496   H     0.26170   0.46616   0.27609   0.00000  Uiso   1.00
H497   H     0.63015   0.92789   0.32826   0.00000  Uiso   1.00
O498   O     0.80137   0.48620   0.31508   0.00000  Uiso   1.00
O499   O     0.90371   0.78085   0.57515   0.00000  Uiso   1.00
O500   O     0.72043   0.05330   0.31026   0.00000  Uiso   1.00
N501   N     0.77102   0.55431   0.29521   0.00000  Uiso   1.00
N502   N     0.36886   0.52672   0.24300   0.00000  Uiso   1.00
N503   N     0.71331   0.95840   0.29177   0.00000  Uiso   1.00
N504   N     0.70817   0.51939   0.32000   0.00000  Uiso   1.00
N505   N     0.30601   0.49180   0.26779   0.00000  Uiso   1.00
N506   N     0.65045   0.92349   0.31656   0.00000  Uiso   1.00
C507   C     0.28996   0.01623   0.60782   0.00000  Uiso   1.00
C508   C     0.31532   0.97227   0.61959   0.00000  Uiso   1.00
C509   C     0.37165   0.95475   0.61568   0.00000  Uiso   1.00
C510   C     0.38643   0.91408   0.62817   0.00000  Uiso   1.00
C511   C     0.43188   0.84918   0.64404   0.00000  Uiso   1.00
C512   C     0.20448   0.96465   0.60520   0.00000  Uiso   1.00
C513   C     0.16762   0.94074   0.58919   0.00000  Uiso   1.00
C514   C     0.08909   0.89367   0.58957   0.00000  Uiso   1.00
C515   C     0.96246   0.81699   0.58310   0.00000  Uiso   1.00
C516   C     0.29942   0.08362   0.61864   0.00000  Uiso   1.00
C517   C     0.00904   0.49307   0.94726   0.00000  Uiso   1.00
C518   C     0.01042   0.54617   0.95896   0.00000  Uiso   1.00
C519   C     0.36454   0.32088   0.64003   0.00000  Uiso   1.00
C520   C     0.21605   0.97517   0.63697   0.00000  Uiso   1.00
C521   C     0.27517   0.94997   0.63543   0.00000  Uiso   1.00
C522   C     0.28987   0.90932   0.64793   0.00000  Uiso   1.00
C523   C     0.34621   0.89174   0.64404   0.00000  Uiso   1.00
C524   C     0.16433   0.94235   0.62104   0.00000  Uiso   1.00
C525   C     0.08584   0.89531   0.62145   0.00000  Uiso   1.00
C526   C     0.04887   0.87132   0.60544   0.00000  Uiso   1.00
C527   C     0.25928   0.06132   0.63448   0.00000  Uiso   1.00
C528   C     0.26059   0.11431   0.64619   0.00000  Uiso   1.00
C529   C     0.30354   0.19049   0.64150   0.00000  Uiso   1.00
H530   H     0.32122   0.03359   0.59549   0.00000  Uiso   1.00
H531   H     0.40270   0.97201   0.60342   0.00000  Uiso   1.00
H532   H     0.19870   0.95801   0.57693   0.00000  Uiso   1.00
H533   H     0.04010   0.51031   0.93501   0.00000  Uiso   1.00
H534   H     0.47532   0.89388   0.61919   0.00000  Uiso   1.00
H535   H     0.04517   0.86438   0.56335   0.00000  Uiso   1.00
H536   H     0.41362   0.32612   0.61552   0.00000  Uiso   1.00
H537   H     0.18479   0.95781   0.64930   0.00000  Uiso   1.00
H538   H     0.25879   0.89207   0.66019   0.00000  Uiso   1.00
H539   H     0.05479   0.87807   0.63370   0.00000  Uiso   1.00
H540   H     0.56285   0.76370   0.32511   0.00000  Uiso   1.00
H541   H     0.35851   0.82899   0.66527   0.00000  Uiso   1.00
H542   H     0.92837   0.79949   0.60943   0.00000  Uiso   1.00
H543   H     0.29681   0.26123   0.66159   0.00000  Uiso   1.00
O544   O     0.46804   0.81953   0.64842   0.00000  Uiso   1.00
O545   O     0.57037   0.11418   0.90849   0.00000  Uiso   1.00
O546   O     0.38710   0.38663   0.64359   0.00000  Uiso   1.00
N547   N     0.43768   0.88764   0.62854   0.00000  Uiso   1.00
N548   N     0.03552   0.86005   0.57633   0.00000  Uiso   1.00
N549   N     0.37997   0.29174   0.62510   0.00000  Uiso   1.00
N550   N     0.37483   0.85273   0.65334   0.00000  Uiso   1.00
N551   N     0.97267   0.82514   0.60113   0.00000  Uiso   1.00
N552   N     0.31712   0.25682   0.64990   0.00000  Uiso   1.00
C553   C     0.39293   0.04337   0.94115   0.00000  Uiso   1.00
C554   C     0.32361   0.01801   0.95292   0.00000  Uiso   1.00
C555   C     0.24977   0.96168   0.94901   0.00000  Uiso   1.00
C556   C     0.19432   0.94691   0.96151   0.00000  Uiso   1.00
C557   C     0.08396   0.90145   0.97737   0.00000  Uiso   1.00
C558   C     0.42684   0.12885   0.93853   0.00000  Uiso   1.00
C559   C     0.43979   0.16571   0.92252   0.00000  Uiso   1.00
C560   C     0.47125   0.24424   0.92291   0.00000  Uiso   1.00
C561   C     0.52120   0.37087   0.91643   0.00000  Uiso   1.00
C562   C     0.45087   0.03391   0.95197   0.00000  Uiso   1.00
C563   C     0.15071   0.32430   0.28060   0.00000  Uiso   1.00
C564   C     0.20241   0.32291   0.29230   0.00000  Uiso   1.00
C565   C     0.62300   0.96879   0.97336   0.00000  Uiso   1.00
C566   C     0.42579   0.11729   0.97031   0.00000  Uiso   1.00
C567   C     0.34146   0.05816   0.96876   0.00000  Uiso   1.00
C568   C     0.28612   0.04346   0.98127   0.00000  Uiso   1.00
C569   C     0.21220   0.98712   0.97737   0.00000  Uiso   1.00
C570   C     0.44468   0.16900   0.95437   0.00000  Uiso   1.00
C571   C     0.47614   0.24749   0.95478   0.00000  Uiso   1.00
C572   C     0.48912   0.28447   0.93877   0.00000  Uiso   1.00
C573   C     0.46871   0.07406   0.96781   0.00000  Uiso   1.00
C574   C     0.52038   0.07274   0.97952   0.00000  Uiso   1.00
C575   C     0.55362   0.02980   0.97483   0.00000  Uiso   1.00
H576   H     0.37904   0.01212   0.92882   0.00000  Uiso   1.00
H577   H     0.23598   0.93063   0.93675   0.00000  Uiso   1.00
H578   H     0.42598   0.13463   0.91027   0.00000  Uiso   1.00
H579   H     0.13688   0.29324   0.26834   0.00000  Uiso   1.00
H580   H     0.08523   0.85802   0.95253   0.00000  Uiso   1.00
H581   H     0.48587   0.28816   0.89668   0.00000  Uiso   1.00
H582   H     0.57917   0.91972   0.94885   0.00000  Uiso   1.00
H583   H     0.43968   0.14855   0.98264   0.00000  Uiso   1.00
H584   H     0.29994   0.07454   0.99352   0.00000  Uiso   1.00
H585   H     0.48994   0.27854   0.96704   0.00000  Uiso   1.00
H586   H     0.86751   0.77048   0.65844   0.00000  Uiso   1.00
H587   H     0.13714   0.97482   0.99860   0.00000  Uiso   1.00
H588   H     0.53779   0.40497   0.94276   0.00000  Uiso   1.00
H589   H     0.63108   0.03652   0.99493   0.00000  Uiso   1.00
O590   O     0.01816   0.86529   0.98175   0.00000  Uiso   1.00
O591   O     0.21047   0.76296   0.24182   0.00000  Uiso   1.00
O592   O     0.66620   0.94623   0.97693   0.00000  Uiso   1.00
N593   N     0.11663   0.89565   0.96188   0.00000  Uiso   1.00
N594   N     0.49120   0.29781   0.90967   0.00000  Uiso   1.00
N595   N     0.57843   0.95336   0.95844   0.00000  Uiso   1.00
N596   N     0.14456   0.95850   0.98667   0.00000  Uiso   1.00
N597   N     0.51913   0.36066   0.93446   0.00000  Uiso   1.00
N598   N     0.60636   0.01621   0.98323   0.00000  Uiso   1.00
C599   C     0.05960   0.37670   0.27448   0.00000  Uiso   1.00
C600   C     0.99028   0.35134   0.28626   0.00000  Uiso   1.00
C601   C     0.91643   0.29502   0.28234   0.00000  Uiso   1.00
C602   C     0.86099   0.28024   0.29484   0.00000  Uiso   1.00
C603   C     0.75063   0.23478   0.31071   0.00000  Uiso   1.00
C604   C     0.09350   0.46218   0.27187   0.00000  Uiso   1.00
C605   C     0.10645   0.49905   0.25585   0.00000  Uiso   1.00
C606   C     0.13791   0.57758   0.25624   0.00000  Uiso   1.00
C607   C     0.18786   0.70421   0.24977   0.00000  Uiso   1.00
C608   C     0.11753   0.36724   0.28531   0.00000  Uiso   1.00
C609   C     0.81737   0.65763   0.61393   0.00000  Uiso   1.00
C610   C     0.86908   0.65624   0.62563   0.00000  Uiso   1.00
C611   C     0.28967   0.30213   0.30669   0.00000  Uiso   1.00
C612   C     0.09246   0.45062   0.30364   0.00000  Uiso   1.00
C613   C     0.00813   0.39150   0.30209   0.00000  Uiso   1.00
C614   C     0.95278   0.37680   0.31460   0.00000  Uiso   1.00
C615   C     0.87886   0.32046   0.31071   0.00000  Uiso   1.00
C616   C     0.11135   0.50233   0.28770   0.00000  Uiso   1.00
C617   C     0.14280   0.58083   0.28811   0.00000  Uiso   1.00
C618   C     0.15579   0.61780   0.27211   0.00000  Uiso   1.00
C619   C     0.13538   0.40739   0.30115   0.00000  Uiso   1.00
C620   C     0.18705   0.40607   0.31286   0.00000  Uiso   1.00
C621   C     0.22029   0.36313   0.30816   0.00000  Uiso   1.00
H622   H     0.04571   0.34545   0.26215   0.00000  Uiso   1.00
H623   H     0.90264   0.26397   0.27008   0.00000  Uiso   1.00
H624   H     0.09264   0.46796   0.24360   0.00000  Uiso   1.00
H625   H     0.80355   0.62657   0.60167   0.00000  Uiso   1.00
H626   H     0.75189   0.19135   0.28586   0.00000  Uiso   1.00
H627   H     0.15254   0.62149   0.23002   0.00000  Uiso   1.00
H628   H     0.24583   0.25305   0.28218   0.00000  Uiso   1.00
H629   H     0.10635   0.48188   0.31597   0.00000  Uiso   1.00
H630   H     0.96661   0.40788   0.32686   0.00000  Uiso   1.00
H631   H     0.15661   0.61188   0.30037   0.00000  Uiso   1.00
H632   H     0.53418   0.10382   0.99178   0.00000  Uiso   1.00
H633   H     0.80381   0.30815   0.33194   0.00000  Uiso   1.00
H634   H     0.20446   0.73830   0.27609   0.00000  Uiso   1.00
H635   H     0.29775   0.36985   0.32826   0.00000  Uiso   1.00
O636   O     0.68483   0.19863   0.31508   0.00000  Uiso   1.00
O637   O     0.87714   0.09629   0.57515   0.00000  Uiso   1.00
O638   O     0.33286   0.27957   0.31026   0.00000  Uiso   1.00
N639   N     0.78329   0.22898   0.29521   0.00000  Uiso   1.00
N640   N     0.15786   0.63114   0.24300   0.00000  Uiso   1.00
N641   N     0.24510   0.28669   0.29177   0.00000  Uiso   1.00
N642   N     0.81123   0.29183   0.32000   0.00000  Uiso   1.00
N643   N     0.18580   0.69399   0.26779   0.00000  Uiso   1.00
N644   N     0.27303   0.34955   0.31656   0.00000  Uiso   1.00
C645   C     0.72627   0.71004   0.60782   0.00000  Uiso   1.00
C646   C     0.65695   0.68468   0.61959   0.00000  Uiso   1.00
C647   C     0.58310   0.62835   0.61568   0.00000  Uiso   1.00
C648   C     0.52765   0.61357   0.62817   0.00000  Uiso   1.00
C649   C     0.41730   0.56812   0.64404   0.00000  Uiso   1.00
C650   C     0.76017   0.79552   0.60520   0.00000  Uiso   1.00
C651   C     0.77312   0.83238   0.58919   0.00000  Uiso   1.00
C652   C     0.80458   0.91091   0.58957   0.00000  Uiso   1.00
C653   C     0.85453   0.03754   0.58310   0.00000  Uiso   1.00
C654   C     0.78420   0.70058   0.61864   0.00000  Uiso   1.00
C655   C     0.48404   0.99096   0.94726   0.00000  Uiso   1.00
C656   C     0.53574   0.98958   0.95896   0.00000  Uiso   1.00
C657   C     0.95634   0.63546   0.64003   0.00000  Uiso   1.00
C658   C     0.75912   0.78395   0.63697   0.00000  Uiso   1.00
C659   C     0.67479   0.72483   0.63543   0.00000  Uiso   1.00
C660   C     0.61945   0.71013   0.64793   0.00000  Uiso   1.00
C661   C     0.54553   0.65379   0.64404   0.00000  Uiso   1.00
C662   C     0.77802   0.83567   0.62104   0.00000  Uiso   1.00
C663   C     0.80947   0.91416   0.62145   0.00000  Uiso   1.00
C664   C     0.82246   0.95113   0.60544   0.00000  Uiso   1.00
C665   C     0.80205   0.74072   0.63448   0.00000  Uiso   1.00
C666   C     0.85372   0.73941   0.64619   0.00000  Uiso   1.00
C667   C     0.88696   0.69646   0.64150   0.00000  Uiso   1.00
H668   H     0.71238   0.67878   0.59549   0.00000  Uiso   1.00
H669   H     0.56931   0.59730   0.60342   0.00000  Uiso   1.00
H670   H     0.75931   0.80130   0.57693   0.00000  Uiso   1.00
H671   H     0.47022   0.95990   0.93501   0.00000  Uiso   1.00
H672   H     0.41856   0.52468   0.61919   0.00000  Uiso   1.00
H673   H     0.81921   0.95483   0.56335   0.00000  Uiso   1.00
H674   H     0.91250   0.58638   0.61552   0.00000  Uiso   1.00
H675   H     0.77302   0.81521   0.64930   0.00000  Uiso   1.00
H676   H     0.63328   0.74121   0.66019   0.00000  Uiso   1.00
H677   H     0.82328   0.94521   0.63370   0.00000  Uiso   1.00
H678   H     0.20085   0.43715   0.32511   0.00000  Uiso   1.00
H679   H     0.47048   0.64149   0.66527   0.00000  Uiso   1.00
H680   H     0.87113   0.07163   0.60943   0.00000  Uiso   1.00
H681   H     0.96441   0.70319   0.66159   0.00000  Uiso   1.00
O682   O     0.35149   0.53196   0.64842   0.00000  Uiso   1.00
O683   O     0.54381   0.42963   0.90849   0.00000  Uiso   1.00
O684   O     0.99953   0.61290   0.64359   0.00000  Uiso   1.00
N685   N     0.44996   0.56232   0.62854   0.00000  Uiso   1.00
N686   N     0.82453   0.96448   0.57633   0.00000  Uiso   1.00
N687   N     0.91176   0.62003   0.62510   0.00000  Uiso   1.00
N688   N     0.47789   0.62517   0.65334   0.00000  Uiso   1.00
N689   N     0.85246   0.02733   0.60113   0.00000  Uiso   1.00
N690   N     0.93970   0.68288   0.64990   0.00000  Uiso   1.00
C691   C     0.65044   0.60707   0.94115   0.00000  Uiso   1.00
C692   C     0.69440   0.67639   0.95292   0.00000  Uiso   1.00
C693   C     0.71192   0.75023   0.94901   0.00000  Uiso   1.00
C694   C     0.75259   0.80568   0.96151   0.00000  Uiso   1.00
C695   C     0.81749   0.91604   0.97737   0.00000  Uiso   1.00
C696   C     0.70201   0.57316   0.93853   0.00000  Uiso   1.00
C697   C     0.72593   0.56021   0.92252   0.00000  Uiso   1.00
C698   C     0.77300   0.52875   0.92291   0.00000  Uiso   1.00
C699   C     0.84968   0.47880   0.91643   0.00000  Uiso   1.00
C700   C     0.58304   0.54913   0.95197   0.00000  Uiso   1.00
C701   C     0.17359   0.84929   0.28060   0.00000  Uiso   1.00
C702   C     0.12050   0.79759   0.29230   0.00000  Uiso   1.00
C703   C     0.34579   0.37700   0.97336   0.00000  Uiso   1.00
C704   C     0.69150   0.57421   0.97031   0.00000  Uiso   1.00
C705   C     0.71670   0.65854   0.96876   0.00000  Uiso   1.00
C706   C     0.75735   0.71388   0.98127   0.00000  Uiso   1.00
C707   C     0.77493   0.78780   0.97737   0.00000  Uiso   1.00
C708   C     0.72432   0.55532   0.95437   0.00000  Uiso   1.00
C709   C     0.77136   0.52386   0.95478   0.00000  Uiso   1.00
C710   C     0.79534   0.51088   0.93877   0.00000  Uiso   1.00
C711   C     0.60534   0.53129   0.96781   0.00000  Uiso   1.00
C712   C     0.55236   0.47962   0.97952   0.00000  Uiso   1.00
C713   C     0.47617   0.44638   0.97483   0.00000  Uiso   1.00
H714   H     0.63307   0.62096   0.92882   0.00000  Uiso   1.00
H715   H     0.69466   0.76402   0.93675   0.00000  Uiso   1.00
H716   H     0.70865   0.57402   0.91027   0.00000  Uiso   1.00
H717   H     0.15636   0.86312   0.26834   0.00000  Uiso   1.00
H718   H     0.77279   0.91477   0.95253   0.00000  Uiso   1.00
H719   H     0.80229   0.51413   0.89668   0.00000  Uiso   1.00
H720   H     0.34055   0.42083   0.94885   0.00000  Uiso   1.00
H721   H     0.70886   0.56032   0.98264   0.00000  Uiso   1.00
H722   H     0.77460   0.70006   0.99352   0.00000  Uiso   1.00
H723   H     0.78860   0.51006   0.96704   0.00000  Uiso   1.00
H724   H     0.90297   0.13249   0.65844   0.00000  Uiso   1.00
H725   H     0.83768   0.86286   0.99860   0.00000  Uiso   1.00
H726   H     0.86717   0.46221   0.94276   0.00000  Uiso   1.00
H727   H     0.40544   0.36892   0.99493   0.00000  Uiso   1.00
O728   O     0.84713   0.98184   0.98175   0.00000  Uiso   1.00
O729   O     0.55249   0.78953   0.24182   0.00000  Uiso   1.00
O730   O     0.28004   0.33380   0.97693   0.00000  Uiso   1.00
N731   N     0.77903   0.88337   0.96188   0.00000  Uiso   1.00
N732   N     0.80661   0.50880   0.90967   0.00000  Uiso   1.00
N733   N     0.37493   0.42157   0.95844   0.00000  Uiso   1.00
N734   N     0.81394   0.85544   0.98667   0.00000  Uiso   1.00
N735   N     0.84153   0.48087   0.93446   0.00000  Uiso   1.00
N736   N     0.40985   0.39364   0.98323   0.00000  Uiso   1.00
C737   C     0.31710   0.94040   0.27448   0.00000  Uiso   1.00
C738   C     0.36106   0.00972   0.28626   0.00000  Uiso   1.00
C739   C     0.37859   0.08357   0.28234   0.00000  Uiso   1.00
C740   C     0.41925   0.13901   0.29484   0.00000  Uiso   1.00
C741   C     0.48415   0.24937   0.31071   0.00000  Uiso   1.00
C742   C     0.36868   0.90650   0.27187   0.00000  Uiso   1.00
C743   C     0.39259   0.89355   0.25585   0.00000  Uiso   1.00
C744   C     0.43967   0.86209   0.25624   0.00000  Uiso   1.00
C745   C     0.51634   0.81214   0.24977   0.00000  Uiso   1.00
C746   C     0.24971   0.88247   0.28531   0.00000  Uiso   1.00
C747   C     0.84026   0.18263   0.61393   0.00000  Uiso   1.00
C748   C     0.78716   0.13092   0.62563   0.00000  Uiso   1.00
C749   C     0.01246   0.71033   0.30669   0.00000  Uiso   1.00
C750   C     0.35816   0.90754   0.30364   0.00000  Uiso   1.00
C751   C     0.38337   0.99187   0.30209   0.00000  Uiso   1.00
C752   C     0.42401   0.04722   0.31460   0.00000  Uiso   1.00
C753   C     0.44159   0.12114   0.31071   0.00000  Uiso   1.00
C754   C     0.39098   0.88865   0.28770   0.00000  Uiso   1.00
C755   C     0.43802   0.85720   0.28811   0.00000  Uiso   1.00
C756   C     0.46201   0.84421   0.27211   0.00000  Uiso   1.00
C757   C     0.27201   0.86462   0.30115   0.00000  Uiso   1.00
C758   C     0.21902   0.81295   0.31286   0.00000  Uiso   1.00
C759   C     0.14284   0.77971   0.30816   0.00000  Uiso   1.00
H760   H     0.29974   0.95429   0.26215   0.00000  Uiso   1.00
H761   H     0.36132   0.09736   0.27008   0.00000  Uiso   1.00
H762   H     0.37532   0.90736   0.24360   0.00000  Uiso   1.00
H763   H     0.82302   0.19645   0.60167   0.00000  Uiso   1.00
H764   H     0.43946   0.24811   0.28586   0.00000  Uiso   1.00
H765   H     0.46895   0.84746   0.23002   0.00000  Uiso   1.00
H766   H     0.00722   0.75417   0.28218   0.00000  Uiso   1.00
H767   H     0.37553   0.89365   0.31597   0.00000  Uiso   1.00
H768   H     0.44127   0.03339   0.32686   0.00000  Uiso   1.00
H769   H     0.45527   0.84339   0.30037   0.00000  Uiso   1.00
H770   H     0.56964   0.46582   0.99178   0.00000  Uiso   1.00
H771   H     0.50435   0.19619   0.33194   0.00000  Uiso   1.00
H772   H     0.53384   0.79554   0.27609   0.00000  Uiso   1.00
H773   H     0.07211   0.70225   0.32826   0.00000  Uiso   1.00
O774   O     0.51380   0.31517   0.31508   0.00000  Uiso   1.00
O775   O     0.21915   0.12286   0.57515   0.00000  Uiso   1.00
O776   O     0.94670   0.66714   0.31026   0.00000  Uiso   1.00
N777   N     0.44569   0.21671   0.29521   0.00000  Uiso   1.00
N778   N     0.47328   0.84214   0.24300   0.00000  Uiso   1.00
N779   N     0.04160   0.75490   0.29177   0.00000  Uiso   1.00
N780   N     0.48061   0.18877   0.32000   0.00000  Uiso   1.00
N781   N     0.50820   0.81420   0.26779   0.00000  Uiso   1.00
N782   N     0.07651   0.72697   0.31656   0.00000  Uiso   1.00
C783   C     0.98377   0.27373   0.60782   0.00000  Uiso   1.00
C784   C     0.02773   0.34305   0.61959   0.00000  Uiso   1.00
C785   C     0.04525   0.41690   0.61568   0.00000  Uiso   1.00
C786   C     0.08592   0.47235   0.62817   0.00000  Uiso   1.00
C787   C     0.15082   0.58270   0.64404   0.00000  Uiso   1.00
C788   C     0.03535   0.23983   0.60520   0.00000  Uiso   1.00
C789   C     0.05926   0.22688   0.58919   0.00000  Uiso   1.00
C790   C     0.10633   0.19542   0.58957   0.00000  Uiso   1.00
C791   C     0.18301   0.14547   0.58310   0.00000  Uiso   1.00
C792   C     0.91638   0.21580   0.61864   0.00000  Uiso   1.00
C793   C     0.50693   0.51596   0.94726   0.00000  Uiso   1.00
C794   C     0.45383   0.46426   0.95896   0.00000  Uiso   1.00
C795   C     0.67912   0.04366   0.64003   0.00000  Uiso   1.00
C796   C     0.02483   0.24088   0.63697   0.00000  Uiso   1.00
C797   C     0.05003   0.32521   0.63543   0.00000  Uiso   1.00
C798   C     0.09068   0.38055   0.64793   0.00000  Uiso   1.00
C799   C     0.10826   0.45447   0.64404   0.00000  Uiso   1.00
C800   C     0.05765   0.22198   0.62104   0.00000  Uiso   1.00
C801   C     0.10469   0.19053   0.62145   0.00000  Uiso   1.00
C802   C     0.12868   0.17754   0.60544   0.00000  Uiso   1.00
C803   C     0.93868   0.19795   0.63448   0.00000  Uiso   1.00
C804   C     0.88569   0.14628   0.64619   0.00000  Uiso   1.00
C805   C     0.80951   0.11304   0.64150   0.00000  Uiso   1.00
H806   H     0.96641   0.28762   0.59549   0.00000  Uiso   1.00
H807   H     0.02799   0.43069   0.60342   0.00000  Uiso   1.00
H808   H     0.04199   0.24069   0.57693   0.00000  Uiso   1.00
H809   H     0.48969   0.52978   0.93501   0.00000  Uiso   1.00
H810   H     0.10612   0.58144   0.61919   0.00000  Uiso   1.00
H811   H     0.13562   0.18079   0.56335   0.00000  Uiso   1.00
H812   H     0.67388   0.08750   0.61552   0.00000  Uiso   1.00
H813   H     0.04219   0.22698   0.64930   0.00000  Uiso   1.00
H814   H     0.10793   0.36672   0.66019   0.00000  Uiso   1.00
H815   H     0.12193   0.17672   0.63370   0.00000  Uiso   1.00
H816   H     0.23630   0.79915   0.32511   0.00000  Uiso   1.00
H817   H     0.17101   0.52952   0.66527   0.00000  Uiso   1.00
H818   H     0.20051   0.12887   0.60943   0.00000  Uiso   1.00
H819   H     0.73877   0.03559   0.66159   0.00000  Uiso   1.00
O820   O     0.18047   0.64851   0.64842   0.00000  Uiso   1.00
O821   O     0.88582   0.45619   0.90849   0.00000  Uiso   1.00
O822   O     0.61337   0.00047   0.64359   0.00000  Uiso   1.00
N823   N     0.11236   0.55004   0.62854   0.00000  Uiso   1.00
N824   N     0.13995   0.17547   0.57633   0.00000  Uiso   1.00
N825   N     0.70826   0.08824   0.62510   0.00000  Uiso   1.00
N826   N     0.14727   0.52211   0.65334   0.00000  Uiso   1.00
N827   N     0.17486   0.14754   0.60113   0.00000  Uiso   1.00
N828   N     0.74318   0.06030   0.64990   0.00000  Uiso   1.00
C829   C     0.65044   0.04337   0.44115   0.00000  Uiso   1.00
C830   C     0.69440   0.01801   0.45292   0.00000  Uiso   1.00
C831   C     0.71192   0.96168   0.44901   0.00000  Uiso   1.00
C832   C     0.75259   0.94691   0.46151   0.00000  Uiso   1.00
C833   C     0.81749   0.90145   0.47737   0.00000  Uiso   1.00
C834   C     0.70201   0.12885   0.43853   0.00000  Uiso   1.00
C835   C     0.72593   0.16571   0.42252   0.00000  Uiso   1.00
C836   C     0.77300   0.24424   0.42291   0.00000  Uiso   1.00
C837   C     0.84968   0.37087   0.41643   0.00000  Uiso   1.00
C838   C     0.58304   0.03391   0.45197   0.00000  Uiso   1.00
C839   C     0.17359   0.32430   0.78060   0.00000  Uiso   1.00
C840   C     0.12050   0.32291   0.79230   0.00000  Uiso   1.00
C841   C     0.34579   0.96879   0.47336   0.00000  Uiso   1.00
C842   C     0.69150   0.11729   0.47031   0.00000  Uiso   1.00
C843   C     0.71670   0.05816   0.46876   0.00000  Uiso   1.00
C844   C     0.75735   0.04346   0.48127   0.00000  Uiso   1.00
C845   C     0.77493   0.98712   0.47737   0.00000  Uiso   1.00
C846   C     0.72432   0.16900   0.45437   0.00000  Uiso   1.00
C847   C     0.77136   0.24749   0.45478   0.00000  Uiso   1.00
C848   C     0.79534   0.28447   0.43877   0.00000  Uiso   1.00
C849   C     0.60534   0.07406   0.46781   0.00000  Uiso   1.00
C850   C     0.55236   0.07274   0.47952   0.00000  Uiso   1.00
C851   C     0.47617   0.02980   0.47483   0.00000  Uiso   1.00
H852   H     0.63307   0.01212   0.42882   0.00000  Uiso   1.00
H853   H     0.69466   0.93063   0.43675   0.00000  Uiso   1.00
H854   H     0.70865   0.13463   0.41027   0.00000  Uiso   1.00
H855   H     0.15636   0.29324   0.76834   0.00000  Uiso   1.00
H856   H     0.77279   0.85802   0.45253   0.00000  Uiso   1.00
H857   H     0.80229   0.28816   0.39668   0.00000  Uiso   1.00
H858   H     0.34055   0.91972   0.44885   0.00000  Uiso   1.00
H859   H     0.70886   0.14855   0.48264   0.00000  Uiso   1.00
H860   H     0.77460   0.07454   0.49352   0.00000  Uiso   1.00
H861   H     0.78860   0.27854   0.46704   0.00000  Uiso   1.00
H862   H     0.90297   0.77048   0.15844   0.00000  Uiso   1.00
H863   H     0.83768   0.97482   0.49860   0.00000  Uiso   1.00
H864   H     0.86717   0.40497   0.44276   0.00000  Uiso   1.00
H865   H     0.40544   0.03652   0.49493   0.00000  Uiso   1.00
O866   O     0.84713   0.86529   0.48175   0.00000  Uiso   1.00
O867   O     0.55249   0.76296   0.74182   0.00000  Uiso   1.00
O868   O     0.28004   0.94623   0.47693   0.00000  Uiso   1.00
N869   N     0.77903   0.89565   0.46188   0.00000  Uiso   1.00
N870   N     0.80661   0.29781   0.40967   0.00000  Uiso   1.00
N871   N     0.37493   0.95336   0.45844   0.00000  Uiso   1.00
N872   N     0.81394   0.95850   0.48667   0.00000  Uiso   1.00
N873   N     0.84153   0.36066   0.43446   0.00000  Uiso   1.00
N874   N     0.40985   0.01621   0.48323   0.00000  Uiso   1.00
C875   C     0.31710   0.37670   0.77448   0.00000  Uiso   1.00
C876   C     0.36106   0.35134   0.78626   0.00000  Uiso   1.00
C877   C     0.37859   0.29502   0.78234   0.00000  Uiso   1.00
C878   C     0.41925   0.28024   0.79484   0.00000  Uiso   1.00
C879   C     0.48415   0.23478   0.81071   0.00000  Uiso   1.00
C880   C     0.36868   0.46218   0.77187   0.00000  Uiso   1.00
C881   C     0.39259   0.49905   0.75585   0.00000  Uiso   1.00
C882   C     0.43967   0.57758   0.75624   0.00000  Uiso   1.00
C883   C     0.51634   0.70421   0.74977   0.00000  Uiso   1.00
C884   C     0.24971   0.36724   0.78531   0.00000  Uiso   1.00
C885   C     0.84026   0.65763   0.11393   0.00000  Uiso   1.00
C886   C     0.78716   0.65624   0.12563   0.00000  Uiso   1.00
C887   C     0.01246   0.30213   0.80669   0.00000  Uiso   1.00
C888   C     0.35816   0.45062   0.80364   0.00000  Uiso   1.00
C889   C     0.38337   0.39150   0.80209   0.00000  Uiso   1.00
C890   C     0.42401   0.37680   0.81460   0.00000  Uiso   1.00
C891   C     0.44159   0.32046   0.81071   0.00000  Uiso   1.00
C892   C     0.39098   0.50233   0.78770   0.00000  Uiso   1.00
C893   C     0.43802   0.58083   0.78811   0.00000  Uiso   1.00
C894   C     0.46201   0.61780   0.77211   0.00000  Uiso   1.00
C895   C     0.27201   0.40739   0.80115   0.00000  Uiso   1.00
C896   C     0.21902   0.40607   0.81286   0.00000  Uiso   1.00
C897   C     0.14284   0.36313   0.80816   0.00000  Uiso   1.00
H898   H     0.29974   0.34545   0.76215   0.00000  Uiso   1.00
H899   H     0.36132   0.26397   0.77008   0.00000  Uiso   1.00
H900   H     0.37532   0.46796   0.74360   0.00000  Uiso   1.00
H901   H     0.82302   0.62657   0.10167   0.00000  Uiso   1.00
H902   H     0.43946   0.19135   0.78586   0.00000  Uiso   1.00
H903   H     0.46895   0.62149   0.73002   0.00000  Uiso   1.00
H904   H     0.00722   0.25305   0.78218   0.00000  Uiso   1.00
H905   H     0.37553   0.48188   0.81597   0.00000  Uiso   1.00
H906   H     0.44127   0.40788   0.82686   0.00000  Uiso   1.00
H907   H     0.45527   0.61188   0.80037   0.00000  Uiso   1.00
H908   H     0.56964   0.10382   0.49178   0.00000  Uiso   1.00
H909   H     0.50435   0.30815   0.83194   0.00000  Uiso   1.00
H910   H     0.53384   0.73830   0.77609   0.00000  Uiso   1.00
H911   H     0.07211   0.36985   0.82826   0.00000  Uiso   1.00
O912   O     0.51380   0.19863   0.81508   0.00000  Uiso   1.00
O913   O     0.21915   0.09629   0.07515   0.00000  Uiso   1.00
O914   O     0.94670   0.27957   0.81026   0.00000  Uiso   1.00
N915   N     0.44569   0.22898   0.79521   0.00000  Uiso   1.00
N916   N     0.47328   0.63114   0.74300   0.00000  Uiso   1.00
N917   N     0.04160   0.28669   0.79177   0.00000  Uiso   1.00
N918   N     0.48061   0.29183   0.82000   0.00000  Uiso   1.00
N919   N     0.50820   0.69399   0.76779   0.00000  Uiso   1.00
N920   N     0.07651   0.34955   0.81656   0.00000  Uiso   1.00
C921   C     0.98377   0.71004   0.10782   0.00000  Uiso   1.00
C922   C     0.02773   0.68468   0.11959   0.00000  Uiso   1.00
C923   C     0.04525   0.62835   0.11568   0.00000  Uiso   1.00
C924   C     0.08592   0.61357   0.12817   0.00000  Uiso   1.00
C925   C     0.15082   0.56812   0.14404   0.00000  Uiso   1.00
C926   C     0.03535   0.79552   0.10520   0.00000  Uiso   1.00
C927   C     0.05926   0.83238   0.08919   0.00000  Uiso   1.00
C928   C     0.10633   0.91091   0.08957   0.00000  Uiso   1.00
C929   C     0.18301   0.03754   0.08310   0.00000  Uiso   1.00
C930   C     0.91638   0.70058   0.11864   0.00000  Uiso   1.00
C931   C     0.50693   0.99096   0.44726   0.00000  Uiso   1.00
C932   C     0.45383   0.98958   0.45896   0.00000  Uiso   1.00
C933   C     0.67912   0.63546   0.14003   0.00000  Uiso   1.00
C934   C     0.02483   0.78395   0.13697   0.00000  Uiso   1.00
C935   C     0.05003   0.72483   0.13543   0.00000  Uiso   1.00
C936   C     0.09068   0.71013   0.14793   0.00000  Uiso   1.00
C937   C     0.10826   0.65379   0.14404   0.00000  Uiso   1.00
C938   C     0.05765   0.83567   0.12104   0.00000  Uiso   1.00
C939   C     0.10469   0.91416   0.12145   0.00000  Uiso   1.00
C940   C     0.12868   0.95113   0.10544   0.00000  Uiso   1.00
C941   C     0.93868   0.74072   0.13448   0.00000  Uiso   1.00
C942   C     0.88569   0.73941   0.14619   0.00000  Uiso   1.00
C943   C     0.80951   0.69646   0.14150   0.00000  Uiso   1.00
H944   H     0.96641   0.67878   0.09549   0.00000  Uiso   1.00
H945   H     0.02799   0.59730   0.10342   0.00000  Uiso   1.00
H946   H     0.04199   0.80130   0.07693   0.00000  Uiso   1.00
H947   H     0.48969   0.95990   0.43501   0.00000  Uiso   1.00
H948   H     0.10612   0.52468   0.11919   0.00000  Uiso   1.00
H949   H     0.13562   0.95483   0.06335   0.00000  Uiso   1.00
H950   H     0.67388   0.58638   0.11552   0.00000  Uiso   1.00
H951   H     0.04219   0.81521   0.14930   0.00000  Uiso   1.00
H952   H     0.10793   0.74121   0.16019   0.00000  Uiso   1.00
H953   H     0.12193   0.94521   0.13370   0.00000  Uiso   1.00
H954   H     0.23630   0.43715   0.82511   0.00000  Uiso   1.00
H955   H     0.17101   0.64149   0.16527   0.00000  Uiso   1.00
H956   H     0.20051   0.07163   0.10943   0.00000  Uiso   1.00
H957   H     0.73877   0.70319   0.16159   0.00000  Uiso   1.00
O958   O     0.18047   0.53196   0.14842   0.00000  Uiso   1.00
O959   O     0.88582   0.42963   0.40849   0.00000  Uiso   1.00
O960   O     0.61337   0.61290   0.14359   0.00000  Uiso   1.00
N961   N     0.11236   0.56232   0.12854   0.00000  Uiso   1.00
N962   N     0.13995   0.96448   0.07633   0.00000  Uiso   1.00
N963   N     0.70826   0.62003   0.12510   0.00000  Uiso   1.00
N964   N     0.14727   0.62517   0.15334   0.00000  Uiso   1.00
N965   N     0.17486   0.02733   0.10113   0.00000  Uiso   1.00
N966   N     0.74318   0.68288   0.14990   0.00000  Uiso   1.00
C967   C     0.95663   0.60707   0.44115   0.00000  Uiso   1.00
C968   C     0.98199   0.67639   0.45292   0.00000  Uiso   1.00
C969   C     0.03832   0.75023   0.44901   0.00000  Uiso   1.00
C970   C     0.05309   0.80568   0.46151   0.00000  Uiso   1.00
C971   C     0.09855   0.91604   0.47737   0.00000  Uiso   1.00
C972   C     0.87115   0.57316   0.43853   0.00000  Uiso   1.00
C973   C     0.83429   0.56021   0.42252   0.00000  Uiso   1.00
C974   C     0.75576   0.52875   0.42291   0.00000  Uiso   1.00
C975   C     0.62913   0.47880   0.41643   0.00000  Uiso   1.00
C976   C     0.96609   0.54913   0.45197   0.00000  Uiso   1.00
C977   C     0.67570   0.84929   0.78060   0.00000  Uiso   1.00
C978   C     0.67709   0.79759   0.79230   0.00000  Uiso   1.00
C979   C     0.03121   0.37700   0.47336   0.00000  Uiso   1.00
C980   C     0.88271   0.57421   0.47031   0.00000  Uiso   1.00
C981   C     0.94184   0.65854   0.46876   0.00000  Uiso   1.00
C982   C     0.95654   0.71388   0.48127   0.00000  Uiso   1.00
C983   C     0.01288   0.78780   0.47737   0.00000  Uiso   1.00
C984   C     0.83100   0.55532   0.45437   0.00000  Uiso   1.00
C985   C     0.75251   0.52386   0.45478   0.00000  Uiso   1.00
C986   C     0.71553   0.51088   0.43877   0.00000  Uiso   1.00
C987   C     0.92594   0.53129   0.46781   0.00000  Uiso   1.00
C988   C     0.92726   0.47962   0.47952   0.00000  Uiso   1.00
C989   C     0.97020   0.44638   0.47483   0.00000  Uiso   1.00
H990   H     0.98788   0.62096   0.42882   0.00000  Uiso   1.00
H991   H     0.06937   0.76402   0.43675   0.00000  Uiso   1.00
H992   H     0.86537   0.57402   0.41027   0.00000  Uiso   1.00
H993   H     0.70676   0.86312   0.76834   0.00000  Uiso   1.00
H994   H     0.14198   0.91477   0.45253   0.00000  Uiso   1.00
H995   H     0.71184   0.51413   0.39668   0.00000  Uiso   1.00
H996   H     0.08028   0.42083   0.44885   0.00000  Uiso   1.00
H997   H     0.85145   0.56032   0.48264   0.00000  Uiso   1.00
H998   H     0.92546   0.70006   0.49352   0.00000  Uiso   1.00
H999   H     0.72146   0.51006   0.46704   0.00000  Uiso   1.00
H1000  H     0.22952   0.13249   0.15844   0.00000  Uiso   1.00
H1001  H     0.02518   0.86286   0.49860   0.00000  Uiso   1.00
H1002  H     0.59503   0.46221   0.44276   0.00000  Uiso   1.00
H1003  H     0.96348   0.36892   0.49493   0.00000  Uiso   1.00
O1004  O     0.13471   0.98184   0.48175   0.00000  Uiso   1.00
O1005  O     0.23704   0.78953   0.74182   0.00000  Uiso   1.00
O1006  O     0.05377   0.33380   0.47693   0.00000  Uiso   1.00
N1007  N     0.10435   0.88337   0.46188   0.00000  Uiso   1.00
N1008  N     0.70219   0.50880   0.40967   0.00000  Uiso   1.00
N1009  N     0.04664   0.42157   0.45844   0.00000  Uiso   1.00
N1010  N     0.04150   0.85544   0.48667   0.00000  Uiso   1.00
N1011  N     0.63934   0.48087   0.43446   0.00000  Uiso   1.00
N1012  N     0.98379   0.39364   0.48323   0.00000  Uiso   1.00
C1013  C     0.62330   0.94040   0.77448   0.00000  Uiso   1.00
C1014  C     0.64866   0.00972   0.78626   0.00000  Uiso   1.00
C1015  C     0.70498   0.08357   0.78234   0.00000  Uiso   1.00
C1016  C     0.71976   0.13901   0.79484   0.00000  Uiso   1.00
C1017  C     0.76522   0.24937   0.81071   0.00000  Uiso   1.00
C1018  C     0.53782   0.90650   0.77187   0.00000  Uiso   1.00
C1019  C     0.50095   0.89355   0.75585   0.00000  Uiso   1.00
C1020  C     0.42242   0.86209   0.75624   0.00000  Uiso   1.00
C1021  C     0.29579   0.81214   0.74977   0.00000  Uiso   1.00
C1022  C     0.63276   0.88247   0.78531   0.00000  Uiso   1.00
C1023  C     0.34237   0.18263   0.11393   0.00000  Uiso   1.00
C1024  C     0.34376   0.13092   0.12563   0.00000  Uiso   1.00
C1025  C     0.69787   0.71033   0.80669   0.00000  Uiso   1.00
C1026  C     0.54938   0.90754   0.80364   0.00000  Uiso   1.00
C1027  C     0.60850   0.99187   0.80209   0.00000  Uiso   1.00
C1028  C     0.62320   0.04722   0.81460   0.00000  Uiso   1.00
C1029  C     0.67954   0.12114   0.81071   0.00000  Uiso   1.00
C1030  C     0.49767   0.88865   0.78770   0.00000  Uiso   1.00
C1031  C     0.41917   0.85720   0.78811   0.00000  Uiso   1.00
C1032  C     0.38220   0.84421   0.77211   0.00000  Uiso   1.00
C1033  C     0.59261   0.86462   0.80115   0.00000  Uiso   1.00
C1034  C     0.59393   0.81295   0.81286   0.00000  Uiso   1.00
C1035  C     0.63687   0.77971   0.80816   0.00000  Uiso   1.00
H1036  H     0.65455   0.95429   0.76215   0.00000  Uiso   1.00
H1037  H     0.73603   0.09736   0.77008   0.00000  Uiso   1.00
H1038  H     0.53204   0.90736   0.74360   0.00000  Uiso   1.00
H1039  H     0.37343   0.19645   0.10167   0.00000  Uiso   1.00
H1040  H     0.80865   0.24811   0.78586   0.00000  Uiso   1.00
H1041  H     0.37851   0.84746   0.73002   0.00000  Uiso   1.00
H1042  H     0.74695   0.75417   0.78218   0.00000  Uiso   1.00
H1043  H     0.51812   0.89365   0.81597   0.00000  Uiso   1.00
H1044  H     0.59212   0.03339   0.82686   0.00000  Uiso   1.00
H1045  H     0.38812   0.84339   0.80037   0.00000  Uiso   1.00
H1046  H     0.89618   0.46582   0.49178   0.00000  Uiso   1.00
H1047  H     0.69185   0.19619   0.83194   0.00000  Uiso   1.00
H1048  H     0.26170   0.79554   0.77609   0.00000  Uiso   1.00
H1049  H     0.63015   0.70225   0.82826   0.00000  Uiso   1.00
O1050  O     0.80137   0.31517   0.81508   0.00000  Uiso   1.00
O1051  O     0.90371   0.12286   0.07515   0.00000  Uiso   1.00
O1052  O     0.72043   0.66714   0.81026   0.00000  Uiso   1.00
N1053  N     0.77102   0.21671   0.79521   0.00000  Uiso   1.00
N1054  N     0.36886   0.84214   0.74300   0.00000  Uiso   1.00
N1055  N     0.71331   0.75490   0.79177   0.00000  Uiso   1.00
N1056  N     0.70817   0.18877   0.82000   0.00000  Uiso   1.00
N1057  N     0.30601   0.81420   0.76779   0.00000  Uiso   1.00
N1058  N     0.65045   0.72697   0.81656   0.00000  Uiso   1.00
C1059  C     0.28996   0.27373   0.10782   0.00000  Uiso   1.00
C1060  C     0.31532   0.34305   0.11959   0.00000  Uiso   1.00
C1061  C     0.37165   0.41690   0.11568   0.00000  Uiso   1.00
C1062  C     0.38643   0.47235   0.12817   0.00000  Uiso   1.00
C1063  C     0.43188   0.58270   0.14404   0.00000  Uiso   1.00
C1064  C     0.20448   0.23983   0.10520   0.00000  Uiso   1.00
C1065  C     0.16762   0.22688   0.08919   0.00000  Uiso   1.00
C1066  C     0.08909   0.19542   0.08957   0.00000  Uiso   1.00
C1067  C     0.96246   0.14547   0.08310   0.00000  Uiso   1.00
C1068  C     0.29942   0.21580   0.11864   0.00000  Uiso   1.00
C1069  C     0.00904   0.51596   0.44726   0.00000  Uiso   1.00
C1070  C     0.01042   0.46426   0.45896   0.00000  Uiso   1.00
C1071  C     0.36454   0.04366   0.14003   0.00000  Uiso   1.00
C1072  C     0.21605   0.24088   0.13697   0.00000  Uiso   1.00
C1073  C     0.27517   0.32521   0.13543   0.00000  Uiso   1.00
C1074  C     0.28987   0.38055   0.14793   0.00000  Uiso   1.00
C1075  C     0.34621   0.45447   0.14404   0.00000  Uiso   1.00
C1076  C     0.16433   0.22198   0.12104   0.00000  Uiso   1.00
C1077  C     0.08584   0.19053   0.12145   0.00000  Uiso   1.00
C1078  C     0.04887   0.17754   0.10544   0.00000  Uiso   1.00
C1079  C     0.25928   0.19795   0.13448   0.00000  Uiso   1.00
C1080  C     0.26059   0.14628   0.14619   0.00000  Uiso   1.00
C1081  C     0.30354   0.11304   0.14150   0.00000  Uiso   1.00
H1082  H     0.32122   0.28762   0.09549   0.00000  Uiso   1.00
H1083  H     0.40270   0.43069   0.10342   0.00000  Uiso   1.00
H1084  H     0.19870   0.24069   0.07693   0.00000  Uiso   1.00
H1085  H     0.04010   0.52978   0.43501   0.00000  Uiso   1.00
H1086  H     0.47532   0.58144   0.11919   0.00000  Uiso   1.00
H1087  H     0.04517   0.18079   0.06335   0.00000  Uiso   1.00
H1088  H     0.41362   0.08750   0.11552   0.00000  Uiso   1.00
H1089  H     0.18479   0.22698   0.14930   0.00000  Uiso   1.00
H1090  H     0.25879   0.36672   0.16019   0.00000  Uiso   1.00
H1091  H     0.05479   0.17672   0.13370   0.00000  Uiso   1.00
H1092  H     0.56285   0.79915   0.82511   0.00000  Uiso   1.00
H1093  H     0.35851   0.52952   0.16527   0.00000  Uiso   1.00
H1094  H     0.92837   0.12887   0.10943   0.00000  Uiso   1.00
H1095  H     0.29681   0.03559   0.16159   0.00000  Uiso   1.00
O1096  O     0.46804   0.64851   0.14842   0.00000  Uiso   1.00
O1097  O     0.57037   0.45619   0.40849   0.00000  Uiso   1.00
O1098  O     0.38710   0.00047   0.14359   0.00000  Uiso   1.00
N1099  N     0.43768   0.55004   0.12854   0.00000  Uiso   1.00
N1100  N     0.03552   0.17547   0.07633   0.00000  Uiso   1.00
N1101  N     0.37997   0.08824   0.12510   0.00000  Uiso   1.00
N1102  N     0.37483   0.52211   0.15334   0.00000  Uiso   1.00
N1103  N     0.97267   0.14754   0.10113   0.00000  Uiso   1.00
N1104  N     0.31712   0.06030   0.14990   0.00000  Uiso   1.00
C1105  C     0.39293   0.34956   0.44115   0.00000  Uiso   1.00
C1106  C     0.32361   0.30560   0.45292   0.00000  Uiso   1.00
C1107  C     0.24977   0.28808   0.44901   0.00000  Uiso   1.00
C1108  C     0.19432   0.24741   0.46151   0.00000  Uiso   1.00
C1109  C     0.08396   0.18251   0.47737   0.00000  Uiso   1.00
C1110  C     0.42684   0.29799   0.43853   0.00000  Uiso   1.00
C1111  C     0.43979   0.27407   0.42252   0.00000  Uiso   1.00
C1112  C     0.47125   0.22700   0.42291   0.00000  Uiso   1.00
C1113  C     0.52120   0.15032   0.41643   0.00000  Uiso   1.00
C1114  C     0.45087   0.41696   0.45197   0.00000  Uiso   1.00
C1115  C     0.15071   0.82641   0.78060   0.00000  Uiso   1.00
C1116  C     0.20241   0.87950   0.79230   0.00000  Uiso   1.00
C1117  C     0.62300   0.65421   0.47336   0.00000  Uiso   1.00
C1118  C     0.42579   0.30850   0.47031   0.00000  Uiso   1.00
C1119  C     0.34146   0.28330   0.46876   0.00000  Uiso   1.00
C1120  C     0.28612   0.24265   0.48127   0.00000  Uiso   1.00
C1121  C     0.21220   0.22507   0.47737   0.00000  Uiso   1.00
C1122  C     0.44468   0.27568   0.45437   0.00000  Uiso   1.00
C1123  C     0.47614   0.22864   0.45478   0.00000  Uiso   1.00
C1124  C     0.48912   0.20466   0.43877   0.00000  Uiso   1.00
C1125  C     0.46871   0.39466   0.46781   0.00000  Uiso   1.00
C1126  C     0.52038   0.44764   0.47952   0.00000  Uiso   1.00
C1127  C     0.55362   0.52383   0.47483   0.00000  Uiso   1.00
H1128  H     0.37904   0.36693   0.42882   0.00000  Uiso   1.00
H1129  H     0.23598   0.30534   0.43675   0.00000  Uiso   1.00
H1130  H     0.42598   0.29135   0.41027   0.00000  Uiso   1.00
H1131  H     0.13688   0.84364   0.76834   0.00000  Uiso   1.00
H1132  H     0.08523   0.22721   0.45253   0.00000  Uiso   1.00
H1133  H     0.48587   0.19771   0.39668   0.00000  Uiso   1.00
H1134  H     0.57917   0.65945   0.44885   0.00000  Uiso   1.00
H1135  H     0.43968   0.29114   0.48264   0.00000  Uiso   1.00
H1136  H     0.29994   0.22540   0.49352   0.00000  Uiso   1.00
H1137  H     0.48994   0.21140   0.46704   0.00000  Uiso   1.00
H1138  H     0.86751   0.09703   0.15844   0.00000  Uiso   1.00
H1139  H     0.13714   0.16232   0.49860   0.00000  Uiso   1.00
H1140  H     0.53779   0.13283   0.44276   0.00000  Uiso   1.00
H1141  H     0.63108   0.59456   0.49493   0.00000  Uiso   1.00
O1142  O     0.01816   0.15287   0.48175   0.00000  Uiso   1.00
O1143  O     0.21047   0.44751   0.74182   0.00000  Uiso   1.00
O1144  O     0.66620   0.71996   0.47693   0.00000  Uiso   1.00
N1145  N     0.11663   0.22097   0.46188   0.00000  Uiso   1.00
N1146  N     0.49120   0.19339   0.40967   0.00000  Uiso   1.00
N1147  N     0.57843   0.62507   0.45844   0.00000  Uiso   1.00
N1148  N     0.14456   0.18606   0.48667   0.00000  Uiso   1.00
N1149  N     0.51913   0.15847   0.43446   0.00000  Uiso   1.00
N1150  N     0.60636   0.59015   0.48323   0.00000  Uiso   1.00
C1151  C     0.05960   0.68290   0.77448   0.00000  Uiso   1.00
C1152  C     0.99028   0.63894   0.78626   0.00000  Uiso   1.00
C1153  C     0.91643   0.62141   0.78234   0.00000  Uiso   1.00
C1154  C     0.86099   0.58075   0.79484   0.00000  Uiso   1.00
C1155  C     0.75063   0.51585   0.81071   0.00000  Uiso   1.00
C1156  C     0.09350   0.63132   0.77187   0.00000  Uiso   1.00
C1157  C     0.10645   0.60741   0.75585   0.00000  Uiso   1.00
C1158  C     0.13791   0.56033   0.75624   0.00000  Uiso   1.00
C1159  C     0.18786   0.48366   0.74977   0.00000  Uiso   1.00
C1160  C     0.11753   0.75029   0.78531   0.00000  Uiso   1.00
C1161  C     0.81737   0.15974   0.11393   0.00000  Uiso   1.00
C1162  C     0.86908   0.21284   0.12563   0.00000  Uiso   1.00
C1163  C     0.28967   0.98754   0.80669   0.00000  Uiso   1.00
C1164  C     0.09246   0.64184   0.80364   0.00000  Uiso   1.00
C1165  C     0.00813   0.61663   0.80209   0.00000  Uiso   1.00
C1166  C     0.95278   0.57599   0.81460   0.00000  Uiso   1.00
C1167  C     0.87886   0.55841   0.81071   0.00000  Uiso   1.00
C1168  C     0.11135   0.60902   0.78770   0.00000  Uiso   1.00
C1169  C     0.14280   0.56198   0.78811   0.00000  Uiso   1.00
C1170  C     0.15579   0.53799   0.77211   0.00000  Uiso   1.00
C1171  C     0.13538   0.72799   0.80115   0.00000  Uiso   1.00
C1172  C     0.18705   0.78098   0.81286   0.00000  Uiso   1.00
C1173  C     0.22029   0.85716   0.80816   0.00000  Uiso   1.00
H1174  H     0.04571   0.70026   0.76215   0.00000  Uiso   1.00
H1175  H     0.90264   0.63868   0.77008   0.00000  Uiso   1.00
H1176  H     0.09264   0.62468   0.74360   0.00000  Uiso   1.00
H1177  H     0.80355   0.17698   0.10167   0.00000  Uiso   1.00
H1178  H     0.75189   0.56054   0.78586   0.00000  Uiso   1.00
H1179  H     0.15254   0.53105   0.73002   0.00000  Uiso   1.00
H1180  H     0.24583   0.99278   0.78218   0.00000  Uiso   1.00
H1181  H     0.10635   0.62447   0.81597   0.00000  Uiso   1.00
H1182  H     0.96661   0.55873   0.82686   0.00000  Uiso   1.00
H1183  H     0.15661   0.54473   0.80037   0.00000  Uiso   1.00
H1184  H     0.53418   0.43036   0.49178   0.00000  Uiso   1.00
H1185  H     0.80381   0.49565   0.83194   0.00000  Uiso   1.00
H1186  H     0.20446   0.46616   0.77609   0.00000  Uiso   1.00
H1187  H     0.29775   0.92789   0.82826   0.00000  Uiso   1.00
O1188  O     0.68483   0.48620   0.81508   0.00000  Uiso   1.00
O1189  O     0.87714   0.78085   0.07515   0.00000  Uiso   1.00
O1190  O     0.33286   0.05330   0.81026   0.00000  Uiso   1.00
N1191  N     0.78329   0.55431   0.79521   0.00000  Uiso   1.00
N1192  N     0.15786   0.52672   0.74300   0.00000  Uiso   1.00
N1193  N     0.24510   0.95840   0.79177   0.00000  Uiso   1.00
N1194  N     0.81123   0.51939   0.82000   0.00000  Uiso   1.00
N1195  N     0.18580   0.49180   0.76779   0.00000  Uiso   1.00
N1196  N     0.27303   0.92349   0.81656   0.00000  Uiso   1.00
C1197  C     0.72627   0.01623   0.10782   0.00000  Uiso   1.00
C1198  C     0.65695   0.97227   0.11959   0.00000  Uiso   1.00
C1199  C     0.58310   0.95475   0.11568   0.00000  Uiso   1.00
C1200  C     0.52765   0.91408   0.12817   0.00000  Uiso   1.00
C1201  C     0.41730   0.84918   0.14404   0.00000  Uiso   1.00
C1202  C     0.76017   0.96465   0.10520   0.00000  Uiso   1.00
C1203  C     0.77312   0.94074   0.08919   0.00000  Uiso   1.00
C1204  C     0.80458   0.89367   0.08957   0.00000  Uiso   1.00
C1205  C     0.85453   0.81699   0.08310   0.00000  Uiso   1.00
C1206  C     0.78420   0.08362   0.11864   0.00000  Uiso   1.00
C1207  C     0.48404   0.49307   0.44726   0.00000  Uiso   1.00
C1208  C     0.53574   0.54617   0.45896   0.00000  Uiso   1.00
C1209  C     0.95634   0.32088   0.14003   0.00000  Uiso   1.00
C1210  C     0.75912   0.97517   0.13697   0.00000  Uiso   1.00
C1211  C     0.67479   0.94997   0.13543   0.00000  Uiso   1.00
C1212  C     0.61945   0.90932   0.14793   0.00000  Uiso   1.00
C1213  C     0.54553   0.89174   0.14404   0.00000  Uiso   1.00
C1214  C     0.77802   0.94235   0.12104   0.00000  Uiso   1.00
C1215  C     0.80947   0.89531   0.12145   0.00000  Uiso   1.00
C1216  C     0.82246   0.87132   0.10544   0.00000  Uiso   1.00
C1217  C     0.80205   0.06132   0.13448   0.00000  Uiso   1.00
C1218  C     0.85372   0.11431   0.14619   0.00000  Uiso   1.00
C1219  C     0.88696   0.19049   0.14150   0.00000  Uiso   1.00
H1220  H     0.71238   0.03359   0.09549   0.00000  Uiso   1.00
H1221  H     0.56931   0.97201   0.10342   0.00000  Uiso   1.00
H1222  H     0.75931   0.95801   0.07693   0.00000  Uiso   1.00
H1223  H     0.47022   0.51031   0.43501   0.00000  Uiso   1.00
H1224  H     0.41856   0.89388   0.11919   0.00000  Uiso   1.00
H1225  H     0.81921   0.86438   0.06335   0.00000  Uiso   1.00
H1226  H     0.91250   0.32612   0.11552   0.00000  Uiso   1.00
H1227  H     0.77302   0.95781   0.14930   0.00000  Uiso   1.00
H1228  H     0.63328   0.89207   0.16019   0.00000  Uiso   1.00
H1229  H     0.82328   0.87807   0.13370   0.00000  Uiso   1.00
H1230  H     0.20085   0.76370   0.82511   0.00000  Uiso   1.00
H1231  H     0.47048   0.82899   0.16527   0.00000  Uiso   1.00
H1232  H     0.87113   0.79949   0.10943   0.00000  Uiso   1.00
H1233  H     0.96441   0.26123   0.16159   0.00000  Uiso   1.00
O1234  O     0.35149   0.81953   0.14842   0.00000  Uiso   1.00
O1235  O     0.54381   0.11418   0.40849   0.00000  Uiso   1.00
O1236  O     0.99953   0.38663   0.14359   0.00000  Uiso   1.00
N1237  N     0.44996   0.88764   0.12854   0.00000  Uiso   1.00
N1238  N     0.82453   0.86005   0.07633   0.00000  Uiso   1.00
N1239  N     0.91176   0.29174   0.12510   0.00000  Uiso   1.00
N1240  N     0.47789   0.85273   0.15334   0.00000  Uiso   1.00
N1241  N     0.85246   0.82514   0.10113   0.00000  Uiso   1.00
N1242  N     0.93970   0.25682   0.14990   0.00000  Uiso   1.00
C1243  C     0.04337   0.65044   0.05885   0.00000  Uiso   1.00
C1244  C     0.01801   0.69440   0.04708   0.00000  Uiso   1.00
C1245  C     0.96168   0.71192   0.05099   0.00000  Uiso   1.00
C1246  C     0.94691   0.75259   0.03849   0.00000  Uiso   1.00
C1247  C     0.90145   0.81749   0.02263   0.00000  Uiso   1.00
C1248  C     0.12885   0.70201   0.06147   0.00000  Uiso   1.00
C1249  C     0.16571   0.72593   0.07748   0.00000  Uiso   1.00
C1250  C     0.24424   0.77300   0.07709   0.00000  Uiso   1.00
C1251  C     0.37087   0.84968   0.08357   0.00000  Uiso   1.00
C1252  C     0.03391   0.58304   0.04803   0.00000  Uiso   1.00
C1253  C     0.32430   0.17359   0.71940   0.00000  Uiso   1.00
C1254  C     0.32291   0.12050   0.70770   0.00000  Uiso   1.00
C1255  C     0.96879   0.34579   0.02664   0.00000  Uiso   1.00
C1256  C     0.11729   0.69150   0.02969   0.00000  Uiso   1.00
C1257  C     0.05816   0.71670   0.03124   0.00000  Uiso   1.00
C1258  C     0.04346   0.75735   0.01873   0.00000  Uiso   1.00
C1259  C     0.98712   0.77493   0.02263   0.00000  Uiso   1.00
C1260  C     0.16900   0.72432   0.04563   0.00000  Uiso   1.00
C1261  C     0.24749   0.77136   0.04522   0.00000  Uiso   1.00
C1262  C     0.28447   0.79534   0.06123   0.00000  Uiso   1.00
C1263  C     0.07406   0.60534   0.03219   0.00000  Uiso   1.00
C1264  C     0.07274   0.55236   0.02048   0.00000  Uiso   1.00
C1265  C     0.02980   0.47617   0.02517   0.00000  Uiso   1.00
H1266  H     0.01212   0.63307   0.07118   0.00000  Uiso   1.00
H1267  H     0.93063   0.69466   0.06325   0.00000  Uiso   1.00
H1268  H     0.13463   0.70865   0.08973   0.00000  Uiso   1.00
H1269  H     0.29324   0.15636   0.73166   0.00000  Uiso   1.00
H1270  H     0.85802   0.77279   0.04747   0.00000  Uiso   1.00
H1271  H     0.28816   0.80229   0.10332   0.00000  Uiso   1.00
H1272  H     0.91972   0.34055   0.05115   0.00000  Uiso   1.00
H1273  H     0.14855   0.70886   0.01736   0.00000  Uiso   1.00
H1274  H     0.07454   0.77460   0.00648   0.00000  Uiso   1.00
H1275  H     0.27854   0.78860   0.03296   0.00000  Uiso   1.00
H1276  H     0.77048   0.90297   0.34156   0.00000  Uiso   1.00
H1277  H     0.97482   0.83768   0.00140   0.00000  Uiso   1.00
H1278  H     0.40497   0.86717   0.05724   0.00000  Uiso   1.00
H1279  H     0.03652   0.40544   0.00507   0.00000  Uiso   1.00
O1280  O     0.86529   0.84713   0.01825   0.00000  Uiso   1.00
O1281  O     0.76296   0.55249   0.75818   0.00000  Uiso   1.00
O1282  O     0.94623   0.28004   0.02307   0.00000  Uiso   1.00
N1283  N     0.89565   0.77903   0.03812   0.00000  Uiso   1.00
N1284  N     0.29781   0.80661   0.09033   0.00000  Uiso   1.00
N1285  N     0.95336   0.37493   0.04156   0.00000  Uiso   1.00
N1286  N     0.95850   0.81394   0.01333   0.00000  Uiso   1.00
N1287  N     0.36066   0.84153   0.06554   0.00000  Uiso   1.00
N1288  N     0.01621   0.40985   0.01677   0.00000  Uiso   1.00
C1289  C     0.71004   0.98377   0.39218   0.00000  Uiso   1.00
C1290  C     0.68468   0.02773   0.38041   0.00000  Uiso   1.00
C1291  C     0.62835   0.04525   0.38432   0.00000  Uiso   1.00
C1292  C     0.61357   0.08592   0.37183   0.00000  Uiso   1.00
C1293  C     0.56812   0.15082   0.35596   0.00000  Uiso   1.00
C1294  C     0.79552   0.03535   0.39480   0.00000  Uiso   1.00
C1295  C     0.83238   0.05926   0.41081   0.00000  Uiso   1.00
C1296  C     0.91091   0.10633   0.41043   0.00000  Uiso   1.00
C1297  C     0.03754   0.18301   0.41690   0.00000  Uiso   1.00
C1298  C     0.70058   0.91638   0.38136   0.00000  Uiso   1.00
C1299  C     0.99096   0.50693   0.05274   0.00000  Uiso   1.00
C1300  C     0.98958   0.45383   0.04104   0.00000  Uiso   1.00
C1301  C     0.63546   0.67912   0.35997   0.00000  Uiso   1.00
C1302  C     0.78395   0.02483   0.36303   0.00000  Uiso   1.00
C1303  C     0.72483   0.05003   0.36457   0.00000  Uiso   1.00
C1304  C     0.71013   0.09068   0.35207   0.00000  Uiso   1.00
C1305  C     0.65379   0.10826   0.35596   0.00000  Uiso   1.00
C1306  C     0.83567   0.05765   0.37896   0.00000  Uiso   1.00
C1307  C     0.91416   0.10469   0.37855   0.00000  Uiso   1.00
C1308  C     0.95113   0.12868   0.39456   0.00000  Uiso   1.00
C1309  C     0.74072   0.93868   0.36552   0.00000  Uiso   1.00
C1310  C     0.73941   0.88569   0.35381   0.00000  Uiso   1.00
C1311  C     0.69646   0.80951   0.35850   0.00000  Uiso   1.00
H1312  H     0.67878   0.96641   0.40451   0.00000  Uiso   1.00
H1313  H     0.59730   0.02799   0.39658   0.00000  Uiso   1.00
H1314  H     0.80130   0.04199   0.42307   0.00000  Uiso   1.00
H1315  H     0.95990   0.48969   0.06499   0.00000  Uiso   1.00
H1316  H     0.52468   0.10612   0.38081   0.00000  Uiso   1.00
H1317  H     0.95483   0.13562   0.43665   0.00000  Uiso   1.00
H1318  H     0.58638   0.67388   0.38448   0.00000  Uiso   1.00
H1319  H     0.81521   0.04219   0.35070   0.00000  Uiso   1.00
H1320  H     0.74121   0.10793   0.33981   0.00000  Uiso   1.00
H1321  H     0.94521   0.12193   0.36630   0.00000  Uiso   1.00
H1322  H     0.43715   0.23630   0.67489   0.00000  Uiso   1.00
H1323  H     0.64149   0.17101   0.33473   0.00000  Uiso   1.00
H1324  H     0.07163   0.20051   0.39057   0.00000  Uiso   1.00
H1325  H     0.70319   0.73877   0.33841   0.00000  Uiso   1.00
O1326  O     0.53196   0.18047   0.35158   0.00000  Uiso   1.00
O1327  O     0.42963   0.88582   0.09151   0.00000  Uiso   1.00
O1328  O     0.61290   0.61337   0.35641   0.00000  Uiso   1.00
N1329  N     0.56232   0.11236   0.37146   0.00000  Uiso   1.00
N1330  N     0.96448   0.13995   0.42367   0.00000  Uiso   1.00
N1331  N     0.62003   0.70826   0.37490   0.00000  Uiso   1.00
N1332  N     0.62517   0.14727   0.34666   0.00000  Uiso   1.00
N1333  N     0.02733   0.17486   0.39887   0.00000  Uiso   1.00
N1334  N     0.68288   0.74318   0.35010   0.00000  Uiso   1.00
C1335  C     0.37670   0.31710   0.72552   0.00000  Uiso   1.00
C1336  C     0.35134   0.36106   0.71374   0.00000  Uiso   1.00
C1337  C     0.29502   0.37859   0.71766   0.00000  Uiso   1.00
C1338  C     0.28024   0.41925   0.70516   0.00000  Uiso   1.00
C1339  C     0.23478   0.48415   0.68929   0.00000  Uiso   1.00
C1340  C     0.46218   0.36868   0.72813   0.00000  Uiso   1.00
C1341  C     0.49905   0.39259   0.74415   0.00000  Uiso   1.00
C1342  C     0.57758   0.43967   0.74376   0.00000  Uiso   1.00
C1343  C     0.70421   0.51634   0.75023   0.00000  Uiso   1.00
C1344  C     0.36724   0.24971   0.71469   0.00000  Uiso   1.00
C1345  C     0.65763   0.84026   0.38607   0.00000  Uiso   1.00
C1346  C     0.65624   0.78716   0.37437   0.00000  Uiso   1.00
C1347  C     0.30213   0.01246   0.69331   0.00000  Uiso   1.00
C1348  C     0.45062   0.35816   0.69636   0.00000  Uiso   1.00
C1349  C     0.39150   0.38337   0.69791   0.00000  Uiso   1.00
C1350  C     0.37680   0.42401   0.68540   0.00000  Uiso   1.00
C1351  C     0.32046   0.44159   0.68929   0.00000  Uiso   1.00
C1352  C     0.50233   0.39098   0.71230   0.00000  Uiso   1.00
C1353  C     0.58083   0.43802   0.71189   0.00000  Uiso   1.00
C1354  C     0.61780   0.46201   0.72789   0.00000  Uiso   1.00
C1355  C     0.40739   0.27201   0.69885   0.00000  Uiso   1.00
C1356  C     0.40607   0.21902   0.68714   0.00000  Uiso   1.00
C1357  C     0.36313   0.14284   0.69184   0.00000  Uiso   1.00
H1358  H     0.34545   0.29974   0.73785   0.00000  Uiso   1.00
H1359  H     0.26397   0.36132   0.72992   0.00000  Uiso   1.00
H1360  H     0.46796   0.37532   0.75640   0.00000  Uiso   1.00
H1361  H     0.62657   0.82302   0.39833   0.00000  Uiso   1.00
H1362  H     0.19135   0.43946   0.71414   0.00000  Uiso   1.00
H1363  H     0.62149   0.46895   0.76998   0.00000  Uiso   1.00
H1364  H     0.25305   0.00722   0.71782   0.00000  Uiso   1.00
H1365  H     0.48188   0.37553   0.68403   0.00000  Uiso   1.00
H1366  H     0.40788   0.44127   0.67314   0.00000  Uiso   1.00
H1367  H     0.61188   0.45527   0.69963   0.00000  Uiso   1.00
H1368  H     0.10382   0.56964   0.00822   0.00000  Uiso   1.00
H1369  H     0.30815   0.50435   0.66806   0.00000  Uiso   1.00
H1370  H     0.73830   0.53384   0.72391   0.00000  Uiso   1.00
H1371  H     0.36985   0.07211   0.67174   0.00000  Uiso   1.00
O1372  O     0.19863   0.51380   0.68492   0.00000  Uiso   1.00
O1373  O     0.09629   0.21915   0.42485   0.00000  Uiso   1.00
O1374  O     0.27957   0.94670   0.68974   0.00000  Uiso   1.00
N1375  N     0.22898   0.44569   0.70479   0.00000  Uiso   1.00
N1376  N     0.63114   0.47328   0.75700   0.00000  Uiso   1.00
N1377  N     0.28669   0.04160   0.70823   0.00000  Uiso   1.00
N1378  N     0.29183   0.48061   0.68000   0.00000  Uiso   1.00
N1379  N     0.69399   0.50820   0.73221   0.00000  Uiso   1.00
N1380  N     0.34955   0.07651   0.68344   0.00000  Uiso   1.00
C1381  C     0.60707   0.95663   0.05885   0.00000  Uiso   1.00
C1382  C     0.67639   0.98199   0.04708   0.00000  Uiso   1.00
C1383  C     0.75023   0.03832   0.05099   0.00000  Uiso   1.00
C1384  C     0.80568   0.05309   0.03849   0.00000  Uiso   1.00
C1385  C     0.91604   0.09855   0.02263   0.00000  Uiso   1.00
C1386  C     0.57316   0.87115   0.06147   0.00000  Uiso   1.00
C1387  C     0.56021   0.83429   0.07748   0.00000  Uiso   1.00
C1388  C     0.52875   0.75576   0.07709   0.00000  Uiso   1.00
C1389  C     0.47880   0.62913   0.08357   0.00000  Uiso   1.00
C1390  C     0.54913   0.96609   0.04803   0.00000  Uiso   1.00
C1391  C     0.84929   0.67570   0.71940   0.00000  Uiso   1.00
C1392  C     0.79759   0.67709   0.70770   0.00000  Uiso   1.00
C1393  C     0.37700   0.03121   0.02664   0.00000  Uiso   1.00
C1394  C     0.57421   0.88271   0.02969   0.00000  Uiso   1.00
C1395  C     0.65854   0.94184   0.03124   0.00000  Uiso   1.00
C1396  C     0.71388   0.95654   0.01873   0.00000  Uiso   1.00
C1397  C     0.78780   0.01288   0.02263   0.00000  Uiso   1.00
C1398  C     0.55532   0.83100   0.04563   0.00000  Uiso   1.00
C1399  C     0.52386   0.75251   0.04522   0.00000  Uiso   1.00
C1400  C     0.51088   0.71553   0.06123   0.00000  Uiso   1.00
C1401  C     0.53129   0.92594   0.03219   0.00000  Uiso   1.00
C1402  C     0.47962   0.92726   0.02048   0.00000  Uiso   1.00
C1403  C     0.44638   0.97020   0.02517   0.00000  Uiso   1.00
H1404  H     0.62096   0.98788   0.07118   0.00000  Uiso   1.00
H1405  H     0.76402   0.06937   0.06325   0.00000  Uiso   1.00
H1406  H     0.57402   0.86537   0.08973   0.00000  Uiso   1.00
H1407  H     0.86312   0.70676   0.73166   0.00000  Uiso   1.00
H1408  H     0.91477   0.14198   0.04747   0.00000  Uiso   1.00
H1409  H     0.51413   0.71184   0.10332   0.00000  Uiso   1.00
H1410  H     0.42083   0.08028   0.05115   0.00000  Uiso   1.00
H1411  H     0.56032   0.85145   0.01736   0.00000  Uiso   1.00
H1412  H     0.70006   0.92546   0.00648   0.00000  Uiso   1.00
H1413  H     0.51006   0.72146   0.03296   0.00000  Uiso   1.00
H1414  H     0.13249   0.22952   0.34156   0.00000  Uiso   1.00
H1415  H     0.86286   0.02518   0.00140   0.00000  Uiso   1.00
H1416  H     0.46221   0.59503   0.05724   0.00000  Uiso   1.00
H1417  H     0.36892   0.96348   0.00507   0.00000  Uiso   1.00
O1418  O     0.98184   0.13471   0.01825   0.00000  Uiso   1.00
O1419  O     0.78953   0.23704   0.75818   0.00000  Uiso   1.00
O1420  O     0.33380   0.05377   0.02307   0.00000  Uiso   1.00
N1421  N     0.88337   0.10435   0.03812   0.00000  Uiso   1.00
N1422  N     0.50880   0.70219   0.09033   0.00000  Uiso   1.00
N1423  N     0.42157   0.04664   0.04156   0.00000  Uiso   1.00
N1424  N     0.85544   0.04150   0.01333   0.00000  Uiso   1.00
N1425  N     0.48087   0.63934   0.06554   0.00000  Uiso   1.00
N1426  N     0.39364   0.98379   0.01677   0.00000  Uiso   1.00
C1427  C     0.27373   0.28996   0.39218   0.00000  Uiso   1.00
C1428  C     0.34305   0.31532   0.38041   0.00000  Uiso   1.00
C1429  C     0.41690   0.37165   0.38432   0.00000  Uiso   1.00
C1430  C     0.47235   0.38643   0.37183   0.00000  Uiso   1.00
C1431  C     0.58270   0.43188   0.35596   0.00000  Uiso   1.00
C1432  C     0.23983   0.20448   0.39480   0.00000  Uiso   1.00
C1433  C     0.22688   0.16762   0.41081   0.00000  Uiso   1.00
C1434  C     0.19542   0.08909   0.41043   0.00000  Uiso   1.00
C1435  C     0.14547   0.96246   0.41690   0.00000  Uiso   1.00
C1436  C     0.21580   0.29942   0.38136   0.00000  Uiso   1.00
C1437  C     0.51596   0.00904   0.05274   0.00000  Uiso   1.00
C1438  C     0.46426   0.01042   0.04104   0.00000  Uiso   1.00
C1439  C     0.04366   0.36454   0.35997   0.00000  Uiso   1.00
C1440  C     0.24088   0.21605   0.36303   0.00000  Uiso   1.00
C1441  C     0.32521   0.27517   0.36457   0.00000  Uiso   1.00
C1442  C     0.38055   0.28987   0.35207   0.00000  Uiso   1.00
C1443  C     0.45447   0.34621   0.35596   0.00000  Uiso   1.00
C1444  C     0.22198   0.16433   0.37896   0.00000  Uiso   1.00
C1445  C     0.19053   0.08584   0.37855   0.00000  Uiso   1.00
C1446  C     0.17754   0.04887   0.39456   0.00000  Uiso   1.00
C1447  C     0.19795   0.25928   0.36552   0.00000  Uiso   1.00
C1448  C     0.14628   0.26059   0.35381   0.00000  Uiso   1.00
C1449  C     0.11304   0.30354   0.35850   0.00000  Uiso   1.00
H1450  H     0.28762   0.32122   0.40451   0.00000  Uiso   1.00
H1451  H     0.43069   0.40270   0.39658   0.00000  Uiso   1.00
H1452  H     0.24069   0.19870   0.42307   0.00000  Uiso   1.00
H1453  H     0.52978   0.04010   0.06499   0.00000  Uiso   1.00
H1454  H     0.58144   0.47532   0.38081   0.00000  Uiso   1.00
H1455  H     0.18079   0.04517   0.43665   0.00000  Uiso   1.00
H1456  H     0.08750   0.41362   0.38448   0.00000  Uiso   1.00
H1457  H     0.22698   0.18479   0.35070   0.00000  Uiso   1.00
H1458  H     0.36672   0.25879   0.33981   0.00000  Uiso   1.00
H1459  H     0.17672   0.05479   0.36630   0.00000  Uiso   1.00
H1460  H     0.79915   0.56285   0.67489   0.00000  Uiso   1.00
H1461  H     0.52952   0.35851   0.33473   0.00000  Uiso   1.00
H1462  H     0.12887   0.92837   0.39057   0.00000  Uiso   1.00
H1463  H     0.03559   0.29681   0.33841   0.00000  Uiso   1.00
O1464  O     0.64851   0.46804   0.35158   0.00000  Uiso   1.00
O1465  O     0.45619   0.57037   0.09151   0.00000  Uiso   1.00
O1466  O     0.00047   0.38710   0.35641   0.00000  Uiso   1.00
N1467  N     0.55004   0.43768   0.37146   0.00000  Uiso   1.00
N1468  N     0.17547   0.03552   0.42367   0.00000  Uiso   1.00
N1469  N     0.08824   0.37997   0.37490   0.00000  Uiso   1.00
N1470  N     0.52211   0.37483   0.34666   0.00000  Uiso   1.00
N1471  N     0.14754   0.97267   0.39887   0.00000  Uiso   1.00
N1472  N     0.06030   0.31712   0.35010   0.00000  Uiso   1.00
C1473  C     0.94040   0.62330   0.72552   0.00000  Uiso   1.00
C1474  C     0.00972   0.64866   0.71374   0.00000  Uiso   1.00
C1475  C     0.08357   0.70498   0.71766   0.00000  Uiso   1.00
C1476  C     0.13901   0.71976   0.70516   0.00000  Uiso   1.00
C1477  C     0.24937   0.76522   0.68929   0.00000  Uiso   1.00
C1478  C     0.90650   0.53782   0.72813   0.00000  Uiso   1.00
C1479  C     0.89355   0.50095   0.74415   0.00000  Uiso   1.00
C1480  C     0.86209   0.42242   0.74376   0.00000  Uiso   1.00
C1481  C     0.81214   0.29579   0.75023   0.00000  Uiso   1.00
C1482  C     0.88247   0.63276   0.71469   0.00000  Uiso   1.00
C1483  C     0.18263   0.34237   0.38607   0.00000  Uiso   1.00
C1484  C     0.13092   0.34376   0.37437   0.00000  Uiso   1.00
C1485  C     0.71033   0.69787   0.69331   0.00000  Uiso   1.00
C1486  C     0.90754   0.54938   0.69636   0.00000  Uiso   1.00
C1487  C     0.99187   0.60850   0.69791   0.00000  Uiso   1.00
C1488  C     0.04722   0.62320   0.68540   0.00000  Uiso   1.00
C1489  C     0.12114   0.67954   0.68929   0.00000  Uiso   1.00
C1490  C     0.88865   0.49767   0.71230   0.00000  Uiso   1.00
C1491  C     0.85720   0.41917   0.71189   0.00000  Uiso   1.00
C1492  C     0.84421   0.38220   0.72789   0.00000  Uiso   1.00
C1493  C     0.86462   0.59261   0.69885   0.00000  Uiso   1.00
C1494  C     0.81295   0.59393   0.68714   0.00000  Uiso   1.00
C1495  C     0.77971   0.63687   0.69184   0.00000  Uiso   1.00
H1496  H     0.95429   0.65455   0.73785   0.00000  Uiso   1.00
H1497  H     0.09736   0.73603   0.72992   0.00000  Uiso   1.00
H1498  H     0.90736   0.53204   0.75640   0.00000  Uiso   1.00
H1499  H     0.19645   0.37343   0.39833   0.00000  Uiso   1.00
H1500  H     0.24811   0.80865   0.71414   0.00000  Uiso   1.00
H1501  H     0.84746   0.37851   0.76998   0.00000  Uiso   1.00
H1502  H     0.75417   0.74695   0.71782   0.00000  Uiso   1.00
H1503  H     0.89365   0.51812   0.68403   0.00000  Uiso   1.00
H1504  H     0.03339   0.59212   0.67314   0.00000  Uiso   1.00
H1505  H     0.84339   0.38812   0.69963   0.00000  Uiso   1.00
H1506  H     0.46582   0.89618   0.00822   0.00000  Uiso   1.00
H1507  H     0.19619   0.69185   0.66806   0.00000  Uiso   1.00
H1508  H     0.79554   0.26170   0.72391   0.00000  Uiso   1.00
H1509  H     0.70225   0.63015   0.67174   0.00000  Uiso   1.00
O1510  O     0.31517   0.80137   0.68492   0.00000  Uiso   1.00
O1511  O     0.12286   0.90371   0.42485   0.00000  Uiso   1.00
O1512  O     0.66714   0.72043   0.68974   0.00000  Uiso   1.00
N1513  N     0.21671   0.77102   0.70479   0.00000  Uiso   1.00
N1514  N     0.84214   0.36886   0.75700   0.00000  Uiso   1.00
N1515  N     0.75490   0.71331   0.70823   0.00000  Uiso   1.00
N1516  N     0.18877   0.70817   0.68000   0.00000  Uiso   1.00
N1517  N     0.81420   0.30601   0.73221   0.00000  Uiso   1.00
N1518  N     0.72697   0.65045   0.68344   0.00000  Uiso   1.00
C1519  C     0.34956   0.39293   0.05885   0.00000  Uiso   1.00
C1520  C     0.30560   0.32361   0.04708   0.00000  Uiso   1.00
C1521  C     0.28808   0.24977   0.05099   0.00000  Uiso   1.00
C1522  C     0.24741   0.19432   0.03849   0.00000  Uiso   1.00
C1523  C     0.18251   0.08396   0.02263   0.00000  Uiso   1.00
C1524  C     0.29799   0.42684   0.06147   0.00000  Uiso   1.00
C1525  C     0.27407   0.43979   0.07748   0.00000  Uiso   1.00
C1526  C     0.22700   0.47125   0.07709   0.00000  Uiso   1.00
C1527  C     0.15032   0.52120   0.08357   0.00000  Uiso   1.00
C1528  C     0.41696   0.45087   0.04803   0.00000  Uiso   1.00
C1529  C     0.82641   0.15071   0.71940   0.00000  Uiso   1.00
C1530  C     0.87950   0.20241   0.70770   0.00000  Uiso   1.00
C1531  C     0.65421   0.62300   0.02664   0.00000  Uiso   1.00
C1532  C     0.30850   0.42579   0.02969   0.00000  Uiso   1.00
C1533  C     0.28330   0.34146   0.03124   0.00000  Uiso   1.00
C1534  C     0.24265   0.28612   0.01873   0.00000  Uiso   1.00
C1535  C     0.22507   0.21220   0.02263   0.00000  Uiso   1.00
C1536  C     0.27568   0.44468   0.04563   0.00000  Uiso   1.00
C1537  C     0.22864   0.47614   0.04522   0.00000  Uiso   1.00
C1538  C     0.20466   0.48912   0.06123   0.00000  Uiso   1.00
C1539  C     0.39466   0.46871   0.03219   0.00000  Uiso   1.00
C1540  C     0.44764   0.52038   0.02048   0.00000  Uiso   1.00
C1541  C     0.52383   0.55362   0.02517   0.00000  Uiso   1.00
H1542  H     0.36693   0.37904   0.07118   0.00000  Uiso   1.00
H1543  H     0.30534   0.23598   0.06325   0.00000  Uiso   1.00
H1544  H     0.29135   0.42598   0.08973   0.00000  Uiso   1.00
H1545  H     0.84364   0.13688   0.73166   0.00000  Uiso   1.00
H1546  H     0.22721   0.08523   0.04747   0.00000  Uiso   1.00
H1547  H     0.19771   0.48587   0.10332   0.00000  Uiso   1.00
H1548  H     0.65945   0.57917   0.05115   0.00000  Uiso   1.00
H1549  H     0.29114   0.43968   0.01736   0.00000  Uiso   1.00
H1550  H     0.22540   0.29994   0.00648   0.00000  Uiso   1.00
H1551  H     0.21140   0.48994   0.03296   0.00000  Uiso   1.00
H1552  H     0.09703   0.86751   0.34156   0.00000  Uiso   1.00
H1553  H     0.16232   0.13714   0.00140   0.00000  Uiso   1.00
H1554  H     0.13283   0.53779   0.05724   0.00000  Uiso   1.00
H1555  H     0.59456   0.63108   0.00507   0.00000  Uiso   1.00
O1556  O     0.15287   0.01816   0.01825   0.00000  Uiso   1.00
O1557  O     0.44751   0.21047   0.75818   0.00000  Uiso   1.00
O1558  O     0.71996   0.66620   0.02307   0.00000  Uiso   1.00
N1559  N     0.22097   0.11663   0.03812   0.00000  Uiso   1.00
N1560  N     0.19339   0.49120   0.09033   0.00000  Uiso   1.00
N1561  N     0.62507   0.57843   0.04156   0.00000  Uiso   1.00
N1562  N     0.18606   0.14456   0.01333   0.00000  Uiso   1.00
N1563  N     0.15847   0.51913   0.06554   0.00000  Uiso   1.00
N1564  N     0.59015   0.60636   0.01677   0.00000  Uiso   1.00
C1565  C     0.01623   0.72627   0.39218   0.00000  Uiso   1.00
C1566  C     0.97227   0.65695   0.38041   0.00000  Uiso   1.00
C1567  C     0.95475   0.58310   0.38432   0.00000  Uiso   1.00
C1568  C     0.91408   0.52765   0.37183   0.00000  Uiso   1.00
C1569  C     0.84918   0.41730   0.35596   0.00000  Uiso   1.00
C1570  C     0.96465   0.76017   0.39480   0.00000  Uiso   1.00
C1571  C     0.94074   0.77312   0.41081   0.00000  Uiso   1.00
C1572  C     0.89367   0.80458   0.41043   0.00000  Uiso   1.00
C1573  C     0.81699   0.85453   0.41690   0.00000  Uiso   1.00
C1574  C     0.08362   0.78420   0.38136   0.00000  Uiso   1.00
C1575  C     0.49307   0.48404   0.05274   0.00000  Uiso   1.00
C1576  C     0.54617   0.53574   0.04104   0.00000  Uiso   1.00
C1577  C     0.32088   0.95634   0.35997   0.00000  Uiso   1.00
C1578  C     0.97517   0.75912   0.36303   0.00000  Uiso   1.00
C1579  C     0.94997   0.67479   0.36457   0.00000  Uiso   1.00
C1580  C     0.90932   0.61945   0.35207   0.00000  Uiso   1.00
C1581  C     0.89174   0.54553   0.35596   0.00000  Uiso   1.00
C1582  C     0.94235   0.77802   0.37896   0.00000  Uiso   1.00
C1583  C     0.89531   0.80947   0.37855   0.00000  Uiso   1.00
C1584  C     0.87132   0.82246   0.39456   0.00000  Uiso   1.00
C1585  C     0.06132   0.80205   0.36552   0.00000  Uiso   1.00
C1586  C     0.11431   0.85372   0.35381   0.00000  Uiso   1.00
C1587  C     0.19049   0.88696   0.35850   0.00000  Uiso   1.00
H1588  H     0.03359   0.71238   0.40451   0.00000  Uiso   1.00
H1589  H     0.97201   0.56931   0.39658   0.00000  Uiso   1.00
H1590  H     0.95801   0.75931   0.42307   0.00000  Uiso   1.00
H1591  H     0.51031   0.47022   0.06499   0.00000  Uiso   1.00
H1592  H     0.89388   0.41856   0.38081   0.00000  Uiso   1.00
H1593  H     0.86438   0.81921   0.43665   0.00000  Uiso   1.00
H1594  H     0.32612   0.91250   0.38448   0.00000  Uiso   1.00
H1595  H     0.95781   0.77302   0.35070   0.00000  Uiso   1.00
H1596  H     0.89207   0.63328   0.33981   0.00000  Uiso   1.00
H1597  H     0.87807   0.82328   0.36630   0.00000  Uiso   1.00
H1598  H     0.76370   0.20085   0.67489   0.00000  Uiso   1.00
H1599  H     0.82899   0.47048   0.33473   0.00000  Uiso   1.00
H1600  H     0.79949   0.87113   0.39057   0.00000  Uiso   1.00
H1601  H     0.26123   0.96441   0.33841   0.00000  Uiso   1.00
O1602  O     0.81953   0.35149   0.35158   0.00000  Uiso   1.00
O1603  O     0.11418   0.54381   0.09151   0.00000  Uiso   1.00
O1604  O     0.38663   0.99953   0.35641   0.00000  Uiso   1.00
N1605  N     0.88764   0.44996   0.37146   0.00000  Uiso   1.00
N1606  N     0.86005   0.82453   0.42367   0.00000  Uiso   1.00
N1607  N     0.29174   0.91176   0.37490   0.00000  Uiso   1.00
N1608  N     0.85273   0.47789   0.34666   0.00000  Uiso   1.00
N1609  N     0.82514   0.85246   0.39887   0.00000  Uiso   1.00
N1610  N     0.25682   0.93970   0.35010   0.00000  Uiso   1.00
C1611  C     0.68290   0.05960   0.72552   0.00000  Uiso   1.00
C1612  C     0.63894   0.99028   0.71374   0.00000  Uiso   1.00
C1613  C     0.62141   0.91643   0.71766   0.00000  Uiso   1.00
C1614  C     0.58075   0.86099   0.70516   0.00000  Uiso   1.00
C1615  C     0.51585   0.75063   0.68929   0.00000  Uiso   1.00
C1616  C     0.63132   0.09350   0.72813   0.00000  Uiso   1.00
C1617  C     0.60741   0.10645   0.74415   0.00000  Uiso   1.00
C1618  C     0.56033   0.13791   0.74376   0.00000  Uiso   1.00
C1619  C     0.48366   0.18786   0.75023   0.00000  Uiso   1.00
C1620  C     0.75029   0.11753   0.71469   0.00000  Uiso   1.00
C1621  C     0.15974   0.81737   0.38607   0.00000  Uiso   1.00
C1622  C     0.21284   0.86908   0.37437   0.00000  Uiso   1.00
C1623  C     0.98754   0.28967   0.69331   0.00000  Uiso   1.00
C1624  C     0.64184   0.09246   0.69636   0.00000  Uiso   1.00
C1625  C     0.61663   0.00813   0.69791   0.00000  Uiso   1.00
C1626  C     0.57599   0.95278   0.68540   0.00000  Uiso   1.00
C1627  C     0.55841   0.87886   0.68929   0.00000  Uiso   1.00
C1628  C     0.60902   0.11135   0.71230   0.00000  Uiso   1.00
C1629  C     0.56198   0.14280   0.71189   0.00000  Uiso   1.00
C1630  C     0.53799   0.15579   0.72789   0.00000  Uiso   1.00
C1631  C     0.72799   0.13538   0.69885   0.00000  Uiso   1.00
C1632  C     0.78098   0.18705   0.68714   0.00000  Uiso   1.00
C1633  C     0.85716   0.22029   0.69184   0.00000  Uiso   1.00
H1634  H     0.70026   0.04571   0.73785   0.00000  Uiso   1.00
H1635  H     0.63868   0.90264   0.72992   0.00000  Uiso   1.00
H1636  H     0.62468   0.09264   0.75640   0.00000  Uiso   1.00
H1637  H     0.17698   0.80355   0.39833   0.00000  Uiso   1.00
H1638  H     0.56054   0.75189   0.71414   0.00000  Uiso   1.00
H1639  H     0.53105   0.15254   0.76998   0.00000  Uiso   1.00
H1640  H     0.99278   0.24583   0.71782   0.00000  Uiso   1.00
H1641  H     0.62447   0.10635   0.68403   0.00000  Uiso   1.00
H1642  H     0.55873   0.96661   0.67314   0.00000  Uiso   1.00
H1643  H     0.54473   0.15661   0.69963   0.00000  Uiso   1.00
H1644  H     0.43036   0.53418   0.00822   0.00000  Uiso   1.00
H1645  H     0.49565   0.80381   0.66806   0.00000  Uiso   1.00
H1646  H     0.46616   0.20446   0.72391   0.00000  Uiso   1.00
H1647  H     0.92789   0.29775   0.67174   0.00000  Uiso   1.00
O1648  O     0.48620   0.68483   0.68492   0.00000  Uiso   1.00
O1649  O     0.78085   0.87714   0.42485   0.00000  Uiso   1.00
O1650  O     0.05330   0.33286   0.68974   0.00000  Uiso   1.00
N1651  N     0.55431   0.78329   0.70479   0.00000  Uiso   1.00
N1652  N     0.52672   0.15786   0.75700   0.00000  Uiso   1.00
N1653  N     0.95840   0.24510   0.70823   0.00000  Uiso   1.00
N1654  N     0.51939   0.81123   0.68000   0.00000  Uiso   1.00
N1655  N     0.49180   0.18580   0.73221   0.00000  Uiso   1.00
N1656  N     0.92349   0.27303   0.68344   0.00000  Uiso   1.00
