data_job_04515
_audit_creation_date              2018-12-19
_audit_creation_method            'Materials Studio'
_symmetry_space_group_name_H-M    'P1'
_symmetry_Int_Tables_number       1
_symmetry_cell_setting            triclinic
loop_
_symmetry_equiv_pos_as_xyz
  x,y,z
_cell_length_a                    30.6703
_cell_length_b                    7.4883
_cell_length_c                    50.4535
_cell_angle_alpha                 90.0000
_cell_angle_beta                  127.5322
_cell_angle_gamma                 90.0000
loop_
_atom_site_label
_atom_site_type_symbol
_atom_site_fract_x
_atom_site_fract_y
_atom_site_fract_z
_atom_site_U_iso_or_equiv
_atom_site_adp_type
_atom_site_occupancy
C1     C     0.50435   0.00450   0.29692   0.00000  Uiso   1.00
C2     C     0.55311   0.13060   0.31825   0.00000  Uiso   1.00
C3     C     0.60421   0.08492   0.34735   0.00000  Uiso   1.00
C4     C     0.64337   0.21953   0.36322   0.00000  Uiso   1.00
C5     C     0.72084   0.38889   0.39829   0.00000  Uiso   1.00
C6     C     0.45687   0.08946   0.29453   0.00000  Uiso   1.00
C7     C     0.42706   0.00918   0.30369   0.00000  Uiso   1.00
C8     C     0.38520   0.10916   0.29958   0.00000  Uiso   1.00
C9     C     0.31323   0.21460   0.29781   0.00000  Uiso   1.00
C10    C     0.48843   0.01292   0.26182   0.00000  Uiso   1.00
C11    C     0.48514   0.86829   0.24347   0.00000  Uiso   1.00
C12    C     0.46983   0.90382   0.21182   0.00000  Uiso   1.00
C13    C     0.44686   0.89042   0.15926   0.00000  Uiso   1.00
C14    C     0.48300   0.32477   0.27333   0.00000  Uiso   1.00
C15    C     0.54151   0.30456   0.30543   0.00000  Uiso   1.00
C16    C     0.58060   0.43927   0.32125   0.00000  Uiso   1.00
C17    C     0.63176   0.39380   0.35038   0.00000  Uiso   1.00
C18    C     0.44528   0.26342   0.28172   0.00000  Uiso   1.00
C19    C     0.40345   0.36353   0.27759   0.00000  Uiso   1.00
C20    C     0.37358   0.28343   0.28675   0.00000  Uiso   1.00
C21    C     0.47684   0.18688   0.24900   0.00000  Uiso   1.00
C22    C     0.46153   0.22264   0.21737   0.00000  Uiso   1.00
C23    C     0.45822   0.07809   0.19898   0.00000  Uiso   1.00
H24    H     0.51337   0.86907   0.30689   0.00000  Uiso   1.00
H25    H     0.61317   0.95028   0.35726   0.00000  Uiso   1.00
H26    H     0.43604   0.87456   0.31360   0.00000  Uiso   1.00
H27    H     0.49411   0.73369   0.25340   0.00000  Uiso   1.00
H28    H     0.71870   0.11706   0.40746   0.00000  Uiso   1.00
H29    H     0.34519   0.95736   0.31539   0.00000  Uiso   1.00
H30    H     0.46765   0.66031   0.18843   0.00000  Uiso   1.00
H31    H     0.47398   0.46022   0.26335   0.00000  Uiso   1.00
H32    H     0.57162   0.57388   0.31133   0.00000  Uiso   1.00
H33    H     0.39449   0.49814   0.26767   0.00000  Uiso   1.00
H34    H     0.45256   0.35728   0.20747   0.00000  Uiso   1.00
H35    H     0.68497   0.62320   0.37019   0.00000  Uiso   1.00
H36    H     0.31147   0.46349   0.27811   0.00000  Uiso   1.00
H37    H     0.43393   0.16644   0.15115   0.00000  Uiso   1.00
O38    O     0.76677   0.43425   0.42118   0.00000  Uiso   1.00
O39    O     0.27674   0.22471   0.30038   0.00000  Uiso   1.00
O40    O     0.43741   0.83499   0.13381   0.00000  Uiso   1.00
N41    N     0.69736   0.22058   0.39210   0.00000  Uiso   1.00
N42    N     0.34816   0.07127   0.30602   0.00000  Uiso   1.00
N43    N     0.46264   0.79355   0.18733   0.00000  Uiso   1.00
N44    N     0.67922   0.49292   0.37204   0.00000  Uiso   1.00
N45    N     0.33002   0.34362   0.28597   0.00000  Uiso   1.00
N46    N     0.44449   0.06589   0.16727   0.00000  Uiso   1.00
C47    C     0.64161   0.99234   0.20294   0.00000  Uiso   1.00
C48    C     0.59412   0.12236   0.18123   0.00000  Uiso   1.00
C49    C     0.54335   0.08055   0.15152   0.00000  Uiso   1.00
C50    C     0.50540   0.21835   0.13539   0.00000  Uiso   1.00
C51    C     0.42977   0.39389   0.09968   0.00000  Uiso   1.00
C52    C     0.69071   0.07256   0.20659   0.00000  Uiso   1.00
C53    C     0.72117   0.98887   0.19820   0.00000  Uiso   1.00
C54    C     0.76454   0.08475   0.20341   0.00000  Uiso   1.00
C55    C     0.83891   0.18293   0.20709   0.00000  Uiso   1.00
C56    C     0.65568   0.00075   0.23758   0.00000  Uiso   1.00
C57    C     0.65670   0.85668   0.25525   0.00000  Uiso   1.00
C58    C     0.67059   0.89210   0.28656   0.00000  Uiso   1.00
C59    C     0.69057   0.87879   0.33835   0.00000  Uiso   1.00
C60    C     0.66450   0.31141   0.22713   0.00000  Uiso   1.00
C61    C     0.60655   0.29567   0.19437   0.00000  Uiso   1.00
C62    C     0.56867   0.43357   0.17829   0.00000  Uiso   1.00
C63    C     0.51785   0.39197   0.14855   0.00000  Uiso   1.00
C64    C     0.70315   0.24587   0.21973   0.00000  Uiso   1.00
C65    C     0.74649   0.34189   0.22496   0.00000  Uiso   1.00
C66    C     0.77700   0.25837   0.21658   0.00000  Uiso   1.00
C67    C     0.66812   0.17407   0.25072   0.00000  Uiso   1.00
C68    C     0.68202   0.20971   0.28201   0.00000  Uiso   1.00
C69    C     0.68305   0.06572   0.29973   0.00000  Uiso   1.00
H70    H     0.63193   0.85741   0.19271   0.00000  Uiso   1.00
H71    H     0.53374   0.94641   0.14136   0.00000  Uiso   1.00
H72    H     0.71154   0.85474   0.18803   0.00000  Uiso   1.00
H73    H     0.64707   0.72258   0.24507   0.00000  Uiso   1.00
H74    H     0.43037   0.12153   0.09021   0.00000  Uiso   1.00
H75    H     0.80528   0.92822   0.18863   0.00000  Uiso   1.00
H76    H     0.66934   0.64953   0.30892   0.00000  Uiso   1.00
H77    H     0.67418   0.44635   0.23737   0.00000  Uiso   1.00
H78    H     0.57830   0.56767   0.18846   0.00000  Uiso   1.00
H79    H     0.75610   0.47600   0.23513   0.00000  Uiso   1.00
H80    H     0.69164   0.34384   0.29218   0.00000  Uiso   1.00
H81    H     0.46654   0.62577   0.12844   0.00000  Uiso   1.00
H82    H     0.84145   0.43245   0.22687   0.00000  Uiso   1.00
H83    H     0.70551   0.15377   0.34715   0.00000  Uiso   1.00
O84    O     0.38463   0.44285   0.07635   0.00000  Uiso   1.00
O85    O     0.87650   0.18921   0.20548   0.00000  Uiso   1.00
O86    O     0.69815   0.82359   0.36329   0.00000  Uiso   1.00
N87    N     0.45203   0.22355   0.10592   0.00000  Uiso   1.00
N88    N     0.80254   0.04282   0.19794   0.00000  Uiso   1.00
N89    N     0.67547   0.78226   0.31040   0.00000  Uiso   1.00
N90    N     0.47150   0.49487   0.12650   0.00000  Uiso   1.00
N91    N     0.82201   0.31415   0.21851   0.00000  Uiso   1.00
N92    N     0.69493   0.05359   0.33097   0.00000  Uiso   1.00
C93    C     0.66178   0.18654   0.04736   0.00000  Uiso   1.00
C94    C     0.65528   0.31284   0.06846   0.00000  Uiso   1.00
C95    C     0.66271   0.26799   0.09765   0.00000  Uiso   1.00
C96    C     0.65483   0.40265   0.11327   0.00000  Uiso   1.00
C97    C     0.64702   0.57245   0.14803   0.00000  Uiso   1.00
C98    C     0.70412   0.27288   0.04480   0.00000  Uiso   1.00
C99    C     0.75260   0.19441   0.05410   0.00000  Uiso   1.00
C100   C     0.78583   0.29543   0.04980   0.00000  Uiso   1.00
C101   C     0.85381   0.40313   0.04782   0.00000  Uiso   1.00
C102   C     0.60730   0.19243   0.01225   0.00000  Uiso   1.00
C103   C     0.57439   0.04632   0.99418   0.00000  Uiso   1.00
C104   C     0.52611   0.07960   0.96247   0.00000  Uiso   1.00
C105   C     0.44378   0.06240   0.90994   0.00000  Uiso   1.00
C106   C     0.63459   0.50545   0.02317   0.00000  Uiso   1.00
C107   C     0.64051   0.48606   0.05532   0.00000  Uiso   1.00
C108   C     0.63263   0.62083   0.07089   0.00000  Uiso   1.00
C109   C     0.64004   0.57618   0.10011   0.00000  Uiso   1.00
C110   C     0.68935   0.44610   0.03166   0.00000  Uiso   1.00
C111   C     0.72251   0.54725   0.02734   0.00000  Uiso   1.00
C112   C     0.77103   0.46896   0.03664   0.00000  Uiso   1.00
C113   C     0.59253   0.36565   0.99911   0.00000  Uiso   1.00
C114   C     0.54430   0.39916   0.96742   0.00000  Uiso   1.00
C115   C     0.51132   0.25314   0.94930   0.00000  Uiso   1.00
H116   H     0.67328   0.05168   0.05759   0.00000  Uiso   1.00
H117   H     0.67414   0.13393   0.10781   0.00000  Uiso   1.00
H118   H     0.76401   0.06036   0.06427   0.00000  Uiso   1.00
H119   H     0.58583   0.91230   0.00435   0.00000  Uiso   1.00
H120   H     0.66861   0.30152   0.15771   0.00000  Uiso   1.00
H121   H     0.85810   0.14637   0.06588   0.00000  Uiso   1.00
H122   H     0.48236   0.83415   0.93954   0.00000  Uiso   1.00
H123   H     0.62309   0.64031   0.01294   0.00000  Uiso   1.00
H124   H     0.62120   0.75486   0.06072   0.00000  Uiso   1.00
H125   H     0.71107   0.68129   0.01717   0.00000  Uiso   1.00
H126   H     0.53289   0.53323   0.95726   0.00000  Uiso   1.00
H127   H     0.62564   0.80549   0.11949   0.00000  Uiso   1.00
H128   H     0.81513   0.65034   0.02766   0.00000  Uiso   1.00
H129   H     0.43940   0.33812   0.90132   0.00000  Uiso   1.00
O130   O     0.64680   0.61826   0.17084   0.00000  Uiso   1.00
O131   O     0.89540   0.41469   0.05035   0.00000  Uiso   1.00
O132   O     0.40245   0.00506   0.88460   0.00000  Uiso   1.00
N133   N     0.65874   0.40440   0.14216   0.00000  Uiso   1.00
N134   N     0.83591   0.25936   0.05630   0.00000  Uiso   1.00
N135   N     0.48464   0.96745   0.93818   0.00000  Uiso   1.00
N136   N     0.63562   0.67558   0.12159   0.00000  Uiso   1.00
N137   N     0.81279   0.53054   0.03574   0.00000  Uiso   1.00
N138   N     0.46152   0.23863   0.91761   0.00000  Uiso   1.00
C139   C     0.16494   0.80846   0.54838   0.00000  Uiso   1.00
C140   C     0.16139   0.93717   0.57042   0.00000  Uiso   1.00
C141   C     0.17106   0.89417   0.60035   0.00000  Uiso   1.00
C142   C     0.16570   0.03089   0.61678   0.00000  Uiso   1.00
C143   C     0.16242   0.20439   0.65300   0.00000  Uiso   1.00
C144   C     0.20599   0.89061   0.54426   0.00000  Uiso   1.00
C145   C     0.25315   0.80844   0.55218   0.00000  Uiso   1.00
C146   C     0.28534   0.90596   0.54658   0.00000  Uiso   1.00
C147   C     0.35128   0.00711   0.54216   0.00000  Uiso   1.00
C148   C     0.10915   0.81640   0.51398   0.00000  Uiso   1.00
C149   C     0.07490   0.67183   0.49644   0.00000  Uiso   1.00
C150   C     0.02556   0.70685   0.46533   0.00000  Uiso   1.00
C151   C     0.94115   0.69278   0.41390   0.00000  Uiso   1.00
C152   C     0.13824   0.12773   0.52433   0.00000  Uiso   1.00
C153   C     0.14689   0.11059   0.55736   0.00000  Uiso   1.00
C154   C     0.14151   0.24740   0.57375   0.00000  Uiso   1.00
C155   C     0.15117   0.20461   0.60369   0.00000  Uiso   1.00
C156   C     0.19149   0.06401   0.53120   0.00000  Uiso   1.00
C157   C     0.22361   0.16167   0.52558   0.00000  Uiso   1.00
C158   C     0.27081   0.07968   0.53349   0.00000  Uiso   1.00
C159   C     0.09465   0.98981   0.50092   0.00000  Uiso   1.00
C160   C     0.04536   0.02506   0.46983   0.00000  Uiso   1.00
C161   C     0.01103   0.88058   0.45225   0.00000  Uiso   1.00
H162   H     0.17623   0.67345   0.55855   0.00000  Uiso   1.00
H163   H     0.18229   0.75996   0.61045   0.00000  Uiso   1.00
H164   H     0.26436   0.67424   0.56229   0.00000  Uiso   1.00
H165   H     0.08614   0.53765   0.50655   0.00000  Uiso   1.00
H166   H     0.18262   0.93235   0.66224   0.00000  Uiso   1.00
H167   H     0.35567   0.75158   0.56068   0.00000  Uiso   1.00
H168   H     0.97985   0.46356   0.44315   0.00000  Uiso   1.00
H169   H     0.12695   0.26274   0.51416   0.00000  Uiso   1.00
H170   H     0.13029   0.38159   0.56363   0.00000  Uiso   1.00
H171   H     0.21237   0.29586   0.51547   0.00000  Uiso   1.00
H172   H     0.03415   0.15927   0.45973   0.00000  Uiso   1.00
H173   H     0.14042   0.43689   0.62424   0.00000  Uiso   1.00
H174   H     0.31347   0.25611   0.52268   0.00000  Uiso   1.00
H175   H     0.93765   0.96809   0.40515   0.00000  Uiso   1.00
O176   O     0.16462   0.25218   0.67659   0.00000  Uiso   1.00
O177   O     0.39166   0.01500   0.54334   0.00000  Uiso   1.00
O178   O     0.89859   0.63712   0.38914   0.00000  Uiso   1.00
N179   N     0.17222   0.03478   0.64651   0.00000  Uiso   1.00
N180   N     0.33401   0.86578   0.55155   0.00000  Uiso   1.00
N181   N     0.98266   0.59649   0.44167   0.00000  Uiso   1.00
N182   N     0.14951   0.30627   0.62606   0.00000  Uiso   1.00
N183   N     0.31131   0.13727   0.53111   0.00000  Uiso   1.00
N184   N     0.95996   0.86798   0.42122   0.00000  Uiso   1.00
C185   C     0.00435   0.50450   0.29692   0.00000  Uiso   1.00
C186   C     0.05311   0.63060   0.31825   0.00000  Uiso   1.00
C187   C     0.10421   0.58492   0.34735   0.00000  Uiso   1.00
C188   C     0.14337   0.71953   0.36322   0.00000  Uiso   1.00
C189   C     0.22084   0.88889   0.39829   0.00000  Uiso   1.00
C190   C     0.95687   0.58946   0.29453   0.00000  Uiso   1.00
C191   C     0.92706   0.50918   0.30369   0.00000  Uiso   1.00
C192   C     0.88520   0.60916   0.29958   0.00000  Uiso   1.00
C193   C     0.81323   0.71460   0.29781   0.00000  Uiso   1.00
C194   C     0.98843   0.51292   0.26182   0.00000  Uiso   1.00
C195   C     0.98514   0.36829   0.24347   0.00000  Uiso   1.00
C196   C     0.96983   0.40382   0.21182   0.00000  Uiso   1.00
C197   C     0.94686   0.39042   0.15926   0.00000  Uiso   1.00
C198   C     0.98300   0.82477   0.27333   0.00000  Uiso   1.00
C199   C     0.04151   0.80456   0.30543   0.00000  Uiso   1.00
C200   C     0.08060   0.93927   0.32125   0.00000  Uiso   1.00
C201   C     0.13176   0.89380   0.35038   0.00000  Uiso   1.00
C202   C     0.94528   0.76342   0.28172   0.00000  Uiso   1.00
C203   C     0.90345   0.86353   0.27759   0.00000  Uiso   1.00
C204   C     0.87358   0.78343   0.28675   0.00000  Uiso   1.00
C205   C     0.97684   0.68688   0.24900   0.00000  Uiso   1.00
C206   C     0.96153   0.72264   0.21737   0.00000  Uiso   1.00
C207   C     0.95822   0.57809   0.19898   0.00000  Uiso   1.00
H208   H     0.01337   0.36907   0.30689   0.00000  Uiso   1.00
H209   H     0.11317   0.45028   0.35726   0.00000  Uiso   1.00
H210   H     0.93604   0.37456   0.31360   0.00000  Uiso   1.00
H211   H     0.99411   0.23369   0.25340   0.00000  Uiso   1.00
H212   H     0.21870   0.61706   0.40746   0.00000  Uiso   1.00
H213   H     0.84519   0.45736   0.31539   0.00000  Uiso   1.00
H214   H     0.96765   0.16031   0.18843   0.00000  Uiso   1.00
H215   H     0.97398   0.96022   0.26335   0.00000  Uiso   1.00
H216   H     0.07162   0.07388   0.31133   0.00000  Uiso   1.00
H217   H     0.89449   0.99814   0.26767   0.00000  Uiso   1.00
H218   H     0.95256   0.85728   0.20747   0.00000  Uiso   1.00
H219   H     0.18497   0.12320   0.37019   0.00000  Uiso   1.00
H220   H     0.81147   0.96349   0.27811   0.00000  Uiso   1.00
H221   H     0.93393   0.66644   0.15115   0.00000  Uiso   1.00
O222   O     0.26677   0.93425   0.42118   0.00000  Uiso   1.00
O223   O     0.77674   0.72471   0.30038   0.00000  Uiso   1.00
O224   O     0.93741   0.33499   0.13381   0.00000  Uiso   1.00
N225   N     0.19736   0.72058   0.39210   0.00000  Uiso   1.00
N226   N     0.84816   0.57127   0.30602   0.00000  Uiso   1.00
N227   N     0.96264   0.29355   0.18733   0.00000  Uiso   1.00
N228   N     0.17922   0.99292   0.37204   0.00000  Uiso   1.00
N229   N     0.83002   0.84362   0.28597   0.00000  Uiso   1.00
N230   N     0.94449   0.56589   0.16727   0.00000  Uiso   1.00
C231   C     0.14161   0.49234   0.20294   0.00000  Uiso   1.00
C232   C     0.09412   0.62236   0.18123   0.00000  Uiso   1.00
C233   C     0.04335   0.58055   0.15152   0.00000  Uiso   1.00
C234   C     0.00540   0.71835   0.13539   0.00000  Uiso   1.00
C235   C     0.92977   0.89389   0.09968   0.00000  Uiso   1.00
C236   C     0.19071   0.57256   0.20659   0.00000  Uiso   1.00
C237   C     0.22117   0.48887   0.19820   0.00000  Uiso   1.00
C238   C     0.26454   0.58475   0.20341   0.00000  Uiso   1.00
C239   C     0.33891   0.68293   0.20709   0.00000  Uiso   1.00
C240   C     0.15568   0.50075   0.23758   0.00000  Uiso   1.00
C241   C     0.15670   0.35668   0.25525   0.00000  Uiso   1.00
C242   C     0.17059   0.39210   0.28656   0.00000  Uiso   1.00
C243   C     0.19057   0.37879   0.33835   0.00000  Uiso   1.00
C244   C     0.16450   0.81141   0.22713   0.00000  Uiso   1.00
C245   C     0.10655   0.79567   0.19437   0.00000  Uiso   1.00
C246   C     0.06867   0.93357   0.17829   0.00000  Uiso   1.00
C247   C     0.01785   0.89197   0.14855   0.00000  Uiso   1.00
C248   C     0.20315   0.74587   0.21973   0.00000  Uiso   1.00
C249   C     0.24649   0.84189   0.22496   0.00000  Uiso   1.00
C250   C     0.27700   0.75837   0.21658   0.00000  Uiso   1.00
C251   C     0.16812   0.67407   0.25072   0.00000  Uiso   1.00
C252   C     0.18202   0.70971   0.28201   0.00000  Uiso   1.00
C253   C     0.18305   0.56572   0.29973   0.00000  Uiso   1.00
H254   H     0.13193   0.35741   0.19271   0.00000  Uiso   1.00
H255   H     0.03374   0.44641   0.14136   0.00000  Uiso   1.00
H256   H     0.21154   0.35474   0.18803   0.00000  Uiso   1.00
H257   H     0.14707   0.22258   0.24507   0.00000  Uiso   1.00
H258   H     0.93037   0.62153   0.09021   0.00000  Uiso   1.00
H259   H     0.30528   0.42822   0.18863   0.00000  Uiso   1.00
H260   H     0.16934   0.14953   0.30892   0.00000  Uiso   1.00
H261   H     0.17418   0.94635   0.23737   0.00000  Uiso   1.00
H262   H     0.07830   0.06767   0.18846   0.00000  Uiso   1.00
H263   H     0.25610   0.97600   0.23513   0.00000  Uiso   1.00
H264   H     0.19164   0.84384   0.29218   0.00000  Uiso   1.00
H265   H     0.96654   0.12577   0.12844   0.00000  Uiso   1.00
H266   H     0.34145   0.93245   0.22687   0.00000  Uiso   1.00
H267   H     0.20551   0.65377   0.34715   0.00000  Uiso   1.00
O268   O     0.88463   0.94285   0.07635   0.00000  Uiso   1.00
O269   O     0.37650   0.68921   0.20548   0.00000  Uiso   1.00
O270   O     0.19815   0.32359   0.36329   0.00000  Uiso   1.00
N271   N     0.95203   0.72355   0.10592   0.00000  Uiso   1.00
N272   N     0.30254   0.54282   0.19794   0.00000  Uiso   1.00
N273   N     0.17547   0.28226   0.31040   0.00000  Uiso   1.00
N274   N     0.97150   0.99487   0.12650   0.00000  Uiso   1.00
N275   N     0.32201   0.81415   0.21851   0.00000  Uiso   1.00
N276   N     0.19493   0.55359   0.33097   0.00000  Uiso   1.00
C277   C     0.16178   0.68654   0.04736   0.00000  Uiso   1.00
C278   C     0.15528   0.81284   0.06846   0.00000  Uiso   1.00
C279   C     0.16271   0.76799   0.09765   0.00000  Uiso   1.00
C280   C     0.15483   0.90265   0.11327   0.00000  Uiso   1.00
C281   C     0.14702   0.07245   0.14803   0.00000  Uiso   1.00
C282   C     0.20412   0.77288   0.04480   0.00000  Uiso   1.00
C283   C     0.25260   0.69441   0.05410   0.00000  Uiso   1.00
C284   C     0.28583   0.79543   0.04980   0.00000  Uiso   1.00
C285   C     0.35381   0.90313   0.04782   0.00000  Uiso   1.00
C286   C     0.10730   0.69243   0.01225   0.00000  Uiso   1.00
C287   C     0.07439   0.54632   0.99418   0.00000  Uiso   1.00
C288   C     0.02611   0.57960   0.96247   0.00000  Uiso   1.00
C289   C     0.94378   0.56240   0.90994   0.00000  Uiso   1.00
C290   C     0.13459   0.00545   0.02317   0.00000  Uiso   1.00
C291   C     0.14051   0.98606   0.05532   0.00000  Uiso   1.00
C292   C     0.13263   0.12083   0.07089   0.00000  Uiso   1.00
C293   C     0.14004   0.07618   0.10011   0.00000  Uiso   1.00
C294   C     0.18935   0.94610   0.03166   0.00000  Uiso   1.00
C295   C     0.22251   0.04725   0.02734   0.00000  Uiso   1.00
C296   C     0.27103   0.96896   0.03664   0.00000  Uiso   1.00
C297   C     0.09253   0.86565   0.99911   0.00000  Uiso   1.00
C298   C     0.04430   0.89916   0.96742   0.00000  Uiso   1.00
C299   C     0.01132   0.75314   0.94930   0.00000  Uiso   1.00
H300   H     0.17328   0.55168   0.05759   0.00000  Uiso   1.00
H301   H     0.17414   0.63393   0.10781   0.00000  Uiso   1.00
H302   H     0.26401   0.56036   0.06427   0.00000  Uiso   1.00
H303   H     0.08583   0.41230   0.00435   0.00000  Uiso   1.00
H304   H     0.16861   0.80152   0.15771   0.00000  Uiso   1.00
H305   H     0.35810   0.64637   0.06588   0.00000  Uiso   1.00
H306   H     0.98236   0.33415   0.93954   0.00000  Uiso   1.00
H307   H     0.12309   0.14031   0.01294   0.00000  Uiso   1.00
H308   H     0.12120   0.25486   0.06072   0.00000  Uiso   1.00
H309   H     0.21107   0.18129   0.01717   0.00000  Uiso   1.00
H310   H     0.03289   0.03323   0.95726   0.00000  Uiso   1.00
H311   H     0.12564   0.30549   0.11949   0.00000  Uiso   1.00
H312   H     0.31513   0.15034   0.02766   0.00000  Uiso   1.00
H313   H     0.93940   0.83812   0.90132   0.00000  Uiso   1.00
O314   O     0.14680   0.11826   0.17084   0.00000  Uiso   1.00
O315   O     0.39540   0.91469   0.05035   0.00000  Uiso   1.00
O316   O     0.90245   0.50506   0.88460   0.00000  Uiso   1.00
N317   N     0.15874   0.90440   0.14216   0.00000  Uiso   1.00
N318   N     0.33591   0.75936   0.05630   0.00000  Uiso   1.00
N319   N     0.98464   0.46745   0.93818   0.00000  Uiso   1.00
N320   N     0.13562   0.17558   0.12159   0.00000  Uiso   1.00
N321   N     0.31279   0.03054   0.03574   0.00000  Uiso   1.00
N322   N     0.96152   0.73863   0.91761   0.00000  Uiso   1.00
C323   C     0.66494   0.30846   0.54838   0.00000  Uiso   1.00
C324   C     0.66139   0.43717   0.57042   0.00000  Uiso   1.00
C325   C     0.67106   0.39417   0.60035   0.00000  Uiso   1.00
C326   C     0.66570   0.53089   0.61678   0.00000  Uiso   1.00
C327   C     0.66242   0.70439   0.65300   0.00000  Uiso   1.00
C328   C     0.70599   0.39061   0.54426   0.00000  Uiso   1.00
C329   C     0.75315   0.30844   0.55218   0.00000  Uiso   1.00
C330   C     0.78534   0.40596   0.54658   0.00000  Uiso   1.00
C331   C     0.85128   0.50711   0.54216   0.00000  Uiso   1.00
C332   C     0.60915   0.31640   0.51398   0.00000  Uiso   1.00
C333   C     0.57490   0.17183   0.49644   0.00000  Uiso   1.00
C334   C     0.52556   0.20685   0.46533   0.00000  Uiso   1.00
C335   C     0.44115   0.19278   0.41390   0.00000  Uiso   1.00
C336   C     0.63824   0.62773   0.52433   0.00000  Uiso   1.00
C337   C     0.64689   0.61059   0.55736   0.00000  Uiso   1.00
C338   C     0.64151   0.74740   0.57375   0.00000  Uiso   1.00
C339   C     0.65117   0.70461   0.60369   0.00000  Uiso   1.00
C340   C     0.69149   0.56401   0.53120   0.00000  Uiso   1.00
C341   C     0.72361   0.66167   0.52558   0.00000  Uiso   1.00
C342   C     0.77081   0.57968   0.53349   0.00000  Uiso   1.00
C343   C     0.59465   0.48981   0.50092   0.00000  Uiso   1.00
C344   C     0.54536   0.52506   0.46983   0.00000  Uiso   1.00
C345   C     0.51103   0.38058   0.45225   0.00000  Uiso   1.00
H346   H     0.67623   0.17345   0.55855   0.00000  Uiso   1.00
H347   H     0.68229   0.25996   0.61045   0.00000  Uiso   1.00
H348   H     0.76436   0.17424   0.56229   0.00000  Uiso   1.00
H349   H     0.58614   0.03765   0.50655   0.00000  Uiso   1.00
H350   H     0.68262   0.43235   0.66224   0.00000  Uiso   1.00
H351   H     0.85567   0.25158   0.56068   0.00000  Uiso   1.00
H352   H     0.47985   0.96356   0.44315   0.00000  Uiso   1.00
H353   H     0.62695   0.76274   0.51416   0.00000  Uiso   1.00
H354   H     0.63029   0.88159   0.56363   0.00000  Uiso   1.00
H355   H     0.71237   0.79586   0.51547   0.00000  Uiso   1.00
H356   H     0.53415   0.65927   0.45973   0.00000  Uiso   1.00
H357   H     0.64042   0.93689   0.62424   0.00000  Uiso   1.00
H358   H     0.81347   0.75611   0.52268   0.00000  Uiso   1.00
H359   H     0.43765   0.46809   0.40515   0.00000  Uiso   1.00
O360   O     0.66462   0.75218   0.67659   0.00000  Uiso   1.00
O361   O     0.89166   0.51500   0.54334   0.00000  Uiso   1.00
O362   O     0.39859   0.13712   0.38914   0.00000  Uiso   1.00
N363   N     0.67222   0.53478   0.64651   0.00000  Uiso   1.00
N364   N     0.83401   0.36578   0.55155   0.00000  Uiso   1.00
N365   N     0.48266   0.09649   0.44167   0.00000  Uiso   1.00
N366   N     0.64951   0.80627   0.62606   0.00000  Uiso   1.00
N367   N     0.81131   0.63727   0.53111   0.00000  Uiso   1.00
N368   N     0.45996   0.36798   0.42122   0.00000  Uiso   1.00
C369   C     0.49565   0.00450   0.70308   0.00000  Uiso   1.00
C370   C     0.44689   0.13060   0.68175   0.00000  Uiso   1.00
C371   C     0.39579   0.08492   0.65265   0.00000  Uiso   1.00
C372   C     0.35663   0.21953   0.63678   0.00000  Uiso   1.00
C373   C     0.27916   0.38889   0.60171   0.00000  Uiso   1.00
C374   C     0.54313   0.08946   0.70547   0.00000  Uiso   1.00
C375   C     0.57294   0.00918   0.69631   0.00000  Uiso   1.00
C376   C     0.61480   0.10916   0.70042   0.00000  Uiso   1.00
C377   C     0.68677   0.21460   0.70219   0.00000  Uiso   1.00
C378   C     0.51157   0.01292   0.73818   0.00000  Uiso   1.00
C379   C     0.51486   0.86829   0.75653   0.00000  Uiso   1.00
C380   C     0.53017   0.90382   0.78818   0.00000  Uiso   1.00
C381   C     0.55314   0.89042   0.84074   0.00000  Uiso   1.00
C382   C     0.51700   0.32477   0.72667   0.00000  Uiso   1.00
C383   C     0.45849   0.30456   0.69457   0.00000  Uiso   1.00
C384   C     0.41940   0.43927   0.67875   0.00000  Uiso   1.00
C385   C     0.36824   0.39380   0.64962   0.00000  Uiso   1.00
C386   C     0.55472   0.26342   0.71828   0.00000  Uiso   1.00
C387   C     0.59655   0.36353   0.72241   0.00000  Uiso   1.00
C388   C     0.62642   0.28343   0.71325   0.00000  Uiso   1.00
C389   C     0.52316   0.18688   0.75100   0.00000  Uiso   1.00
C390   C     0.53847   0.22264   0.78263   0.00000  Uiso   1.00
C391   C     0.54178   0.07809   0.80102   0.00000  Uiso   1.00
H392   H     0.48663   0.86907   0.69311   0.00000  Uiso   1.00
H393   H     0.38683   0.95028   0.64274   0.00000  Uiso   1.00
H394   H     0.56396   0.87456   0.68640   0.00000  Uiso   1.00
H395   H     0.50589   0.73369   0.74660   0.00000  Uiso   1.00
H396   H     0.28130   0.11706   0.59254   0.00000  Uiso   1.00
H397   H     0.65481   0.95736   0.68461   0.00000  Uiso   1.00
H398   H     0.53235   0.66031   0.81157   0.00000  Uiso   1.00
H399   H     0.52602   0.46022   0.73665   0.00000  Uiso   1.00
H400   H     0.42838   0.57388   0.68867   0.00000  Uiso   1.00
H401   H     0.60551   0.49814   0.73233   0.00000  Uiso   1.00
H402   H     0.54744   0.35728   0.79253   0.00000  Uiso   1.00
H403   H     0.31503   0.62320   0.62981   0.00000  Uiso   1.00
H404   H     0.68853   0.46349   0.72189   0.00000  Uiso   1.00
H405   H     0.56607   0.16644   0.84885   0.00000  Uiso   1.00
O406   O     0.23323   0.43425   0.57882   0.00000  Uiso   1.00
O407   O     0.72326   0.22471   0.69962   0.00000  Uiso   1.00
O408   O     0.56259   0.83499   0.86619   0.00000  Uiso   1.00
N409   N     0.30264   0.22058   0.60790   0.00000  Uiso   1.00
N410   N     0.65184   0.07127   0.69398   0.00000  Uiso   1.00
N411   N     0.53736   0.79355   0.81267   0.00000  Uiso   1.00
N412   N     0.32078   0.49292   0.62796   0.00000  Uiso   1.00
N413   N     0.66998   0.34362   0.71403   0.00000  Uiso   1.00
N414   N     0.55551   0.06589   0.83273   0.00000  Uiso   1.00
C415   C     0.35839   0.99234   0.79706   0.00000  Uiso   1.00
C416   C     0.40588   0.12236   0.81877   0.00000  Uiso   1.00
C417   C     0.45665   0.08055   0.84848   0.00000  Uiso   1.00
C418   C     0.49460   0.21835   0.86461   0.00000  Uiso   1.00
C419   C     0.57023   0.39389   0.90032   0.00000  Uiso   1.00
C420   C     0.30929   0.07256   0.79341   0.00000  Uiso   1.00
C421   C     0.27883   0.98887   0.80180   0.00000  Uiso   1.00
C422   C     0.23546   0.08475   0.79659   0.00000  Uiso   1.00
C423   C     0.16109   0.18293   0.79291   0.00000  Uiso   1.00
C424   C     0.34432   0.00075   0.76242   0.00000  Uiso   1.00
C425   C     0.34330   0.85668   0.74475   0.00000  Uiso   1.00
C426   C     0.32941   0.89210   0.71344   0.00000  Uiso   1.00
C427   C     0.30943   0.87879   0.66165   0.00000  Uiso   1.00
C428   C     0.33550   0.31141   0.77287   0.00000  Uiso   1.00
C429   C     0.39345   0.29567   0.80563   0.00000  Uiso   1.00
C430   C     0.43133   0.43357   0.82171   0.00000  Uiso   1.00
C431   C     0.48215   0.39197   0.85145   0.00000  Uiso   1.00
C432   C     0.29685   0.24587   0.78027   0.00000  Uiso   1.00
C433   C     0.25351   0.34189   0.77504   0.00000  Uiso   1.00
C434   C     0.22300   0.25837   0.78342   0.00000  Uiso   1.00
C435   C     0.33188   0.17407   0.74928   0.00000  Uiso   1.00
C436   C     0.31798   0.20971   0.71799   0.00000  Uiso   1.00
C437   C     0.31695   0.06572   0.70027   0.00000  Uiso   1.00
H438   H     0.36807   0.85741   0.80729   0.00000  Uiso   1.00
H439   H     0.46626   0.94641   0.85864   0.00000  Uiso   1.00
H440   H     0.28846   0.85474   0.81197   0.00000  Uiso   1.00
H441   H     0.35293   0.72258   0.75493   0.00000  Uiso   1.00
H442   H     0.56963   0.12153   0.90979   0.00000  Uiso   1.00
H443   H     0.19472   0.92822   0.81137   0.00000  Uiso   1.00
H444   H     0.33066   0.64953   0.69108   0.00000  Uiso   1.00
H445   H     0.32582   0.44635   0.76263   0.00000  Uiso   1.00
H446   H     0.42170   0.56767   0.81154   0.00000  Uiso   1.00
H447   H     0.24390   0.47600   0.76487   0.00000  Uiso   1.00
H448   H     0.30836   0.34384   0.70782   0.00000  Uiso   1.00
H449   H     0.53346   0.62577   0.87156   0.00000  Uiso   1.00
H450   H     0.15855   0.43245   0.77313   0.00000  Uiso   1.00
H451   H     0.29449   0.15377   0.65285   0.00000  Uiso   1.00
O452   O     0.61537   0.44285   0.92365   0.00000  Uiso   1.00
O453   O     0.12350   0.18921   0.79452   0.00000  Uiso   1.00
O454   O     0.30185   0.82359   0.63671   0.00000  Uiso   1.00
N455   N     0.54797   0.22355   0.89408   0.00000  Uiso   1.00
N456   N     0.19746   0.04282   0.80206   0.00000  Uiso   1.00
N457   N     0.32453   0.78226   0.68960   0.00000  Uiso   1.00
N458   N     0.52850   0.49487   0.87350   0.00000  Uiso   1.00
N459   N     0.17799   0.31415   0.78149   0.00000  Uiso   1.00
N460   N     0.30507   0.05359   0.66903   0.00000  Uiso   1.00
C461   C     0.33822   0.18654   0.95264   0.00000  Uiso   1.00
C462   C     0.34472   0.31284   0.93154   0.00000  Uiso   1.00
C463   C     0.33729   0.26799   0.90235   0.00000  Uiso   1.00
C464   C     0.34517   0.40265   0.88673   0.00000  Uiso   1.00
C465   C     0.35298   0.57245   0.85197   0.00000  Uiso   1.00
C466   C     0.29588   0.27288   0.95520   0.00000  Uiso   1.00
C467   C     0.24740   0.19441   0.94590   0.00000  Uiso   1.00
C468   C     0.21417   0.29543   0.95020   0.00000  Uiso   1.00
C469   C     0.14619   0.40313   0.95218   0.00000  Uiso   1.00
C470   C     0.39270   0.19243   0.98775   0.00000  Uiso   1.00
C471   C     0.42561   0.04632   0.00582   0.00000  Uiso   1.00
C472   C     0.47389   0.07960   0.03753   0.00000  Uiso   1.00
C473   C     0.55622   0.06240   0.09006   0.00000  Uiso   1.00
C474   C     0.36541   0.50545   0.97683   0.00000  Uiso   1.00
C475   C     0.35949   0.48606   0.94468   0.00000  Uiso   1.00
C476   C     0.36737   0.62083   0.92911   0.00000  Uiso   1.00
C477   C     0.35996   0.57618   0.89989   0.00000  Uiso   1.00
C478   C     0.31065   0.44610   0.96834   0.00000  Uiso   1.00
C479   C     0.27749   0.54725   0.97266   0.00000  Uiso   1.00
C480   C     0.22897   0.46896   0.96336   0.00000  Uiso   1.00
C481   C     0.40747   0.36565   0.00089   0.00000  Uiso   1.00
C482   C     0.45570   0.39916   0.03258   0.00000  Uiso   1.00
C483   C     0.48868   0.25314   0.05070   0.00000  Uiso   1.00
H484   H     0.32672   0.05168   0.94241   0.00000  Uiso   1.00
H485   H     0.32586   0.13393   0.89219   0.00000  Uiso   1.00
H486   H     0.23599   0.06036   0.93573   0.00000  Uiso   1.00
H487   H     0.41417   0.91230   0.99565   0.00000  Uiso   1.00
H488   H     0.33139   0.30152   0.84229   0.00000  Uiso   1.00
H489   H     0.14190   0.14637   0.93412   0.00000  Uiso   1.00
H490   H     0.51764   0.83415   0.06046   0.00000  Uiso   1.00
H491   H     0.37691   0.64031   0.98706   0.00000  Uiso   1.00
H492   H     0.37880   0.75486   0.93928   0.00000  Uiso   1.00
H493   H     0.28893   0.68129   0.98283   0.00000  Uiso   1.00
H494   H     0.46711   0.53323   0.04274   0.00000  Uiso   1.00
H495   H     0.37436   0.80549   0.88051   0.00000  Uiso   1.00
H496   H     0.18487   0.65034   0.97234   0.00000  Uiso   1.00
H497   H     0.56060   0.33812   0.09868   0.00000  Uiso   1.00
O498   O     0.35320   0.61826   0.82916   0.00000  Uiso   1.00
O499   O     0.10460   0.41469   0.94965   0.00000  Uiso   1.00
O500   O     0.59755   0.00506   0.11540   0.00000  Uiso   1.00
N501   N     0.34126   0.40440   0.85784   0.00000  Uiso   1.00
N502   N     0.16409   0.25936   0.94370   0.00000  Uiso   1.00
N503   N     0.51536   0.96745   0.06182   0.00000  Uiso   1.00
N504   N     0.36438   0.67558   0.87841   0.00000  Uiso   1.00
N505   N     0.18721   0.53054   0.96426   0.00000  Uiso   1.00
N506   N     0.53848   0.23863   0.08239   0.00000  Uiso   1.00
C507   C     0.83506   0.80846   0.45162   0.00000  Uiso   1.00
C508   C     0.83861   0.93717   0.42958   0.00000  Uiso   1.00
C509   C     0.82894   0.89417   0.39965   0.00000  Uiso   1.00
C510   C     0.83430   0.03089   0.38322   0.00000  Uiso   1.00
C511   C     0.83758   0.20439   0.34700   0.00000  Uiso   1.00
C512   C     0.79401   0.89061   0.45574   0.00000  Uiso   1.00
C513   C     0.74685   0.80844   0.44782   0.00000  Uiso   1.00
C514   C     0.71466   0.90596   0.45342   0.00000  Uiso   1.00
C515   C     0.64872   0.00711   0.45784   0.00000  Uiso   1.00
C516   C     0.89085   0.81640   0.48602   0.00000  Uiso   1.00
C517   C     0.92510   0.67183   0.50356   0.00000  Uiso   1.00
C518   C     0.97444   0.70685   0.53467   0.00000  Uiso   1.00
C519   C     0.05885   0.69278   0.58610   0.00000  Uiso   1.00
C520   C     0.86176   0.12773   0.47567   0.00000  Uiso   1.00
C521   C     0.85311   0.11059   0.44264   0.00000  Uiso   1.00
C522   C     0.85849   0.24740   0.42625   0.00000  Uiso   1.00
C523   C     0.84883   0.20461   0.39631   0.00000  Uiso   1.00
C524   C     0.80851   0.06401   0.46880   0.00000  Uiso   1.00
C525   C     0.77639   0.16167   0.47442   0.00000  Uiso   1.00
C526   C     0.72919   0.07968   0.46651   0.00000  Uiso   1.00
C527   C     0.90535   0.98981   0.49908   0.00000  Uiso   1.00
C528   C     0.95464   0.02506   0.53017   0.00000  Uiso   1.00
C529   C     0.98897   0.88058   0.54775   0.00000  Uiso   1.00
H530   H     0.82377   0.67345   0.44145   0.00000  Uiso   1.00
H531   H     0.81771   0.75996   0.38955   0.00000  Uiso   1.00
H532   H     0.73564   0.67424   0.43771   0.00000  Uiso   1.00
H533   H     0.91386   0.53765   0.49345   0.00000  Uiso   1.00
H534   H     0.81738   0.93235   0.33776   0.00000  Uiso   1.00
H535   H     0.64433   0.75158   0.43932   0.00000  Uiso   1.00
H536   H     0.02015   0.46356   0.55685   0.00000  Uiso   1.00
H537   H     0.87305   0.26274   0.48584   0.00000  Uiso   1.00
H538   H     0.86971   0.38159   0.43637   0.00000  Uiso   1.00
H539   H     0.78763   0.29586   0.48453   0.00000  Uiso   1.00
H540   H     0.96585   0.15927   0.54027   0.00000  Uiso   1.00
H541   H     0.85958   0.43689   0.37576   0.00000  Uiso   1.00
H542   H     0.68653   0.25611   0.47732   0.00000  Uiso   1.00
H543   H     0.06235   0.96809   0.59485   0.00000  Uiso   1.00
O544   O     0.83538   0.25218   0.32341   0.00000  Uiso   1.00
O545   O     0.60834   0.01500   0.45666   0.00000  Uiso   1.00
O546   O     0.10141   0.63712   0.61086   0.00000  Uiso   1.00
N547   N     0.82778   0.03478   0.35349   0.00000  Uiso   1.00
N548   N     0.66599   0.86578   0.44845   0.00000  Uiso   1.00
N549   N     0.01734   0.59649   0.55833   0.00000  Uiso   1.00
N550   N     0.85049   0.30627   0.37394   0.00000  Uiso   1.00
N551   N     0.68869   0.13727   0.46889   0.00000  Uiso   1.00
N552   N     0.04004   0.86798   0.57878   0.00000  Uiso   1.00
C553   C     0.99565   0.50450   0.70308   0.00000  Uiso   1.00
C554   C     0.94689   0.63060   0.68175   0.00000  Uiso   1.00
C555   C     0.89579   0.58492   0.65265   0.00000  Uiso   1.00
C556   C     0.85663   0.71953   0.63678   0.00000  Uiso   1.00
C557   C     0.77916   0.88889   0.60171   0.00000  Uiso   1.00
C558   C     0.04313   0.58946   0.70547   0.00000  Uiso   1.00
C559   C     0.07294   0.50918   0.69631   0.00000  Uiso   1.00
C560   C     0.11480   0.60916   0.70042   0.00000  Uiso   1.00
C561   C     0.18677   0.71460   0.70219   0.00000  Uiso   1.00
C562   C     0.01157   0.51292   0.73818   0.00000  Uiso   1.00
C563   C     0.01486   0.36829   0.75653   0.00000  Uiso   1.00
C564   C     0.03017   0.40382   0.78818   0.00000  Uiso   1.00
C565   C     0.05314   0.39042   0.84074   0.00000  Uiso   1.00
C566   C     0.01700   0.82477   0.72667   0.00000  Uiso   1.00
C567   C     0.95849   0.80456   0.69457   0.00000  Uiso   1.00
C568   C     0.91940   0.93927   0.67875   0.00000  Uiso   1.00
C569   C     0.86824   0.89380   0.64962   0.00000  Uiso   1.00
C570   C     0.05472   0.76342   0.71828   0.00000  Uiso   1.00
C571   C     0.09655   0.86353   0.72241   0.00000  Uiso   1.00
C572   C     0.12642   0.78343   0.71325   0.00000  Uiso   1.00
C573   C     0.02316   0.68688   0.75100   0.00000  Uiso   1.00
C574   C     0.03847   0.72264   0.78263   0.00000  Uiso   1.00
C575   C     0.04178   0.57809   0.80102   0.00000  Uiso   1.00
H576   H     0.98663   0.36907   0.69311   0.00000  Uiso   1.00
H577   H     0.88683   0.45028   0.64274   0.00000  Uiso   1.00
H578   H     0.06396   0.37456   0.68640   0.00000  Uiso   1.00
H579   H     0.00589   0.23369   0.74660   0.00000  Uiso   1.00
H580   H     0.78130   0.61706   0.59254   0.00000  Uiso   1.00
H581   H     0.15481   0.45736   0.68461   0.00000  Uiso   1.00
H582   H     0.03235   0.16031   0.81157   0.00000  Uiso   1.00
H583   H     0.02602   0.96022   0.73665   0.00000  Uiso   1.00
H584   H     0.92838   0.07388   0.68867   0.00000  Uiso   1.00
H585   H     0.10551   0.99814   0.73233   0.00000  Uiso   1.00
H586   H     0.04744   0.85728   0.79253   0.00000  Uiso   1.00
H587   H     0.81503   0.12320   0.62981   0.00000  Uiso   1.00
H588   H     0.18853   0.96349   0.72189   0.00000  Uiso   1.00
H589   H     0.06607   0.66644   0.84885   0.00000  Uiso   1.00
O590   O     0.73323   0.93425   0.57882   0.00000  Uiso   1.00
O591   O     0.22326   0.72471   0.69962   0.00000  Uiso   1.00
O592   O     0.06259   0.33499   0.86619   0.00000  Uiso   1.00
N593   N     0.80264   0.72058   0.60790   0.00000  Uiso   1.00
N594   N     0.15184   0.57127   0.69398   0.00000  Uiso   1.00
N595   N     0.03736   0.29355   0.81267   0.00000  Uiso   1.00
N596   N     0.82078   0.99292   0.62796   0.00000  Uiso   1.00
N597   N     0.16998   0.84362   0.71403   0.00000  Uiso   1.00
N598   N     0.05551   0.56589   0.83273   0.00000  Uiso   1.00
C599   C     0.85839   0.49234   0.79706   0.00000  Uiso   1.00
C600   C     0.90588   0.62236   0.81877   0.00000  Uiso   1.00
C601   C     0.95665   0.58055   0.84848   0.00000  Uiso   1.00
C602   C     0.99460   0.71835   0.86461   0.00000  Uiso   1.00
C603   C     0.07023   0.89389   0.90032   0.00000  Uiso   1.00
C604   C     0.80929   0.57256   0.79341   0.00000  Uiso   1.00
C605   C     0.77883   0.48887   0.80180   0.00000  Uiso   1.00
C606   C     0.73546   0.58475   0.79659   0.00000  Uiso   1.00
C607   C     0.66109   0.68293   0.79291   0.00000  Uiso   1.00
C608   C     0.84432   0.50075   0.76242   0.00000  Uiso   1.00
C609   C     0.84330   0.35668   0.74475   0.00000  Uiso   1.00
C610   C     0.82941   0.39210   0.71344   0.00000  Uiso   1.00
C611   C     0.80943   0.37879   0.66165   0.00000  Uiso   1.00
C612   C     0.83550   0.81141   0.77287   0.00000  Uiso   1.00
C613   C     0.89345   0.79567   0.80563   0.00000  Uiso   1.00
C614   C     0.93133   0.93357   0.82171   0.00000  Uiso   1.00
C615   C     0.98215   0.89197   0.85145   0.00000  Uiso   1.00
C616   C     0.79685   0.74587   0.78027   0.00000  Uiso   1.00
C617   C     0.75351   0.84189   0.77504   0.00000  Uiso   1.00
C618   C     0.72300   0.75837   0.78342   0.00000  Uiso   1.00
C619   C     0.83188   0.67407   0.74928   0.00000  Uiso   1.00
C620   C     0.81798   0.70971   0.71799   0.00000  Uiso   1.00
C621   C     0.81695   0.56572   0.70027   0.00000  Uiso   1.00
H622   H     0.86807   0.35741   0.80729   0.00000  Uiso   1.00
H623   H     0.96626   0.44641   0.85864   0.00000  Uiso   1.00
H624   H     0.78846   0.35474   0.81197   0.00000  Uiso   1.00
H625   H     0.85293   0.22258   0.75493   0.00000  Uiso   1.00
H626   H     0.06963   0.62153   0.90979   0.00000  Uiso   1.00
H627   H     0.69472   0.42822   0.81137   0.00000  Uiso   1.00
H628   H     0.83066   0.14953   0.69108   0.00000  Uiso   1.00
H629   H     0.82582   0.94635   0.76263   0.00000  Uiso   1.00
H630   H     0.92170   0.06767   0.81154   0.00000  Uiso   1.00
H631   H     0.74390   0.97600   0.76487   0.00000  Uiso   1.00
H632   H     0.80836   0.84384   0.70782   0.00000  Uiso   1.00
H633   H     0.03346   0.12577   0.87156   0.00000  Uiso   1.00
H634   H     0.65855   0.93245   0.77313   0.00000  Uiso   1.00
H635   H     0.79449   0.65377   0.65285   0.00000  Uiso   1.00
O636   O     0.11537   0.94285   0.92365   0.00000  Uiso   1.00
O637   O     0.62350   0.68921   0.79452   0.00000  Uiso   1.00
O638   O     0.80185   0.32359   0.63671   0.00000  Uiso   1.00
N639   N     0.04797   0.72355   0.89408   0.00000  Uiso   1.00
N640   N     0.69746   0.54282   0.80206   0.00000  Uiso   1.00
N641   N     0.82453   0.28226   0.68960   0.00000  Uiso   1.00
N642   N     0.02850   0.99487   0.87350   0.00000  Uiso   1.00
N643   N     0.67799   0.81415   0.78149   0.00000  Uiso   1.00
N644   N     0.80507   0.55359   0.66903   0.00000  Uiso   1.00
C645   C     0.83822   0.68654   0.95264   0.00000  Uiso   1.00
C646   C     0.84472   0.81284   0.93154   0.00000  Uiso   1.00
C647   C     0.83729   0.76799   0.90235   0.00000  Uiso   1.00
C648   C     0.84517   0.90265   0.88673   0.00000  Uiso   1.00
C649   C     0.85298   0.07245   0.85197   0.00000  Uiso   1.00
C650   C     0.79588   0.77288   0.95520   0.00000  Uiso   1.00
C651   C     0.74740   0.69441   0.94590   0.00000  Uiso   1.00
C652   C     0.71417   0.79543   0.95020   0.00000  Uiso   1.00
C653   C     0.64619   0.90313   0.95218   0.00000  Uiso   1.00
C654   C     0.89270   0.69243   0.98775   0.00000  Uiso   1.00
C655   C     0.92561   0.54632   0.00582   0.00000  Uiso   1.00
C656   C     0.97389   0.57960   0.03753   0.00000  Uiso   1.00
C657   C     0.05622   0.56240   0.09006   0.00000  Uiso   1.00
C658   C     0.86541   0.00545   0.97683   0.00000  Uiso   1.00
C659   C     0.85949   0.98606   0.94468   0.00000  Uiso   1.00
C660   C     0.86737   0.12083   0.92911   0.00000  Uiso   1.00
C661   C     0.85996   0.07618   0.89989   0.00000  Uiso   1.00
C662   C     0.81065   0.94610   0.96834   0.00000  Uiso   1.00
C663   C     0.77749   0.04725   0.97266   0.00000  Uiso   1.00
C664   C     0.72897   0.96896   0.96336   0.00000  Uiso   1.00
C665   C     0.90747   0.86565   0.00089   0.00000  Uiso   1.00
C666   C     0.95570   0.89916   0.03258   0.00000  Uiso   1.00
C667   C     0.98868   0.75314   0.05070   0.00000  Uiso   1.00
H668   H     0.82672   0.55168   0.94241   0.00000  Uiso   1.00
H669   H     0.82586   0.63393   0.89219   0.00000  Uiso   1.00
H670   H     0.73599   0.56036   0.93573   0.00000  Uiso   1.00
H671   H     0.91417   0.41230   0.99565   0.00000  Uiso   1.00
H672   H     0.83139   0.80152   0.84229   0.00000  Uiso   1.00
H673   H     0.64190   0.64637   0.93412   0.00000  Uiso   1.00
H674   H     0.01764   0.33415   0.06046   0.00000  Uiso   1.00
H675   H     0.87691   0.14031   0.98706   0.00000  Uiso   1.00
H676   H     0.87880   0.25486   0.93928   0.00000  Uiso   1.00
H677   H     0.78893   0.18129   0.98283   0.00000  Uiso   1.00
H678   H     0.96711   0.03323   0.04274   0.00000  Uiso   1.00
H679   H     0.87436   0.30549   0.88051   0.00000  Uiso   1.00
H680   H     0.68487   0.15034   0.97234   0.00000  Uiso   1.00
H681   H     0.06060   0.83812   0.09868   0.00000  Uiso   1.00
O682   O     0.85320   0.11826   0.82916   0.00000  Uiso   1.00
O683   O     0.60460   0.91469   0.94965   0.00000  Uiso   1.00
O684   O     0.09755   0.50506   0.11540   0.00000  Uiso   1.00
N685   N     0.84126   0.90440   0.85784   0.00000  Uiso   1.00
N686   N     0.66409   0.75936   0.94370   0.00000  Uiso   1.00
N687   N     0.01536   0.46745   0.06182   0.00000  Uiso   1.00
N688   N     0.86438   0.17558   0.87841   0.00000  Uiso   1.00
N689   N     0.68721   0.03054   0.96426   0.00000  Uiso   1.00
N690   N     0.03848   0.73863   0.08239   0.00000  Uiso   1.00
C691   C     0.33506   0.30846   0.45162   0.00000  Uiso   1.00
C692   C     0.33861   0.43717   0.42958   0.00000  Uiso   1.00
C693   C     0.32894   0.39417   0.39965   0.00000  Uiso   1.00
C694   C     0.33430   0.53089   0.38322   0.00000  Uiso   1.00
C695   C     0.33758   0.70439   0.34700   0.00000  Uiso   1.00
C696   C     0.29401   0.39061   0.45574   0.00000  Uiso   1.00
C697   C     0.24685   0.30844   0.44782   0.00000  Uiso   1.00
C698   C     0.21466   0.40596   0.45342   0.00000  Uiso   1.00
C699   C     0.14872   0.50711   0.45784   0.00000  Uiso   1.00
C700   C     0.39085   0.31640   0.48602   0.00000  Uiso   1.00
C701   C     0.42510   0.17183   0.50356   0.00000  Uiso   1.00
C702   C     0.47444   0.20685   0.53467   0.00000  Uiso   1.00
C703   C     0.55885   0.19278   0.58610   0.00000  Uiso   1.00
C704   C     0.36176   0.62773   0.47567   0.00000  Uiso   1.00
C705   C     0.35311   0.61059   0.44264   0.00000  Uiso   1.00
C706   C     0.35849   0.74740   0.42625   0.00000  Uiso   1.00
C707   C     0.34883   0.70461   0.39631   0.00000  Uiso   1.00
C708   C     0.30851   0.56401   0.46880   0.00000  Uiso   1.00
C709   C     0.27639   0.66167   0.47442   0.00000  Uiso   1.00
C710   C     0.22919   0.57968   0.46651   0.00000  Uiso   1.00
C711   C     0.40535   0.48981   0.49908   0.00000  Uiso   1.00
C712   C     0.45464   0.52506   0.53017   0.00000  Uiso   1.00
C713   C     0.48897   0.38058   0.54775   0.00000  Uiso   1.00
H714   H     0.32377   0.17345   0.44145   0.00000  Uiso   1.00
H715   H     0.31771   0.25996   0.38955   0.00000  Uiso   1.00
H716   H     0.23564   0.17424   0.43771   0.00000  Uiso   1.00
H717   H     0.41386   0.03765   0.49345   0.00000  Uiso   1.00
H718   H     0.31738   0.43235   0.33776   0.00000  Uiso   1.00
H719   H     0.14433   0.25158   0.43932   0.00000  Uiso   1.00
H720   H     0.52015   0.96356   0.55685   0.00000  Uiso   1.00
H721   H     0.37305   0.76274   0.48584   0.00000  Uiso   1.00
H722   H     0.36971   0.88159   0.43637   0.00000  Uiso   1.00
H723   H     0.28763   0.79586   0.48453   0.00000  Uiso   1.00
H724   H     0.46585   0.65927   0.54027   0.00000  Uiso   1.00
H725   H     0.35958   0.93689   0.37576   0.00000  Uiso   1.00
H726   H     0.18653   0.75611   0.47732   0.00000  Uiso   1.00
H727   H     0.56235   0.46809   0.59485   0.00000  Uiso   1.00
O728   O     0.33538   0.75218   0.32341   0.00000  Uiso   1.00
O729   O     0.10834   0.51500   0.45666   0.00000  Uiso   1.00
O730   O     0.60141   0.13712   0.61086   0.00000  Uiso   1.00
N731   N     0.32778   0.53478   0.35349   0.00000  Uiso   1.00
N732   N     0.16599   0.36578   0.44845   0.00000  Uiso   1.00
N733   N     0.51734   0.09649   0.55833   0.00000  Uiso   1.00
N734   N     0.35049   0.80627   0.37394   0.00000  Uiso   1.00
N735   N     0.18869   0.63727   0.46889   0.00000  Uiso   1.00
N736   N     0.54004   0.36798   0.57878   0.00000  Uiso   1.00
