data_job_01242
_audit_creation_date              2018-12-19
_audit_creation_method            'Materials Studio'
_symmetry_space_group_name_H-M    'P1'
_symmetry_Int_Tables_number       1
_symmetry_cell_setting            triclinic
loop_
_symmetry_equiv_pos_as_xyz
  x,y,z
_cell_length_a                    16.5225
_cell_length_b                    16.5225
_cell_length_c                    31.7341
_cell_angle_alpha                 90.0000
_cell_angle_beta                  90.0000
_cell_angle_gamma                 90.0000
loop_
_atom_site_label
_atom_site_type_symbol
_atom_site_fract_x
_atom_site_fract_y
_atom_site_fract_z
_atom_site_U_iso_or_equiv
_atom_site_adp_type
_atom_site_occupancy
C1     C     0.87068   0.78384   0.83977   0.00000  Uiso   1.00
C2     C     0.81628   0.80719   0.80290   0.00000  Uiso   1.00
C3     C     0.74685   0.85421   0.80545   0.00000  Uiso   1.00
C4     C     0.70550   0.86872   0.76812   0.00000  Uiso   1.00
C5     C     0.61688   0.90973   0.71673   0.00000  Uiso   1.00
C6     C     0.87465   0.69163   0.83964   0.00000  Uiso   1.00
C7     C     0.85430   0.64149   0.87309   0.00000  Uiso   1.00
C8     C     0.86209   0.55872   0.86670   0.00000  Uiso   1.00
C9     C     0.86415   0.42032   0.87237   0.00000  Uiso   1.00
C10    C     0.95536   0.81306   0.82822   0.00000  Uiso   1.00
C11    C     0.00290   0.86500   0.85207   0.00000  Uiso   1.00
C12    C     0.07865   0.88445   0.83606   0.00000  Uiso   1.00
C13    C     0.20603   0.93458   0.82399   0.00000  Uiso   1.00
C14    C     0.92069   0.72601   0.76894   0.00000  Uiso   1.00
C15    C     0.84345   0.77578   0.76443   0.00000  Uiso   1.00
C16    C     0.80219   0.79023   0.72709   0.00000  Uiso   1.00
C17    C     0.73271   0.83726   0.72958   0.00000  Uiso   1.00
C18    C     0.90181   0.66022   0.80117   0.00000  Uiso   1.00
C19    C     0.90963   0.57751   0.79473   0.00000  Uiso   1.00
C20    C     0.88930   0.52725   0.82816   0.00000  Uiso   1.00
C21    C     0.98253   0.78165   0.78975   0.00000  Uiso   1.00
C22    C     0.05822   0.80102   0.77370   0.00000  Uiso   1.00
C23    C     0.10586   0.85298   0.79752   0.00000  Uiso   1.00
H24    H     0.84953   0.80829   0.86972   0.00000  Uiso   1.00
H25    H     0.72585   0.87850   0.83523   0.00000  Uiso   1.00
H26    H     0.83329   0.66581   0.90286   0.00000  Uiso   1.00
H27    H     0.98186   0.88929   0.88184   0.00000  Uiso   1.00
H28    H     0.60069   0.94247   0.78003   0.00000  Uiso   1.00
H29    H     0.82726   0.49401   0.92264   0.00000  Uiso   1.00
H30    H     0.14055   0.96525   0.87831   0.00000  Uiso   1.00
H31    H     0.94184   0.70156   0.73899   0.00000  Uiso   1.00
H32    H     0.82322   0.76592   0.69732   0.00000  Uiso   1.00
H33    H     0.93066   0.55323   0.76496   0.00000  Uiso   1.00
H34    H     0.07923   0.77670   0.74393   0.00000  Uiso   1.00
H35    H     0.67972   0.85108   0.66810   0.00000  Uiso   1.00
H36    H     0.90629   0.40262   0.81071   0.00000  Uiso   1.00
H37    H     0.21958   0.87387   0.76638   0.00000  Uiso   1.00
O38    O     0.56049   0.94101   0.69901   0.00000  Uiso   1.00
O39    O     0.85776   0.35266   0.88612   0.00000  Uiso   1.00
O40    O     0.26878   0.97092   0.82796   0.00000  Uiso   1.00
N41    N     0.63558   0.91214   0.75940   0.00000  Uiso   1.00
N42    N     0.84740   0.49286   0.89273   0.00000  Uiso   1.00
N43    N     0.14030   0.93341   0.85130   0.00000  Uiso   1.00
N44    N     0.67810   0.86297   0.69917   0.00000  Uiso   1.00
N45    N     0.88992   0.44369   0.83250   0.00000  Uiso   1.00
N46    N     0.18282   0.88424   0.79107   0.00000  Uiso   1.00
C47    C     0.37068   0.28384   0.33977   0.00000  Uiso   1.00
C48    C     0.31628   0.30719   0.30290   0.00000  Uiso   1.00
C49    C     0.24685   0.35421   0.30545   0.00000  Uiso   1.00
C50    C     0.20550   0.36872   0.26812   0.00000  Uiso   1.00
C51    C     0.11688   0.40973   0.21673   0.00000  Uiso   1.00
C52    C     0.37465   0.19163   0.33964   0.00000  Uiso   1.00
C53    C     0.35430   0.14149   0.37309   0.00000  Uiso   1.00
C54    C     0.36209   0.05872   0.36670   0.00000  Uiso   1.00
C55    C     0.36415   0.92032   0.37237   0.00000  Uiso   1.00
C56    C     0.45536   0.31306   0.32822   0.00000  Uiso   1.00
C57    C     0.50290   0.36500   0.35207   0.00000  Uiso   1.00
C58    C     0.57865   0.38445   0.33606   0.00000  Uiso   1.00
C59    C     0.70603   0.43458   0.32399   0.00000  Uiso   1.00
C60    C     0.42069   0.22601   0.26894   0.00000  Uiso   1.00
C61    C     0.34345   0.27578   0.26443   0.00000  Uiso   1.00
C62    C     0.30219   0.29023   0.22709   0.00000  Uiso   1.00
C63    C     0.23271   0.33726   0.22958   0.00000  Uiso   1.00
C64    C     0.40181   0.16022   0.30117   0.00000  Uiso   1.00
C65    C     0.40963   0.07751   0.29473   0.00000  Uiso   1.00
C66    C     0.38930   0.02725   0.32816   0.00000  Uiso   1.00
C67    C     0.48253   0.28165   0.28975   0.00000  Uiso   1.00
C68    C     0.55822   0.30102   0.27370   0.00000  Uiso   1.00
C69    C     0.60586   0.35298   0.29752   0.00000  Uiso   1.00
H70    H     0.34953   0.30829   0.36972   0.00000  Uiso   1.00
H71    H     0.22585   0.37850   0.33523   0.00000  Uiso   1.00
H72    H     0.33329   0.16581   0.40286   0.00000  Uiso   1.00
H73    H     0.48186   0.38929   0.38184   0.00000  Uiso   1.00
H74    H     0.10069   0.44247   0.28003   0.00000  Uiso   1.00
H75    H     0.32726   0.99401   0.42264   0.00000  Uiso   1.00
H76    H     0.64055   0.46525   0.37831   0.00000  Uiso   1.00
H77    H     0.44184   0.20156   0.23899   0.00000  Uiso   1.00
H78    H     0.32322   0.26592   0.19732   0.00000  Uiso   1.00
H79    H     0.43066   0.05323   0.26496   0.00000  Uiso   1.00
H80    H     0.57923   0.27670   0.24393   0.00000  Uiso   1.00
H81    H     0.17972   0.35108   0.16810   0.00000  Uiso   1.00
H82    H     0.40629   0.90262   0.31071   0.00000  Uiso   1.00
H83    H     0.71958   0.37387   0.26638   0.00000  Uiso   1.00
O84    O     0.06049   0.44101   0.19901   0.00000  Uiso   1.00
O85    O     0.35776   0.85266   0.38612   0.00000  Uiso   1.00
O86    O     0.76878   0.47092   0.32796   0.00000  Uiso   1.00
N87    N     0.13558   0.41214   0.25940   0.00000  Uiso   1.00
N88    N     0.34740   0.99286   0.39273   0.00000  Uiso   1.00
N89    N     0.64030   0.43341   0.35130   0.00000  Uiso   1.00
N90    N     0.17810   0.36297   0.19917   0.00000  Uiso   1.00
N91    N     0.38992   0.94369   0.33250   0.00000  Uiso   1.00
N92    N     0.68282   0.38424   0.29107   0.00000  Uiso   1.00
C93    C     0.12932   0.21616   0.83977   0.00000  Uiso   1.00
C94    C     0.18372   0.19281   0.80290   0.00000  Uiso   1.00
C95    C     0.25315   0.14579   0.80545   0.00000  Uiso   1.00
C96    C     0.29450   0.13128   0.76812   0.00000  Uiso   1.00
C97    C     0.38312   0.09027   0.71673   0.00000  Uiso   1.00
C98    C     0.12535   0.30837   0.83964   0.00000  Uiso   1.00
C99    C     0.14570   0.35851   0.87309   0.00000  Uiso   1.00
C100   C     0.13791   0.44128   0.86670   0.00000  Uiso   1.00
C101   C     0.13585   0.57968   0.87237   0.00000  Uiso   1.00
C102   C     0.04464   0.18694   0.82822   0.00000  Uiso   1.00
C103   C     0.99710   0.13500   0.85207   0.00000  Uiso   1.00
C104   C     0.92135   0.11555   0.83606   0.00000  Uiso   1.00
C105   C     0.79397   0.06542   0.82399   0.00000  Uiso   1.00
C106   C     0.07931   0.27399   0.76894   0.00000  Uiso   1.00
C107   C     0.15655   0.22422   0.76443   0.00000  Uiso   1.00
C108   C     0.19781   0.20977   0.72709   0.00000  Uiso   1.00
C109   C     0.26729   0.16274   0.72958   0.00000  Uiso   1.00
C110   C     0.09819   0.33978   0.80117   0.00000  Uiso   1.00
C111   C     0.09037   0.42249   0.79473   0.00000  Uiso   1.00
C112   C     0.11070   0.47275   0.82816   0.00000  Uiso   1.00
C113   C     0.01747   0.21835   0.78975   0.00000  Uiso   1.00
C114   C     0.94178   0.19898   0.77370   0.00000  Uiso   1.00
C115   C     0.89414   0.14702   0.79752   0.00000  Uiso   1.00
H116   H     0.15047   0.19171   0.86972   0.00000  Uiso   1.00
H117   H     0.27415   0.12150   0.83523   0.00000  Uiso   1.00
H118   H     0.16671   0.33419   0.90286   0.00000  Uiso   1.00
H119   H     0.01814   0.11071   0.88184   0.00000  Uiso   1.00
H120   H     0.39931   0.05753   0.78003   0.00000  Uiso   1.00
H121   H     0.17274   0.50599   0.92264   0.00000  Uiso   1.00
H122   H     0.85945   0.03475   0.87831   0.00000  Uiso   1.00
H123   H     0.05816   0.29844   0.73899   0.00000  Uiso   1.00
H124   H     0.17678   0.23408   0.69732   0.00000  Uiso   1.00
H125   H     0.06934   0.44677   0.76496   0.00000  Uiso   1.00
H126   H     0.92077   0.22330   0.74393   0.00000  Uiso   1.00
H127   H     0.32028   0.14892   0.66810   0.00000  Uiso   1.00
H128   H     0.09371   0.59738   0.81071   0.00000  Uiso   1.00
H129   H     0.78042   0.12613   0.76638   0.00000  Uiso   1.00
O130   O     0.43951   0.05899   0.69901   0.00000  Uiso   1.00
O131   O     0.14224   0.64734   0.88612   0.00000  Uiso   1.00
O132   O     0.73122   0.02908   0.82796   0.00000  Uiso   1.00
N133   N     0.36442   0.08786   0.75940   0.00000  Uiso   1.00
N134   N     0.15260   0.50714   0.89273   0.00000  Uiso   1.00
N135   N     0.85970   0.06659   0.85130   0.00000  Uiso   1.00
N136   N     0.32190   0.13703   0.69917   0.00000  Uiso   1.00
N137   N     0.11008   0.55631   0.83250   0.00000  Uiso   1.00
N138   N     0.81718   0.11576   0.79107   0.00000  Uiso   1.00
C139   C     0.62932   0.71616   0.33977   0.00000  Uiso   1.00
C140   C     0.68372   0.69281   0.30290   0.00000  Uiso   1.00
C141   C     0.75315   0.64579   0.30545   0.00000  Uiso   1.00
C142   C     0.79450   0.63128   0.26812   0.00000  Uiso   1.00
C143   C     0.88312   0.59027   0.21673   0.00000  Uiso   1.00
C144   C     0.62535   0.80837   0.33964   0.00000  Uiso   1.00
C145   C     0.64570   0.85851   0.37309   0.00000  Uiso   1.00
C146   C     0.63791   0.94128   0.36670   0.00000  Uiso   1.00
C147   C     0.63585   0.07968   0.37237   0.00000  Uiso   1.00
C148   C     0.54464   0.68694   0.32822   0.00000  Uiso   1.00
C149   C     0.49710   0.63500   0.35207   0.00000  Uiso   1.00
C150   C     0.42135   0.61555   0.33606   0.00000  Uiso   1.00
C151   C     0.29397   0.56542   0.32399   0.00000  Uiso   1.00
C152   C     0.57931   0.77399   0.26894   0.00000  Uiso   1.00
C153   C     0.65655   0.72422   0.26443   0.00000  Uiso   1.00
C154   C     0.69781   0.70977   0.22709   0.00000  Uiso   1.00
C155   C     0.76729   0.66274   0.22958   0.00000  Uiso   1.00
C156   C     0.59819   0.83978   0.30117   0.00000  Uiso   1.00
C157   C     0.59037   0.92249   0.29473   0.00000  Uiso   1.00
C158   C     0.61070   0.97275   0.32816   0.00000  Uiso   1.00
C159   C     0.51747   0.71835   0.28975   0.00000  Uiso   1.00
C160   C     0.44178   0.69898   0.27370   0.00000  Uiso   1.00
C161   C     0.39414   0.64702   0.29752   0.00000  Uiso   1.00
H162   H     0.65047   0.69171   0.36972   0.00000  Uiso   1.00
H163   H     0.77415   0.62150   0.33523   0.00000  Uiso   1.00
H164   H     0.66671   0.83419   0.40286   0.00000  Uiso   1.00
H165   H     0.51814   0.61071   0.38184   0.00000  Uiso   1.00
H166   H     0.89931   0.55753   0.28003   0.00000  Uiso   1.00
H167   H     0.67274   0.00599   0.42264   0.00000  Uiso   1.00
H168   H     0.35945   0.53475   0.37831   0.00000  Uiso   1.00
H169   H     0.55816   0.79844   0.23899   0.00000  Uiso   1.00
H170   H     0.67678   0.73408   0.19732   0.00000  Uiso   1.00
H171   H     0.56934   0.94677   0.26496   0.00000  Uiso   1.00
H172   H     0.42077   0.72330   0.24393   0.00000  Uiso   1.00
H173   H     0.82028   0.64892   0.16810   0.00000  Uiso   1.00
H174   H     0.59371   0.09738   0.31071   0.00000  Uiso   1.00
H175   H     0.28042   0.62613   0.26638   0.00000  Uiso   1.00
O176   O     0.93951   0.55899   0.19901   0.00000  Uiso   1.00
O177   O     0.64224   0.14734   0.38612   0.00000  Uiso   1.00
O178   O     0.23122   0.52908   0.32796   0.00000  Uiso   1.00
N179   N     0.86442   0.58786   0.25940   0.00000  Uiso   1.00
N180   N     0.65260   0.00714   0.39273   0.00000  Uiso   1.00
N181   N     0.35970   0.56659   0.35130   0.00000  Uiso   1.00
N182   N     0.82190   0.63703   0.19917   0.00000  Uiso   1.00
N183   N     0.61008   0.05631   0.33250   0.00000  Uiso   1.00
N184   N     0.31718   0.61576   0.29107   0.00000  Uiso   1.00
C185   C     0.78384   0.12932   0.16023   0.00000  Uiso   1.00
C186   C     0.80719   0.18372   0.19710   0.00000  Uiso   1.00
C187   C     0.85421   0.25315   0.19455   0.00000  Uiso   1.00
C188   C     0.86872   0.29450   0.23188   0.00000  Uiso   1.00
C189   C     0.90973   0.38312   0.28327   0.00000  Uiso   1.00
C190   C     0.69163   0.12535   0.16036   0.00000  Uiso   1.00
C191   C     0.64149   0.14570   0.12691   0.00000  Uiso   1.00
C192   C     0.55872   0.13791   0.13330   0.00000  Uiso   1.00
C193   C     0.42032   0.13585   0.12763   0.00000  Uiso   1.00
C194   C     0.81306   0.04464   0.17178   0.00000  Uiso   1.00
C195   C     0.86500   0.99710   0.14793   0.00000  Uiso   1.00
C196   C     0.88445   0.92135   0.16394   0.00000  Uiso   1.00
C197   C     0.93458   0.79397   0.17601   0.00000  Uiso   1.00
C198   C     0.72601   0.07931   0.23106   0.00000  Uiso   1.00
C199   C     0.77578   0.15655   0.23557   0.00000  Uiso   1.00
C200   C     0.79023   0.19781   0.27291   0.00000  Uiso   1.00
C201   C     0.83726   0.26729   0.27042   0.00000  Uiso   1.00
C202   C     0.66022   0.09819   0.19883   0.00000  Uiso   1.00
C203   C     0.57751   0.09037   0.20527   0.00000  Uiso   1.00
C204   C     0.52725   0.11070   0.17184   0.00000  Uiso   1.00
C205   C     0.78165   0.01747   0.21025   0.00000  Uiso   1.00
C206   C     0.80102   0.94178   0.22630   0.00000  Uiso   1.00
C207   C     0.85298   0.89414   0.20248   0.00000  Uiso   1.00
H208   H     0.80829   0.15047   0.13028   0.00000  Uiso   1.00
H209   H     0.87850   0.27415   0.16477   0.00000  Uiso   1.00
H210   H     0.66581   0.16671   0.09714   0.00000  Uiso   1.00
H211   H     0.88929   0.01814   0.11816   0.00000  Uiso   1.00
H212   H     0.94247   0.39931   0.21997   0.00000  Uiso   1.00
H213   H     0.49401   0.17274   0.07736   0.00000  Uiso   1.00
H214   H     0.96525   0.85945   0.12169   0.00000  Uiso   1.00
H215   H     0.70156   0.05816   0.26101   0.00000  Uiso   1.00
H216   H     0.76592   0.17678   0.30268   0.00000  Uiso   1.00
H217   H     0.55323   0.06934   0.23504   0.00000  Uiso   1.00
H218   H     0.77670   0.92077   0.25607   0.00000  Uiso   1.00
H219   H     0.85108   0.32028   0.33190   0.00000  Uiso   1.00
H220   H     0.40262   0.09371   0.18929   0.00000  Uiso   1.00
H221   H     0.87387   0.78042   0.23362   0.00000  Uiso   1.00
O222   O     0.94101   0.43951   0.30099   0.00000  Uiso   1.00
O223   O     0.35266   0.14224   0.11388   0.00000  Uiso   1.00
O224   O     0.97092   0.73122   0.17204   0.00000  Uiso   1.00
N225   N     0.91214   0.36442   0.24060   0.00000  Uiso   1.00
N226   N     0.49286   0.15260   0.10727   0.00000  Uiso   1.00
N227   N     0.93341   0.85970   0.14870   0.00000  Uiso   1.00
N228   N     0.86297   0.32190   0.30083   0.00000  Uiso   1.00
N229   N     0.44369   0.11008   0.16750   0.00000  Uiso   1.00
N230   N     0.88424   0.81718   0.20893   0.00000  Uiso   1.00
C231   C     0.28384   0.62932   0.66023   0.00000  Uiso   1.00
C232   C     0.30719   0.68372   0.69710   0.00000  Uiso   1.00
C233   C     0.35421   0.75315   0.69455   0.00000  Uiso   1.00
C234   C     0.36872   0.79450   0.73188   0.00000  Uiso   1.00
C235   C     0.40973   0.88312   0.78327   0.00000  Uiso   1.00
C236   C     0.19163   0.62535   0.66036   0.00000  Uiso   1.00
C237   C     0.14149   0.64570   0.62691   0.00000  Uiso   1.00
C238   C     0.05872   0.63791   0.63330   0.00000  Uiso   1.00
C239   C     0.92032   0.63585   0.62763   0.00000  Uiso   1.00
C240   C     0.31306   0.54464   0.67178   0.00000  Uiso   1.00
C241   C     0.36500   0.49710   0.64793   0.00000  Uiso   1.00
C242   C     0.38445   0.42135   0.66394   0.00000  Uiso   1.00
C243   C     0.43458   0.29397   0.67601   0.00000  Uiso   1.00
C244   C     0.22601   0.57931   0.73106   0.00000  Uiso   1.00
C245   C     0.27578   0.65655   0.73557   0.00000  Uiso   1.00
C246   C     0.29023   0.69781   0.77291   0.00000  Uiso   1.00
C247   C     0.33726   0.76729   0.77042   0.00000  Uiso   1.00
C248   C     0.16022   0.59819   0.69883   0.00000  Uiso   1.00
C249   C     0.07751   0.59037   0.70527   0.00000  Uiso   1.00
C250   C     0.02725   0.61070   0.67184   0.00000  Uiso   1.00
C251   C     0.28165   0.51747   0.71025   0.00000  Uiso   1.00
C252   C     0.30102   0.44178   0.72630   0.00000  Uiso   1.00
C253   C     0.35298   0.39414   0.70248   0.00000  Uiso   1.00
H254   H     0.30829   0.65047   0.63028   0.00000  Uiso   1.00
H255   H     0.37850   0.77415   0.66477   0.00000  Uiso   1.00
H256   H     0.16581   0.66671   0.59714   0.00000  Uiso   1.00
H257   H     0.38929   0.51814   0.61816   0.00000  Uiso   1.00
H258   H     0.44247   0.89931   0.71997   0.00000  Uiso   1.00
H259   H     0.99401   0.67274   0.57736   0.00000  Uiso   1.00
H260   H     0.46525   0.35945   0.62169   0.00000  Uiso   1.00
H261   H     0.20156   0.55816   0.76101   0.00000  Uiso   1.00
H262   H     0.26592   0.67678   0.80268   0.00000  Uiso   1.00
H263   H     0.05323   0.56934   0.73504   0.00000  Uiso   1.00
H264   H     0.27670   0.42077   0.75607   0.00000  Uiso   1.00
H265   H     0.35108   0.82028   0.83190   0.00000  Uiso   1.00
H266   H     0.90262   0.59371   0.68929   0.00000  Uiso   1.00
H267   H     0.37387   0.28042   0.73362   0.00000  Uiso   1.00
O268   O     0.44101   0.93951   0.80099   0.00000  Uiso   1.00
O269   O     0.85266   0.64224   0.61388   0.00000  Uiso   1.00
O270   O     0.47092   0.23122   0.67204   0.00000  Uiso   1.00
N271   N     0.41214   0.86442   0.74060   0.00000  Uiso   1.00
N272   N     0.99286   0.65260   0.60727   0.00000  Uiso   1.00
N273   N     0.43341   0.35970   0.64870   0.00000  Uiso   1.00
N274   N     0.36297   0.82190   0.80083   0.00000  Uiso   1.00
N275   N     0.94369   0.61008   0.66750   0.00000  Uiso   1.00
N276   N     0.38424   0.31718   0.70893   0.00000  Uiso   1.00
C277   C     0.21616   0.87068   0.16023   0.00000  Uiso   1.00
C278   C     0.19281   0.81628   0.19710   0.00000  Uiso   1.00
C279   C     0.14579   0.74685   0.19455   0.00000  Uiso   1.00
C280   C     0.13128   0.70550   0.23188   0.00000  Uiso   1.00
C281   C     0.09027   0.61688   0.28327   0.00000  Uiso   1.00
C282   C     0.30837   0.87465   0.16036   0.00000  Uiso   1.00
C283   C     0.35851   0.85430   0.12691   0.00000  Uiso   1.00
C284   C     0.44128   0.86209   0.13330   0.00000  Uiso   1.00
C285   C     0.57968   0.86415   0.12763   0.00000  Uiso   1.00
C286   C     0.18694   0.95536   0.17178   0.00000  Uiso   1.00
C287   C     0.13500   0.00290   0.14793   0.00000  Uiso   1.00
C288   C     0.11555   0.07865   0.16394   0.00000  Uiso   1.00
C289   C     0.06542   0.20603   0.17601   0.00000  Uiso   1.00
C290   C     0.27399   0.92069   0.23106   0.00000  Uiso   1.00
C291   C     0.22422   0.84345   0.23557   0.00000  Uiso   1.00
C292   C     0.20977   0.80219   0.27291   0.00000  Uiso   1.00
C293   C     0.16274   0.73271   0.27042   0.00000  Uiso   1.00
C294   C     0.33978   0.90181   0.19883   0.00000  Uiso   1.00
C295   C     0.42249   0.90963   0.20527   0.00000  Uiso   1.00
C296   C     0.47275   0.88930   0.17184   0.00000  Uiso   1.00
C297   C     0.21835   0.98253   0.21025   0.00000  Uiso   1.00
C298   C     0.19898   0.05822   0.22630   0.00000  Uiso   1.00
C299   C     0.14702   0.10586   0.20248   0.00000  Uiso   1.00
H300   H     0.19171   0.84953   0.13028   0.00000  Uiso   1.00
H301   H     0.12150   0.72585   0.16477   0.00000  Uiso   1.00
H302   H     0.33419   0.83329   0.09714   0.00000  Uiso   1.00
H303   H     0.11071   0.98186   0.11816   0.00000  Uiso   1.00
H304   H     0.05753   0.60069   0.21997   0.00000  Uiso   1.00
H305   H     0.50599   0.82726   0.07736   0.00000  Uiso   1.00
H306   H     0.03475   0.14055   0.12169   0.00000  Uiso   1.00
H307   H     0.29844   0.94184   0.26101   0.00000  Uiso   1.00
H308   H     0.23408   0.82322   0.30268   0.00000  Uiso   1.00
H309   H     0.44677   0.93066   0.23504   0.00000  Uiso   1.00
H310   H     0.22330   0.07923   0.25607   0.00000  Uiso   1.00
H311   H     0.14892   0.67972   0.33190   0.00000  Uiso   1.00
H312   H     0.59738   0.90629   0.18929   0.00000  Uiso   1.00
H313   H     0.12613   0.21958   0.23362   0.00000  Uiso   1.00
O314   O     0.05899   0.56049   0.30099   0.00000  Uiso   1.00
O315   O     0.64734   0.85776   0.11388   0.00000  Uiso   1.00
O316   O     0.02908   0.26878   0.17204   0.00000  Uiso   1.00
N317   N     0.08786   0.63558   0.24060   0.00000  Uiso   1.00
N318   N     0.50714   0.84740   0.10727   0.00000  Uiso   1.00
N319   N     0.06659   0.14030   0.14870   0.00000  Uiso   1.00
N320   N     0.13703   0.67810   0.30083   0.00000  Uiso   1.00
N321   N     0.55631   0.88992   0.16750   0.00000  Uiso   1.00
N322   N     0.11576   0.18282   0.20893   0.00000  Uiso   1.00
C323   C     0.71616   0.37068   0.66023   0.00000  Uiso   1.00
C324   C     0.69281   0.31628   0.69710   0.00000  Uiso   1.00
C325   C     0.64579   0.24685   0.69455   0.00000  Uiso   1.00
C326   C     0.63128   0.20550   0.73188   0.00000  Uiso   1.00
C327   C     0.59027   0.11688   0.78327   0.00000  Uiso   1.00
C328   C     0.80837   0.37465   0.66036   0.00000  Uiso   1.00
C329   C     0.85851   0.35430   0.62691   0.00000  Uiso   1.00
C330   C     0.94128   0.36209   0.63330   0.00000  Uiso   1.00
C331   C     0.07968   0.36415   0.62763   0.00000  Uiso   1.00
C332   C     0.68694   0.45536   0.67178   0.00000  Uiso   1.00
C333   C     0.63500   0.50290   0.64793   0.00000  Uiso   1.00
C334   C     0.61555   0.57865   0.66394   0.00000  Uiso   1.00
C335   C     0.56542   0.70603   0.67601   0.00000  Uiso   1.00
C336   C     0.77399   0.42069   0.73106   0.00000  Uiso   1.00
C337   C     0.72422   0.34345   0.73557   0.00000  Uiso   1.00
C338   C     0.70977   0.30219   0.77291   0.00000  Uiso   1.00
C339   C     0.66274   0.23271   0.77042   0.00000  Uiso   1.00
C340   C     0.83978   0.40181   0.69883   0.00000  Uiso   1.00
C341   C     0.92249   0.40963   0.70527   0.00000  Uiso   1.00
C342   C     0.97275   0.38930   0.67184   0.00000  Uiso   1.00
C343   C     0.71835   0.48253   0.71025   0.00000  Uiso   1.00
C344   C     0.69898   0.55822   0.72630   0.00000  Uiso   1.00
C345   C     0.64702   0.60586   0.70248   0.00000  Uiso   1.00
H346   H     0.69171   0.34953   0.63028   0.00000  Uiso   1.00
H347   H     0.62150   0.22585   0.66477   0.00000  Uiso   1.00
H348   H     0.83419   0.33329   0.59714   0.00000  Uiso   1.00
H349   H     0.61071   0.48186   0.61816   0.00000  Uiso   1.00
H350   H     0.55753   0.10069   0.71997   0.00000  Uiso   1.00
H351   H     0.00599   0.32726   0.57736   0.00000  Uiso   1.00
H352   H     0.53475   0.64055   0.62169   0.00000  Uiso   1.00
H353   H     0.79844   0.44184   0.76101   0.00000  Uiso   1.00
H354   H     0.73408   0.32322   0.80268   0.00000  Uiso   1.00
H355   H     0.94677   0.43066   0.73504   0.00000  Uiso   1.00
H356   H     0.72330   0.57923   0.75607   0.00000  Uiso   1.00
H357   H     0.64892   0.17972   0.83190   0.00000  Uiso   1.00
H358   H     0.09738   0.40629   0.68929   0.00000  Uiso   1.00
H359   H     0.62613   0.71958   0.73362   0.00000  Uiso   1.00
O360   O     0.55899   0.06049   0.80099   0.00000  Uiso   1.00
O361   O     0.14734   0.35776   0.61388   0.00000  Uiso   1.00
O362   O     0.52908   0.76878   0.67204   0.00000  Uiso   1.00
N363   N     0.58786   0.13558   0.74060   0.00000  Uiso   1.00
N364   N     0.00714   0.34740   0.60727   0.00000  Uiso   1.00
N365   N     0.56659   0.64030   0.64870   0.00000  Uiso   1.00
N366   N     0.63703   0.17810   0.80083   0.00000  Uiso   1.00
N367   N     0.05631   0.38992   0.66750   0.00000  Uiso   1.00
N368   N     0.61576   0.68282   0.70893   0.00000  Uiso   1.00
C369   C     0.62932   0.78384   0.91023   0.00000  Uiso   1.00
C370   C     0.68372   0.80719   0.94710   0.00000  Uiso   1.00
C371   C     0.75315   0.85421   0.94455   0.00000  Uiso   1.00
C372   C     0.79450   0.86872   0.98188   0.00000  Uiso   1.00
C373   C     0.88312   0.90973   0.03327   0.00000  Uiso   1.00
C374   C     0.62535   0.69163   0.91036   0.00000  Uiso   1.00
C375   C     0.64570   0.64149   0.87691   0.00000  Uiso   1.00
C376   C     0.63791   0.55872   0.88330   0.00000  Uiso   1.00
C377   C     0.63585   0.42032   0.87763   0.00000  Uiso   1.00
C378   C     0.54464   0.81306   0.92178   0.00000  Uiso   1.00
C379   C     0.49710   0.86500   0.89793   0.00000  Uiso   1.00
C380   C     0.42135   0.88445   0.91394   0.00000  Uiso   1.00
C381   C     0.29397   0.93458   0.92601   0.00000  Uiso   1.00
C382   C     0.57931   0.72601   0.98106   0.00000  Uiso   1.00
C383   C     0.65655   0.77578   0.98557   0.00000  Uiso   1.00
C384   C     0.69781   0.79023   0.02291   0.00000  Uiso   1.00
C385   C     0.76729   0.83726   0.02042   0.00000  Uiso   1.00
C386   C     0.59819   0.66022   0.94883   0.00000  Uiso   1.00
C387   C     0.59037   0.57751   0.95527   0.00000  Uiso   1.00
C388   C     0.61070   0.52725   0.92184   0.00000  Uiso   1.00
C389   C     0.51747   0.78165   0.96025   0.00000  Uiso   1.00
C390   C     0.44178   0.80102   0.97630   0.00000  Uiso   1.00
C391   C     0.39414   0.85298   0.95248   0.00000  Uiso   1.00
H392   H     0.65047   0.80829   0.88028   0.00000  Uiso   1.00
H393   H     0.77415   0.87850   0.91477   0.00000  Uiso   1.00
H394   H     0.66671   0.66581   0.84714   0.00000  Uiso   1.00
H395   H     0.51814   0.88929   0.86816   0.00000  Uiso   1.00
H396   H     0.89931   0.94247   0.96997   0.00000  Uiso   1.00
H397   H     0.67274   0.49401   0.82736   0.00000  Uiso   1.00
H398   H     0.35945   0.96525   0.87169   0.00000  Uiso   1.00
H399   H     0.55816   0.70156   0.01101   0.00000  Uiso   1.00
H400   H     0.67678   0.76592   0.05268   0.00000  Uiso   1.00
H401   H     0.56934   0.55323   0.98504   0.00000  Uiso   1.00
H402   H     0.42077   0.77670   0.00607   0.00000  Uiso   1.00
H403   H     0.82028   0.85108   0.08190   0.00000  Uiso   1.00
H404   H     0.59371   0.40262   0.93929   0.00000  Uiso   1.00
H405   H     0.28042   0.87387   0.98362   0.00000  Uiso   1.00
O406   O     0.93951   0.94101   0.05099   0.00000  Uiso   1.00
O407   O     0.64224   0.35266   0.86388   0.00000  Uiso   1.00
O408   O     0.23122   0.97092   0.92204   0.00000  Uiso   1.00
N409   N     0.86442   0.91214   0.99060   0.00000  Uiso   1.00
N410   N     0.65260   0.49286   0.85727   0.00000  Uiso   1.00
N411   N     0.35970   0.93341   0.89870   0.00000  Uiso   1.00
N412   N     0.82190   0.86297   0.05083   0.00000  Uiso   1.00
N413   N     0.61008   0.44369   0.91750   0.00000  Uiso   1.00
N414   N     0.31718   0.88424   0.95893   0.00000  Uiso   1.00
C415   C     0.12932   0.28384   0.41023   0.00000  Uiso   1.00
C416   C     0.18372   0.30719   0.44710   0.00000  Uiso   1.00
C417   C     0.25315   0.35421   0.44455   0.00000  Uiso   1.00
C418   C     0.29450   0.36872   0.48188   0.00000  Uiso   1.00
C419   C     0.38312   0.40973   0.53327   0.00000  Uiso   1.00
C420   C     0.12535   0.19163   0.41036   0.00000  Uiso   1.00
C421   C     0.14570   0.14149   0.37691   0.00000  Uiso   1.00
C422   C     0.13791   0.05872   0.38330   0.00000  Uiso   1.00
C423   C     0.13585   0.92032   0.37763   0.00000  Uiso   1.00
C424   C     0.04464   0.31306   0.42178   0.00000  Uiso   1.00
C425   C     0.99710   0.36500   0.39793   0.00000  Uiso   1.00
C426   C     0.92135   0.38445   0.41394   0.00000  Uiso   1.00
C427   C     0.79397   0.43458   0.42601   0.00000  Uiso   1.00
C428   C     0.07931   0.22601   0.48106   0.00000  Uiso   1.00
C429   C     0.15655   0.27578   0.48557   0.00000  Uiso   1.00
C430   C     0.19781   0.29023   0.52291   0.00000  Uiso   1.00
C431   C     0.26729   0.33726   0.52042   0.00000  Uiso   1.00
C432   C     0.09819   0.16022   0.44883   0.00000  Uiso   1.00
C433   C     0.09037   0.07751   0.45527   0.00000  Uiso   1.00
C434   C     0.11070   0.02725   0.42184   0.00000  Uiso   1.00
C435   C     0.01747   0.28165   0.46025   0.00000  Uiso   1.00
C436   C     0.94178   0.30102   0.47630   0.00000  Uiso   1.00
C437   C     0.89414   0.35298   0.45248   0.00000  Uiso   1.00
H438   H     0.15047   0.30829   0.38028   0.00000  Uiso   1.00
H439   H     0.27415   0.37850   0.41477   0.00000  Uiso   1.00
H440   H     0.16671   0.16581   0.34714   0.00000  Uiso   1.00
H441   H     0.01814   0.38929   0.36816   0.00000  Uiso   1.00
H442   H     0.39931   0.44247   0.46997   0.00000  Uiso   1.00
H443   H     0.17274   0.99401   0.32736   0.00000  Uiso   1.00
H444   H     0.85945   0.46525   0.37169   0.00000  Uiso   1.00
H445   H     0.05816   0.20156   0.51101   0.00000  Uiso   1.00
H446   H     0.17678   0.26592   0.55268   0.00000  Uiso   1.00
H447   H     0.06934   0.05323   0.48504   0.00000  Uiso   1.00
H448   H     0.92077   0.27670   0.50607   0.00000  Uiso   1.00
H449   H     0.32028   0.35108   0.58190   0.00000  Uiso   1.00
H450   H     0.09371   0.90262   0.43929   0.00000  Uiso   1.00
H451   H     0.78042   0.37387   0.48362   0.00000  Uiso   1.00
O452   O     0.43951   0.44101   0.55099   0.00000  Uiso   1.00
O453   O     0.14224   0.85266   0.36388   0.00000  Uiso   1.00
O454   O     0.73122   0.47092   0.42204   0.00000  Uiso   1.00
N455   N     0.36442   0.41214   0.49060   0.00000  Uiso   1.00
N456   N     0.15260   0.99286   0.35727   0.00000  Uiso   1.00
N457   N     0.85970   0.43341   0.39870   0.00000  Uiso   1.00
N458   N     0.32190   0.36297   0.55083   0.00000  Uiso   1.00
N459   N     0.11008   0.94369   0.41750   0.00000  Uiso   1.00
N460   N     0.81718   0.38424   0.45893   0.00000  Uiso   1.00
C461   C     0.37068   0.21616   0.91023   0.00000  Uiso   1.00
C462   C     0.31628   0.19281   0.94710   0.00000  Uiso   1.00
C463   C     0.24685   0.14579   0.94455   0.00000  Uiso   1.00
C464   C     0.20550   0.13128   0.98188   0.00000  Uiso   1.00
C465   C     0.11688   0.09027   0.03327   0.00000  Uiso   1.00
C466   C     0.37465   0.30837   0.91036   0.00000  Uiso   1.00
C467   C     0.35430   0.35851   0.87691   0.00000  Uiso   1.00
C468   C     0.36209   0.44128   0.88330   0.00000  Uiso   1.00
C469   C     0.36415   0.57968   0.87763   0.00000  Uiso   1.00
C470   C     0.45536   0.18694   0.92178   0.00000  Uiso   1.00
C471   C     0.50290   0.13500   0.89793   0.00000  Uiso   1.00
C472   C     0.57865   0.11555   0.91394   0.00000  Uiso   1.00
C473   C     0.70603   0.06542   0.92601   0.00000  Uiso   1.00
C474   C     0.42069   0.27399   0.98106   0.00000  Uiso   1.00
C475   C     0.34345   0.22422   0.98557   0.00000  Uiso   1.00
C476   C     0.30219   0.20977   0.02291   0.00000  Uiso   1.00
C477   C     0.23271   0.16274   0.02042   0.00000  Uiso   1.00
C478   C     0.40181   0.33978   0.94883   0.00000  Uiso   1.00
C479   C     0.40963   0.42249   0.95527   0.00000  Uiso   1.00
C480   C     0.38930   0.47275   0.92184   0.00000  Uiso   1.00
C481   C     0.48253   0.21835   0.96025   0.00000  Uiso   1.00
C482   C     0.55822   0.19898   0.97630   0.00000  Uiso   1.00
C483   C     0.60586   0.14702   0.95248   0.00000  Uiso   1.00
H484   H     0.34953   0.19171   0.88028   0.00000  Uiso   1.00
H485   H     0.22585   0.12150   0.91477   0.00000  Uiso   1.00
H486   H     0.33329   0.33419   0.84714   0.00000  Uiso   1.00
H487   H     0.48186   0.11071   0.86816   0.00000  Uiso   1.00
H488   H     0.10069   0.05753   0.96997   0.00000  Uiso   1.00
H489   H     0.32726   0.50599   0.82736   0.00000  Uiso   1.00
H490   H     0.64055   0.03475   0.87169   0.00000  Uiso   1.00
H491   H     0.44184   0.29844   0.01101   0.00000  Uiso   1.00
H492   H     0.32322   0.23408   0.05268   0.00000  Uiso   1.00
H493   H     0.43066   0.44677   0.98504   0.00000  Uiso   1.00
H494   H     0.57923   0.22330   0.00607   0.00000  Uiso   1.00
H495   H     0.17972   0.14892   0.08190   0.00000  Uiso   1.00
H496   H     0.40629   0.59738   0.93929   0.00000  Uiso   1.00
H497   H     0.71958   0.12613   0.98362   0.00000  Uiso   1.00
O498   O     0.06049   0.05899   0.05099   0.00000  Uiso   1.00
O499   O     0.35776   0.64734   0.86388   0.00000  Uiso   1.00
O500   O     0.76878   0.02908   0.92204   0.00000  Uiso   1.00
N501   N     0.13558   0.08786   0.99060   0.00000  Uiso   1.00
N502   N     0.34740   0.50714   0.85727   0.00000  Uiso   1.00
N503   N     0.64030   0.06659   0.89870   0.00000  Uiso   1.00
N504   N     0.17810   0.13703   0.05083   0.00000  Uiso   1.00
N505   N     0.38992   0.55631   0.91750   0.00000  Uiso   1.00
N506   N     0.68282   0.11576   0.95893   0.00000  Uiso   1.00
C507   C     0.87068   0.71616   0.41023   0.00000  Uiso   1.00
C508   C     0.81628   0.69281   0.44710   0.00000  Uiso   1.00
C509   C     0.74685   0.64579   0.44455   0.00000  Uiso   1.00
C510   C     0.70550   0.63128   0.48188   0.00000  Uiso   1.00
C511   C     0.61688   0.59027   0.53327   0.00000  Uiso   1.00
C512   C     0.87465   0.80837   0.41036   0.00000  Uiso   1.00
C513   C     0.85430   0.85851   0.37691   0.00000  Uiso   1.00
C514   C     0.86209   0.94128   0.38330   0.00000  Uiso   1.00
C515   C     0.86415   0.07968   0.37763   0.00000  Uiso   1.00
C516   C     0.95536   0.68694   0.42178   0.00000  Uiso   1.00
C517   C     0.00290   0.63500   0.39793   0.00000  Uiso   1.00
C518   C     0.07865   0.61555   0.41394   0.00000  Uiso   1.00
C519   C     0.20603   0.56542   0.42601   0.00000  Uiso   1.00
C520   C     0.92069   0.77399   0.48106   0.00000  Uiso   1.00
C521   C     0.84345   0.72422   0.48557   0.00000  Uiso   1.00
C522   C     0.80219   0.70977   0.52291   0.00000  Uiso   1.00
C523   C     0.73271   0.66274   0.52042   0.00000  Uiso   1.00
C524   C     0.90181   0.83978   0.44883   0.00000  Uiso   1.00
C525   C     0.90963   0.92249   0.45527   0.00000  Uiso   1.00
C526   C     0.88930   0.97275   0.42184   0.00000  Uiso   1.00
C527   C     0.98253   0.71835   0.46025   0.00000  Uiso   1.00
C528   C     0.05822   0.69898   0.47630   0.00000  Uiso   1.00
C529   C     0.10586   0.64702   0.45248   0.00000  Uiso   1.00
H530   H     0.84953   0.69171   0.38028   0.00000  Uiso   1.00
H531   H     0.72585   0.62150   0.41477   0.00000  Uiso   1.00
H532   H     0.83329   0.83419   0.34714   0.00000  Uiso   1.00
H533   H     0.98186   0.61071   0.36816   0.00000  Uiso   1.00
H534   H     0.60069   0.55753   0.46997   0.00000  Uiso   1.00
H535   H     0.82726   0.00599   0.32736   0.00000  Uiso   1.00
H536   H     0.14055   0.53475   0.37169   0.00000  Uiso   1.00
H537   H     0.94184   0.79844   0.51101   0.00000  Uiso   1.00
H538   H     0.82322   0.73408   0.55268   0.00000  Uiso   1.00
H539   H     0.93066   0.94677   0.48504   0.00000  Uiso   1.00
H540   H     0.07923   0.72330   0.50607   0.00000  Uiso   1.00
H541   H     0.67972   0.64892   0.58190   0.00000  Uiso   1.00
H542   H     0.90629   0.09738   0.43929   0.00000  Uiso   1.00
H543   H     0.21958   0.62613   0.48362   0.00000  Uiso   1.00
O544   O     0.56049   0.55899   0.55099   0.00000  Uiso   1.00
O545   O     0.85776   0.14734   0.36388   0.00000  Uiso   1.00
O546   O     0.26878   0.52908   0.42204   0.00000  Uiso   1.00
N547   N     0.63558   0.58786   0.49060   0.00000  Uiso   1.00
N548   N     0.84740   0.00714   0.35727   0.00000  Uiso   1.00
N549   N     0.14030   0.56659   0.39870   0.00000  Uiso   1.00
N550   N     0.67810   0.63703   0.55083   0.00000  Uiso   1.00
N551   N     0.88992   0.05631   0.41750   0.00000  Uiso   1.00
N552   N     0.18282   0.61576   0.45893   0.00000  Uiso   1.00
C553   C     0.71616   0.12932   0.58977   0.00000  Uiso   1.00
C554   C     0.69281   0.18372   0.55290   0.00000  Uiso   1.00
C555   C     0.64579   0.25315   0.55545   0.00000  Uiso   1.00
C556   C     0.63128   0.29450   0.51812   0.00000  Uiso   1.00
C557   C     0.59027   0.38312   0.46673   0.00000  Uiso   1.00
C558   C     0.80837   0.12535   0.58964   0.00000  Uiso   1.00
C559   C     0.85851   0.14570   0.62309   0.00000  Uiso   1.00
C560   C     0.94128   0.13791   0.61670   0.00000  Uiso   1.00
C561   C     0.07968   0.13585   0.62237   0.00000  Uiso   1.00
C562   C     0.68694   0.04464   0.57822   0.00000  Uiso   1.00
C563   C     0.63500   0.99710   0.60207   0.00000  Uiso   1.00
C564   C     0.61555   0.92135   0.58606   0.00000  Uiso   1.00
C565   C     0.56542   0.79397   0.57399   0.00000  Uiso   1.00
C566   C     0.77399   0.07931   0.51894   0.00000  Uiso   1.00
C567   C     0.72422   0.15655   0.51443   0.00000  Uiso   1.00
C568   C     0.70977   0.19781   0.47709   0.00000  Uiso   1.00
C569   C     0.66274   0.26729   0.47958   0.00000  Uiso   1.00
C570   C     0.83978   0.09819   0.55117   0.00000  Uiso   1.00
C571   C     0.92249   0.09037   0.54473   0.00000  Uiso   1.00
C572   C     0.97275   0.11070   0.57816   0.00000  Uiso   1.00
C573   C     0.71835   0.01747   0.53975   0.00000  Uiso   1.00
C574   C     0.69898   0.94178   0.52370   0.00000  Uiso   1.00
C575   C     0.64702   0.89414   0.54752   0.00000  Uiso   1.00
H576   H     0.69171   0.15047   0.61972   0.00000  Uiso   1.00
H577   H     0.62150   0.27415   0.58523   0.00000  Uiso   1.00
H578   H     0.83419   0.16671   0.65286   0.00000  Uiso   1.00
H579   H     0.61071   0.01814   0.63184   0.00000  Uiso   1.00
H580   H     0.55753   0.39931   0.53003   0.00000  Uiso   1.00
H581   H     0.00599   0.17274   0.67264   0.00000  Uiso   1.00
H582   H     0.53475   0.85945   0.62831   0.00000  Uiso   1.00
H583   H     0.79844   0.05816   0.48899   0.00000  Uiso   1.00
H584   H     0.73408   0.17678   0.44732   0.00000  Uiso   1.00
H585   H     0.94677   0.06934   0.51496   0.00000  Uiso   1.00
H586   H     0.72330   0.92077   0.49393   0.00000  Uiso   1.00
H587   H     0.64892   0.32028   0.41810   0.00000  Uiso   1.00
H588   H     0.09738   0.09371   0.56071   0.00000  Uiso   1.00
H589   H     0.62613   0.78042   0.51638   0.00000  Uiso   1.00
O590   O     0.55899   0.43951   0.44901   0.00000  Uiso   1.00
O591   O     0.14734   0.14224   0.63612   0.00000  Uiso   1.00
O592   O     0.52908   0.73122   0.57796   0.00000  Uiso   1.00
N593   N     0.58786   0.36442   0.50940   0.00000  Uiso   1.00
N594   N     0.00714   0.15260   0.64273   0.00000  Uiso   1.00
N595   N     0.56659   0.85970   0.60130   0.00000  Uiso   1.00
N596   N     0.63703   0.32190   0.44917   0.00000  Uiso   1.00
N597   N     0.05631   0.11008   0.58250   0.00000  Uiso   1.00
N598   N     0.61576   0.81718   0.54107   0.00000  Uiso   1.00
C599   C     0.21616   0.62932   0.08977   0.00000  Uiso   1.00
C600   C     0.19281   0.68372   0.05290   0.00000  Uiso   1.00
C601   C     0.14579   0.75315   0.05545   0.00000  Uiso   1.00
C602   C     0.13128   0.79450   0.01812   0.00000  Uiso   1.00
C603   C     0.09027   0.88312   0.96673   0.00000  Uiso   1.00
C604   C     0.30837   0.62535   0.08964   0.00000  Uiso   1.00
C605   C     0.35851   0.64570   0.12309   0.00000  Uiso   1.00
C606   C     0.44128   0.63791   0.11670   0.00000  Uiso   1.00
C607   C     0.57968   0.63585   0.12237   0.00000  Uiso   1.00
C608   C     0.18694   0.54464   0.07822   0.00000  Uiso   1.00
C609   C     0.13500   0.49710   0.10207   0.00000  Uiso   1.00
C610   C     0.11555   0.42135   0.08606   0.00000  Uiso   1.00
C611   C     0.06542   0.29397   0.07399   0.00000  Uiso   1.00
C612   C     0.27399   0.57931   0.01894   0.00000  Uiso   1.00
C613   C     0.22422   0.65655   0.01443   0.00000  Uiso   1.00
C614   C     0.20977   0.69781   0.97709   0.00000  Uiso   1.00
C615   C     0.16274   0.76729   0.97958   0.00000  Uiso   1.00
C616   C     0.33978   0.59819   0.05117   0.00000  Uiso   1.00
C617   C     0.42249   0.59037   0.04473   0.00000  Uiso   1.00
C618   C     0.47275   0.61070   0.07816   0.00000  Uiso   1.00
C619   C     0.21835   0.51747   0.03975   0.00000  Uiso   1.00
C620   C     0.19898   0.44178   0.02370   0.00000  Uiso   1.00
C621   C     0.14702   0.39414   0.04752   0.00000  Uiso   1.00
H622   H     0.19171   0.65047   0.11972   0.00000  Uiso   1.00
H623   H     0.12150   0.77415   0.08523   0.00000  Uiso   1.00
H624   H     0.33419   0.66671   0.15286   0.00000  Uiso   1.00
H625   H     0.11071   0.51814   0.13184   0.00000  Uiso   1.00
H626   H     0.05753   0.89931   0.03003   0.00000  Uiso   1.00
H627   H     0.50599   0.67274   0.17264   0.00000  Uiso   1.00
H628   H     0.03475   0.35945   0.12831   0.00000  Uiso   1.00
H629   H     0.29844   0.55816   0.98899   0.00000  Uiso   1.00
H630   H     0.23408   0.67678   0.94732   0.00000  Uiso   1.00
H631   H     0.44677   0.56934   0.01496   0.00000  Uiso   1.00
H632   H     0.22330   0.42077   0.99393   0.00000  Uiso   1.00
H633   H     0.14892   0.82028   0.91810   0.00000  Uiso   1.00
H634   H     0.59738   0.59371   0.06071   0.00000  Uiso   1.00
H635   H     0.12613   0.28042   0.01638   0.00000  Uiso   1.00
O636   O     0.05899   0.93951   0.94901   0.00000  Uiso   1.00
O637   O     0.64734   0.64224   0.13612   0.00000  Uiso   1.00
O638   O     0.02908   0.23122   0.07796   0.00000  Uiso   1.00
N639   N     0.08786   0.86442   0.00940   0.00000  Uiso   1.00
N640   N     0.50714   0.65260   0.14273   0.00000  Uiso   1.00
N641   N     0.06659   0.35970   0.10130   0.00000  Uiso   1.00
N642   N     0.13703   0.82190   0.94917   0.00000  Uiso   1.00
N643   N     0.55631   0.61008   0.08250   0.00000  Uiso   1.00
N644   N     0.11576   0.31718   0.04107   0.00000  Uiso   1.00
C645   C     0.28384   0.87068   0.58977   0.00000  Uiso   1.00
C646   C     0.30719   0.81628   0.55290   0.00000  Uiso   1.00
C647   C     0.35421   0.74685   0.55545   0.00000  Uiso   1.00
C648   C     0.36872   0.70550   0.51812   0.00000  Uiso   1.00
C649   C     0.40973   0.61688   0.46673   0.00000  Uiso   1.00
C650   C     0.19163   0.87465   0.58964   0.00000  Uiso   1.00
C651   C     0.14149   0.85430   0.62309   0.00000  Uiso   1.00
C652   C     0.05872   0.86209   0.61670   0.00000  Uiso   1.00
C653   C     0.92032   0.86415   0.62237   0.00000  Uiso   1.00
C654   C     0.31306   0.95536   0.57822   0.00000  Uiso   1.00
C655   C     0.36500   0.00290   0.60207   0.00000  Uiso   1.00
C656   C     0.38445   0.07865   0.58606   0.00000  Uiso   1.00
C657   C     0.43458   0.20603   0.57399   0.00000  Uiso   1.00
C658   C     0.22601   0.92069   0.51894   0.00000  Uiso   1.00
C659   C     0.27578   0.84345   0.51443   0.00000  Uiso   1.00
C660   C     0.29023   0.80219   0.47709   0.00000  Uiso   1.00
C661   C     0.33726   0.73271   0.47958   0.00000  Uiso   1.00
C662   C     0.16022   0.90181   0.55117   0.00000  Uiso   1.00
C663   C     0.07751   0.90963   0.54473   0.00000  Uiso   1.00
C664   C     0.02725   0.88930   0.57816   0.00000  Uiso   1.00
C665   C     0.28165   0.98253   0.53975   0.00000  Uiso   1.00
C666   C     0.30102   0.05822   0.52370   0.00000  Uiso   1.00
C667   C     0.35298   0.10586   0.54752   0.00000  Uiso   1.00
H668   H     0.30829   0.84953   0.61972   0.00000  Uiso   1.00
H669   H     0.37850   0.72585   0.58523   0.00000  Uiso   1.00
H670   H     0.16581   0.83329   0.65286   0.00000  Uiso   1.00
H671   H     0.38929   0.98186   0.63184   0.00000  Uiso   1.00
H672   H     0.44247   0.60069   0.53003   0.00000  Uiso   1.00
H673   H     0.99401   0.82726   0.67264   0.00000  Uiso   1.00
H674   H     0.46525   0.14055   0.62831   0.00000  Uiso   1.00
H675   H     0.20156   0.94184   0.48899   0.00000  Uiso   1.00
H676   H     0.26592   0.82322   0.44732   0.00000  Uiso   1.00
H677   H     0.05323   0.93066   0.51496   0.00000  Uiso   1.00
H678   H     0.27670   0.07923   0.49393   0.00000  Uiso   1.00
H679   H     0.35108   0.67972   0.41810   0.00000  Uiso   1.00
H680   H     0.90262   0.90629   0.56071   0.00000  Uiso   1.00
H681   H     0.37387   0.21958   0.51638   0.00000  Uiso   1.00
O682   O     0.44101   0.56049   0.44901   0.00000  Uiso   1.00
O683   O     0.85266   0.85776   0.63612   0.00000  Uiso   1.00
O684   O     0.47092   0.26878   0.57796   0.00000  Uiso   1.00
N685   N     0.41214   0.63558   0.50940   0.00000  Uiso   1.00
N686   N     0.99286   0.84740   0.64273   0.00000  Uiso   1.00
N687   N     0.43341   0.14030   0.60130   0.00000  Uiso   1.00
N688   N     0.36297   0.67810   0.44917   0.00000  Uiso   1.00
N689   N     0.94369   0.88992   0.58250   0.00000  Uiso   1.00
N690   N     0.38424   0.18282   0.54107   0.00000  Uiso   1.00
C691   C     0.78384   0.37068   0.08977   0.00000  Uiso   1.00
C692   C     0.80719   0.31628   0.05290   0.00000  Uiso   1.00
C693   C     0.85421   0.24685   0.05545   0.00000  Uiso   1.00
C694   C     0.86872   0.20550   0.01812   0.00000  Uiso   1.00
C695   C     0.90973   0.11688   0.96673   0.00000  Uiso   1.00
C696   C     0.69163   0.37465   0.08964   0.00000  Uiso   1.00
C697   C     0.64149   0.35430   0.12309   0.00000  Uiso   1.00
C698   C     0.55872   0.36209   0.11670   0.00000  Uiso   1.00
C699   C     0.42032   0.36415   0.12237   0.00000  Uiso   1.00
C700   C     0.81306   0.45536   0.07822   0.00000  Uiso   1.00
C701   C     0.86500   0.50290   0.10207   0.00000  Uiso   1.00
C702   C     0.88445   0.57865   0.08606   0.00000  Uiso   1.00
C703   C     0.93458   0.70603   0.07399   0.00000  Uiso   1.00
C704   C     0.72601   0.42069   0.01894   0.00000  Uiso   1.00
C705   C     0.77578   0.34345   0.01443   0.00000  Uiso   1.00
C706   C     0.79023   0.30219   0.97709   0.00000  Uiso   1.00
C707   C     0.83726   0.23271   0.97958   0.00000  Uiso   1.00
C708   C     0.66022   0.40181   0.05117   0.00000  Uiso   1.00
C709   C     0.57751   0.40963   0.04473   0.00000  Uiso   1.00
C710   C     0.52725   0.38930   0.07816   0.00000  Uiso   1.00
C711   C     0.78165   0.48253   0.03975   0.00000  Uiso   1.00
C712   C     0.80102   0.55822   0.02370   0.00000  Uiso   1.00
C713   C     0.85298   0.60586   0.04752   0.00000  Uiso   1.00
H714   H     0.80829   0.34953   0.11972   0.00000  Uiso   1.00
H715   H     0.87850   0.22585   0.08523   0.00000  Uiso   1.00
H716   H     0.66581   0.33329   0.15286   0.00000  Uiso   1.00
H717   H     0.88929   0.48186   0.13184   0.00000  Uiso   1.00
H718   H     0.94247   0.10069   0.03003   0.00000  Uiso   1.00
H719   H     0.49401   0.32726   0.17264   0.00000  Uiso   1.00
H720   H     0.96525   0.64055   0.12831   0.00000  Uiso   1.00
H721   H     0.70156   0.44184   0.98899   0.00000  Uiso   1.00
H722   H     0.76592   0.32322   0.94732   0.00000  Uiso   1.00
H723   H     0.55323   0.43066   0.01496   0.00000  Uiso   1.00
H724   H     0.77670   0.57923   0.99393   0.00000  Uiso   1.00
H725   H     0.85108   0.17972   0.91810   0.00000  Uiso   1.00
H726   H     0.40262   0.40629   0.06071   0.00000  Uiso   1.00
H727   H     0.87387   0.71958   0.01638   0.00000  Uiso   1.00
O728   O     0.94101   0.06049   0.94901   0.00000  Uiso   1.00
O729   O     0.35266   0.35776   0.13612   0.00000  Uiso   1.00
O730   O     0.97092   0.76878   0.07796   0.00000  Uiso   1.00
N731   N     0.91214   0.13558   0.00940   0.00000  Uiso   1.00
N732   N     0.49286   0.34740   0.14273   0.00000  Uiso   1.00
N733   N     0.93341   0.64030   0.10130   0.00000  Uiso   1.00
N734   N     0.86297   0.17810   0.94917   0.00000  Uiso   1.00
N735   N     0.44369   0.38992   0.08250   0.00000  Uiso   1.00
N736   N     0.88424   0.68282   0.04107   0.00000  Uiso   1.00
