data_job_02166
_audit_creation_date              2018-12-19
_audit_creation_method            'Materials Studio'
_symmetry_space_group_name_H-M    'P1'
_symmetry_Int_Tables_number       1
_symmetry_cell_setting            triclinic
loop_
_symmetry_equiv_pos_as_xyz
  x,y,z
_cell_length_a                    29.5513
_cell_length_b                    51.0720
_cell_length_c                    7.3538
_cell_angle_alpha                 90.0000
_cell_angle_beta                  90.0000
_cell_angle_gamma                 90.0000
loop_
_atom_site_label
_atom_site_type_symbol
_atom_site_fract_x
_atom_site_fract_y
_atom_site_fract_z
_atom_site_U_iso_or_equiv
_atom_site_adp_type
_atom_site_occupancy
C1     C     0.68458   0.55670   0.80119   0.00000  Uiso   1.00
C2     C     0.65094   0.53925   0.70095   0.00000  Uiso   1.00
C3     C     0.62448   0.51984   0.77928   0.00000  Uiso   1.00
C4     C     0.59582   0.50604   0.66441   0.00000  Uiso   1.00
C5     C     0.54391   0.47812   0.53711   0.00000  Uiso   1.00
C6     C     0.72993   0.55289   0.70584   0.00000  Uiso   1.00
C7     C     0.76989   0.54495   0.78829   0.00000  Uiso   1.00
C8     C     0.80773   0.54263   0.67753   0.00000  Uiso   1.00
C9     C     0.87847   0.53590   0.55785   0.00000  Uiso   1.00
C10    C     0.67025   0.58480   0.76151   0.00000  Uiso   1.00
C11    C     0.66003   0.60370   0.89076   0.00000  Uiso   1.00
C12    C     0.64763   0.62826   0.82686   0.00000  Uiso   1.00
C13    C     0.62570   0.67108   0.79362   0.00000  Uiso   1.00
C14    C     0.68074   0.56670   0.45789   0.00000  Uiso   1.00
C15    C     0.64886   0.54469   0.51448   0.00000  Uiso   1.00
C16    C     0.62023   0.53092   0.39946   0.00000  Uiso   1.00
C17    C     0.59373   0.51149   0.47760   0.00000  Uiso   1.00
C18    C     0.72785   0.55832   0.51938   0.00000  Uiso   1.00
C19    C     0.76564   0.55602   0.40847   0.00000  Uiso   1.00
C20    C     0.80564   0.54807   0.49072   0.00000  Uiso   1.00
C21    C     0.66816   0.59024   0.57504   0.00000  Uiso   1.00
C22    C     0.65578   0.61477   0.51093   0.00000  Uiso   1.00
C23    C     0.64554   0.63370   0.64006   0.00000  Uiso   1.00
H24    H     0.68621   0.55246   0.94636   0.00000  Uiso   1.00
H25    H     0.62611   0.51564   0.92359   0.00000  Uiso   1.00
H26    H     0.77149   0.54074   0.93260   0.00000  Uiso   1.00
H27    H     0.66165   0.59949   0.03505   0.00000  Uiso   1.00
H28    H     0.55856   0.47721   0.81610   0.00000  Uiso   1.00
H29    H     0.86512   0.53015   0.83511   0.00000  Uiso   1.00
H30    H     0.63350   0.65402   0.05115   0.00000  Uiso   1.00
H31    H     0.67912   0.57094   0.31271   0.00000  Uiso   1.00
H32    H     0.61862   0.53513   0.25516   0.00000  Uiso   1.00
H33    H     0.76401   0.56023   0.26418   0.00000  Uiso   1.00
H34    H     0.65417   0.61897   0.36662   0.00000  Uiso   1.00
H35    H     0.55248   0.49302   0.27358   0.00000  Uiso   1.00
H36    H     0.85905   0.54596   0.29259   0.00000  Uiso   1.00
H37    H     0.62743   0.66983   0.50863   0.00000  Uiso   1.00
O38    O     0.51586   0.46122   0.51841   0.00000  Uiso   1.00
O39    O     0.91806   0.53068   0.54336   0.00000  Uiso   1.00
O40    O     0.61418   0.69319   0.82679   0.00000  Uiso   1.00
N41    N     0.56542   0.48585   0.69632   0.00000  Uiso   1.00
N42    N     0.85204   0.53534   0.71409   0.00000  Uiso   1.00
N43    N     0.63551   0.65115   0.91607   0.00000  Uiso   1.00
N44    N     0.56216   0.49436   0.40440   0.00000  Uiso   1.00
N45    N     0.84877   0.54385   0.42216   0.00000  Uiso   1.00
N46    N     0.63224   0.65966   0.62414   0.00000  Uiso   1.00
C47    C     0.68458   0.05670   0.30119   0.00000  Uiso   1.00
C48    C     0.65094   0.03925   0.20095   0.00000  Uiso   1.00
C49    C     0.62448   0.01984   0.27928   0.00000  Uiso   1.00
C50    C     0.59582   0.00604   0.16441   0.00000  Uiso   1.00
C51    C     0.54391   0.97812   0.03711   0.00000  Uiso   1.00
C52    C     0.72993   0.05289   0.20584   0.00000  Uiso   1.00
C53    C     0.76989   0.04495   0.28829   0.00000  Uiso   1.00
C54    C     0.80773   0.04263   0.17753   0.00000  Uiso   1.00
C55    C     0.87847   0.03590   0.05785   0.00000  Uiso   1.00
C56    C     0.67025   0.08480   0.26151   0.00000  Uiso   1.00
C57    C     0.66003   0.10370   0.39076   0.00000  Uiso   1.00
C58    C     0.64763   0.12826   0.32686   0.00000  Uiso   1.00
C59    C     0.62570   0.17108   0.29362   0.00000  Uiso   1.00
C60    C     0.68074   0.06670   0.95789   0.00000  Uiso   1.00
C61    C     0.64886   0.04469   0.01448   0.00000  Uiso   1.00
C62    C     0.62023   0.03092   0.89946   0.00000  Uiso   1.00
C63    C     0.59373   0.01149   0.97760   0.00000  Uiso   1.00
C64    C     0.72785   0.05832   0.01938   0.00000  Uiso   1.00
C65    C     0.76564   0.05602   0.90847   0.00000  Uiso   1.00
C66    C     0.80564   0.04807   0.99072   0.00000  Uiso   1.00
C67    C     0.66816   0.09024   0.07504   0.00000  Uiso   1.00
C68    C     0.65578   0.11477   0.01093   0.00000  Uiso   1.00
C69    C     0.64554   0.13370   0.14006   0.00000  Uiso   1.00
H70    H     0.68621   0.05246   0.44636   0.00000  Uiso   1.00
H71    H     0.62611   0.01564   0.42359   0.00000  Uiso   1.00
H72    H     0.77149   0.04074   0.43260   0.00000  Uiso   1.00
H73    H     0.66165   0.09949   0.53505   0.00000  Uiso   1.00
H74    H     0.55856   0.97721   0.31610   0.00000  Uiso   1.00
H75    H     0.86512   0.03015   0.33511   0.00000  Uiso   1.00
H76    H     0.63350   0.15402   0.55115   0.00000  Uiso   1.00
H77    H     0.67912   0.07094   0.81271   0.00000  Uiso   1.00
H78    H     0.61862   0.03513   0.75516   0.00000  Uiso   1.00
H79    H     0.76401   0.06023   0.76418   0.00000  Uiso   1.00
H80    H     0.65417   0.11897   0.86662   0.00000  Uiso   1.00
H81    H     0.55248   0.99302   0.77358   0.00000  Uiso   1.00
H82    H     0.85905   0.04596   0.79259   0.00000  Uiso   1.00
H83    H     0.62743   0.16983   0.00863   0.00000  Uiso   1.00
O84    O     0.51586   0.96122   0.01841   0.00000  Uiso   1.00
O85    O     0.91806   0.03068   0.04336   0.00000  Uiso   1.00
O86    O     0.61418   0.19319   0.32679   0.00000  Uiso   1.00
N87    N     0.56542   0.98585   0.19632   0.00000  Uiso   1.00
N88    N     0.85204   0.03534   0.21409   0.00000  Uiso   1.00
N89    N     0.63551   0.15115   0.41607   0.00000  Uiso   1.00
N90    N     0.56216   0.99436   0.90440   0.00000  Uiso   1.00
N91    N     0.84877   0.04385   0.92216   0.00000  Uiso   1.00
N92    N     0.63224   0.15966   0.12414   0.00000  Uiso   1.00
C93    C     0.18458   0.55670   0.30119   0.00000  Uiso   1.00
C94    C     0.15094   0.53925   0.20095   0.00000  Uiso   1.00
C95    C     0.12448   0.51984   0.27928   0.00000  Uiso   1.00
C96    C     0.09582   0.50604   0.16441   0.00000  Uiso   1.00
C97    C     0.04391   0.47812   0.03711   0.00000  Uiso   1.00
C98    C     0.22993   0.55289   0.20584   0.00000  Uiso   1.00
C99    C     0.26989   0.54495   0.28829   0.00000  Uiso   1.00
C100   C     0.30773   0.54263   0.17753   0.00000  Uiso   1.00
C101   C     0.37847   0.53590   0.05785   0.00000  Uiso   1.00
C102   C     0.17025   0.58480   0.26151   0.00000  Uiso   1.00
C103   C     0.16003   0.60370   0.39076   0.00000  Uiso   1.00
C104   C     0.14763   0.62826   0.32686   0.00000  Uiso   1.00
C105   C     0.12570   0.67108   0.29362   0.00000  Uiso   1.00
C106   C     0.18074   0.56670   0.95789   0.00000  Uiso   1.00
C107   C     0.14886   0.54469   0.01448   0.00000  Uiso   1.00
C108   C     0.12023   0.53092   0.89946   0.00000  Uiso   1.00
C109   C     0.09373   0.51149   0.97760   0.00000  Uiso   1.00
C110   C     0.22785   0.55832   0.01938   0.00000  Uiso   1.00
C111   C     0.26564   0.55602   0.90847   0.00000  Uiso   1.00
C112   C     0.30564   0.54807   0.99072   0.00000  Uiso   1.00
C113   C     0.16816   0.59024   0.07504   0.00000  Uiso   1.00
C114   C     0.15578   0.61477   0.01093   0.00000  Uiso   1.00
C115   C     0.14554   0.63370   0.14006   0.00000  Uiso   1.00
H116   H     0.18621   0.55246   0.44636   0.00000  Uiso   1.00
H117   H     0.12611   0.51564   0.42359   0.00000  Uiso   1.00
H118   H     0.27149   0.54074   0.43260   0.00000  Uiso   1.00
H119   H     0.16165   0.59949   0.53505   0.00000  Uiso   1.00
H120   H     0.05856   0.47721   0.31610   0.00000  Uiso   1.00
H121   H     0.36512   0.53015   0.33511   0.00000  Uiso   1.00
H122   H     0.13350   0.65402   0.55115   0.00000  Uiso   1.00
H123   H     0.17912   0.57094   0.81271   0.00000  Uiso   1.00
H124   H     0.11862   0.53513   0.75516   0.00000  Uiso   1.00
H125   H     0.26401   0.56023   0.76418   0.00000  Uiso   1.00
H126   H     0.15417   0.61897   0.86662   0.00000  Uiso   1.00
H127   H     0.05248   0.49302   0.77358   0.00000  Uiso   1.00
H128   H     0.35905   0.54596   0.79259   0.00000  Uiso   1.00
H129   H     0.12743   0.66983   0.00863   0.00000  Uiso   1.00
O130   O     0.01586   0.46122   0.01841   0.00000  Uiso   1.00
O131   O     0.41806   0.53068   0.04336   0.00000  Uiso   1.00
O132   O     0.11418   0.69319   0.32679   0.00000  Uiso   1.00
N133   N     0.06542   0.48585   0.19632   0.00000  Uiso   1.00
N134   N     0.35204   0.53534   0.21409   0.00000  Uiso   1.00
N135   N     0.13551   0.65115   0.41607   0.00000  Uiso   1.00
N136   N     0.06216   0.49436   0.90440   0.00000  Uiso   1.00
N137   N     0.34877   0.54385   0.92216   0.00000  Uiso   1.00
N138   N     0.13224   0.65966   0.12414   0.00000  Uiso   1.00
C139   C     0.18458   0.05670   0.80119   0.00000  Uiso   1.00
C140   C     0.15094   0.03925   0.70095   0.00000  Uiso   1.00
C141   C     0.12448   0.01984   0.77928   0.00000  Uiso   1.00
C142   C     0.09582   0.00604   0.66441   0.00000  Uiso   1.00
C143   C     0.04391   0.97812   0.53711   0.00000  Uiso   1.00
C144   C     0.22993   0.05289   0.70584   0.00000  Uiso   1.00
C145   C     0.26989   0.04495   0.78829   0.00000  Uiso   1.00
C146   C     0.30773   0.04263   0.67753   0.00000  Uiso   1.00
C147   C     0.37847   0.03590   0.55785   0.00000  Uiso   1.00
C148   C     0.17025   0.08480   0.76151   0.00000  Uiso   1.00
C149   C     0.16003   0.10370   0.89076   0.00000  Uiso   1.00
C150   C     0.14763   0.12826   0.82686   0.00000  Uiso   1.00
C151   C     0.12570   0.17108   0.79362   0.00000  Uiso   1.00
C152   C     0.18074   0.06670   0.45789   0.00000  Uiso   1.00
C153   C     0.14886   0.04469   0.51448   0.00000  Uiso   1.00
C154   C     0.12023   0.03092   0.39946   0.00000  Uiso   1.00
C155   C     0.09373   0.01149   0.47760   0.00000  Uiso   1.00
C156   C     0.22785   0.05832   0.51938   0.00000  Uiso   1.00
C157   C     0.26564   0.05602   0.40847   0.00000  Uiso   1.00
C158   C     0.30564   0.04807   0.49072   0.00000  Uiso   1.00
C159   C     0.16816   0.09024   0.57504   0.00000  Uiso   1.00
C160   C     0.15578   0.11477   0.51093   0.00000  Uiso   1.00
C161   C     0.14554   0.13370   0.64006   0.00000  Uiso   1.00
H162   H     0.18621   0.05246   0.94636   0.00000  Uiso   1.00
H163   H     0.12611   0.01564   0.92359   0.00000  Uiso   1.00
H164   H     0.27149   0.04074   0.93260   0.00000  Uiso   1.00
H165   H     0.16165   0.09949   0.03505   0.00000  Uiso   1.00
H166   H     0.05856   0.97721   0.81610   0.00000  Uiso   1.00
H167   H     0.36512   0.03015   0.83511   0.00000  Uiso   1.00
H168   H     0.13350   0.15402   0.05115   0.00000  Uiso   1.00
H169   H     0.17912   0.07094   0.31271   0.00000  Uiso   1.00
H170   H     0.11862   0.03513   0.25516   0.00000  Uiso   1.00
H171   H     0.26401   0.06023   0.26418   0.00000  Uiso   1.00
H172   H     0.15417   0.11897   0.36662   0.00000  Uiso   1.00
H173   H     0.05248   0.99302   0.27358   0.00000  Uiso   1.00
H174   H     0.35905   0.04596   0.29259   0.00000  Uiso   1.00
H175   H     0.12743   0.16983   0.50863   0.00000  Uiso   1.00
O176   O     0.01586   0.96122   0.51841   0.00000  Uiso   1.00
O177   O     0.41806   0.03068   0.54336   0.00000  Uiso   1.00
O178   O     0.11418   0.19319   0.82679   0.00000  Uiso   1.00
N179   N     0.06542   0.98585   0.69632   0.00000  Uiso   1.00
N180   N     0.35204   0.03534   0.71409   0.00000  Uiso   1.00
N181   N     0.13551   0.15115   0.91607   0.00000  Uiso   1.00
N182   N     0.06216   0.99436   0.40440   0.00000  Uiso   1.00
N183   N     0.34877   0.04385   0.42216   0.00000  Uiso   1.00
N184   N     0.13224   0.15966   0.62414   0.00000  Uiso   1.00
C185   C     0.31542   0.44330   0.80119   0.00000  Uiso   1.00
C186   C     0.34906   0.46075   0.70095   0.00000  Uiso   1.00
C187   C     0.37552   0.48016   0.77928   0.00000  Uiso   1.00
C188   C     0.40418   0.49396   0.66441   0.00000  Uiso   1.00
C189   C     0.45609   0.52188   0.53711   0.00000  Uiso   1.00
C190   C     0.27007   0.44711   0.70584   0.00000  Uiso   1.00
C191   C     0.23011   0.45505   0.78829   0.00000  Uiso   1.00
C192   C     0.19227   0.45737   0.67753   0.00000  Uiso   1.00
C193   C     0.12153   0.46410   0.55785   0.00000  Uiso   1.00
C194   C     0.32975   0.41520   0.76151   0.00000  Uiso   1.00
C195   C     0.33997   0.39630   0.89076   0.00000  Uiso   1.00
C196   C     0.35237   0.37174   0.82686   0.00000  Uiso   1.00
C197   C     0.37430   0.32892   0.79362   0.00000  Uiso   1.00
C198   C     0.31926   0.43330   0.45789   0.00000  Uiso   1.00
C199   C     0.35114   0.45531   0.51448   0.00000  Uiso   1.00
C200   C     0.37977   0.46908   0.39946   0.00000  Uiso   1.00
C201   C     0.40627   0.48851   0.47760   0.00000  Uiso   1.00
C202   C     0.27215   0.44168   0.51938   0.00000  Uiso   1.00
C203   C     0.23436   0.44398   0.40847   0.00000  Uiso   1.00
C204   C     0.19436   0.45193   0.49072   0.00000  Uiso   1.00
C205   C     0.33184   0.40976   0.57504   0.00000  Uiso   1.00
C206   C     0.34422   0.38523   0.51093   0.00000  Uiso   1.00
C207   C     0.35446   0.36630   0.64006   0.00000  Uiso   1.00
H208   H     0.31379   0.44754   0.94636   0.00000  Uiso   1.00
H209   H     0.37389   0.48436   0.92359   0.00000  Uiso   1.00
H210   H     0.22851   0.45926   0.93260   0.00000  Uiso   1.00
H211   H     0.33835   0.40051   0.03505   0.00000  Uiso   1.00
H212   H     0.44144   0.52279   0.81610   0.00000  Uiso   1.00
H213   H     0.13488   0.46985   0.83511   0.00000  Uiso   1.00
H214   H     0.36650   0.34598   0.05115   0.00000  Uiso   1.00
H215   H     0.32088   0.42906   0.31271   0.00000  Uiso   1.00
H216   H     0.38138   0.46487   0.25516   0.00000  Uiso   1.00
H217   H     0.23599   0.43977   0.26418   0.00000  Uiso   1.00
H218   H     0.34583   0.38103   0.36662   0.00000  Uiso   1.00
H219   H     0.44752   0.50698   0.27358   0.00000  Uiso   1.00
H220   H     0.14095   0.45404   0.29259   0.00000  Uiso   1.00
H221   H     0.37257   0.33017   0.50863   0.00000  Uiso   1.00
O222   O     0.48414   0.53878   0.51841   0.00000  Uiso   1.00
O223   O     0.08194   0.46932   0.54336   0.00000  Uiso   1.00
O224   O     0.38582   0.30681   0.82679   0.00000  Uiso   1.00
N225   N     0.43458   0.51415   0.69632   0.00000  Uiso   1.00
N226   N     0.14796   0.46466   0.71409   0.00000  Uiso   1.00
N227   N     0.36449   0.34885   0.91607   0.00000  Uiso   1.00
N228   N     0.43784   0.50564   0.40440   0.00000  Uiso   1.00
N229   N     0.15123   0.45615   0.42216   0.00000  Uiso   1.00
N230   N     0.36776   0.34034   0.62414   0.00000  Uiso   1.00
C231   C     0.31542   0.94330   0.30119   0.00000  Uiso   1.00
C232   C     0.34906   0.96075   0.20095   0.00000  Uiso   1.00
C233   C     0.37552   0.98016   0.27928   0.00000  Uiso   1.00
C234   C     0.40418   0.99396   0.16441   0.00000  Uiso   1.00
C235   C     0.45609   0.02188   0.03711   0.00000  Uiso   1.00
C236   C     0.27007   0.94711   0.20584   0.00000  Uiso   1.00
C237   C     0.23011   0.95505   0.28829   0.00000  Uiso   1.00
C238   C     0.19227   0.95737   0.17753   0.00000  Uiso   1.00
C239   C     0.12153   0.96410   0.05785   0.00000  Uiso   1.00
C240   C     0.32975   0.91520   0.26151   0.00000  Uiso   1.00
C241   C     0.33997   0.89630   0.39076   0.00000  Uiso   1.00
C242   C     0.35237   0.87174   0.32686   0.00000  Uiso   1.00
C243   C     0.37430   0.82892   0.29362   0.00000  Uiso   1.00
C244   C     0.31926   0.93330   0.95789   0.00000  Uiso   1.00
C245   C     0.35114   0.95531   0.01448   0.00000  Uiso   1.00
C246   C     0.37977   0.96908   0.89946   0.00000  Uiso   1.00
C247   C     0.40627   0.98851   0.97760   0.00000  Uiso   1.00
C248   C     0.27215   0.94168   0.01938   0.00000  Uiso   1.00
C249   C     0.23436   0.94398   0.90847   0.00000  Uiso   1.00
C250   C     0.19436   0.95193   0.99072   0.00000  Uiso   1.00
C251   C     0.33184   0.90976   0.07504   0.00000  Uiso   1.00
C252   C     0.34422   0.88523   0.01093   0.00000  Uiso   1.00
C253   C     0.35446   0.86630   0.14006   0.00000  Uiso   1.00
H254   H     0.31379   0.94754   0.44636   0.00000  Uiso   1.00
H255   H     0.37389   0.98436   0.42359   0.00000  Uiso   1.00
H256   H     0.22851   0.95926   0.43260   0.00000  Uiso   1.00
H257   H     0.33835   0.90051   0.53505   0.00000  Uiso   1.00
H258   H     0.44144   0.02279   0.31610   0.00000  Uiso   1.00
H259   H     0.13488   0.96985   0.33511   0.00000  Uiso   1.00
H260   H     0.36650   0.84598   0.55115   0.00000  Uiso   1.00
H261   H     0.32088   0.92906   0.81271   0.00000  Uiso   1.00
H262   H     0.38138   0.96487   0.75516   0.00000  Uiso   1.00
H263   H     0.23599   0.93977   0.76418   0.00000  Uiso   1.00
H264   H     0.34583   0.88103   0.86662   0.00000  Uiso   1.00
H265   H     0.44752   0.00698   0.77358   0.00000  Uiso   1.00
H266   H     0.14095   0.95404   0.79259   0.00000  Uiso   1.00
H267   H     0.37257   0.83017   0.00863   0.00000  Uiso   1.00
O268   O     0.48414   0.03878   0.01841   0.00000  Uiso   1.00
O269   O     0.08194   0.96932   0.04336   0.00000  Uiso   1.00
O270   O     0.38582   0.80681   0.32679   0.00000  Uiso   1.00
N271   N     0.43458   0.01415   0.19632   0.00000  Uiso   1.00
N272   N     0.14796   0.96466   0.21409   0.00000  Uiso   1.00
N273   N     0.36449   0.84885   0.41607   0.00000  Uiso   1.00
N274   N     0.43784   0.00564   0.90440   0.00000  Uiso   1.00
N275   N     0.15123   0.95615   0.92216   0.00000  Uiso   1.00
N276   N     0.36776   0.84034   0.12414   0.00000  Uiso   1.00
C277   C     0.81542   0.44330   0.30119   0.00000  Uiso   1.00
C278   C     0.84906   0.46075   0.20095   0.00000  Uiso   1.00
C279   C     0.87552   0.48016   0.27928   0.00000  Uiso   1.00
C280   C     0.90418   0.49396   0.16441   0.00000  Uiso   1.00
C281   C     0.95609   0.52188   0.03711   0.00000  Uiso   1.00
C282   C     0.77007   0.44711   0.20584   0.00000  Uiso   1.00
C283   C     0.73011   0.45505   0.28829   0.00000  Uiso   1.00
C284   C     0.69227   0.45737   0.17753   0.00000  Uiso   1.00
C285   C     0.62153   0.46410   0.05785   0.00000  Uiso   1.00
C286   C     0.82975   0.41520   0.26151   0.00000  Uiso   1.00
C287   C     0.83997   0.39630   0.39076   0.00000  Uiso   1.00
C288   C     0.85237   0.37174   0.32686   0.00000  Uiso   1.00
C289   C     0.87430   0.32892   0.29362   0.00000  Uiso   1.00
C290   C     0.81926   0.43330   0.95789   0.00000  Uiso   1.00
C291   C     0.85114   0.45531   0.01448   0.00000  Uiso   1.00
C292   C     0.87977   0.46908   0.89946   0.00000  Uiso   1.00
C293   C     0.90627   0.48851   0.97760   0.00000  Uiso   1.00
C294   C     0.77215   0.44168   0.01938   0.00000  Uiso   1.00
C295   C     0.73436   0.44398   0.90847   0.00000  Uiso   1.00
C296   C     0.69436   0.45193   0.99072   0.00000  Uiso   1.00
C297   C     0.83184   0.40976   0.07504   0.00000  Uiso   1.00
C298   C     0.84422   0.38523   0.01093   0.00000  Uiso   1.00
C299   C     0.85446   0.36630   0.14006   0.00000  Uiso   1.00
H300   H     0.81379   0.44754   0.44636   0.00000  Uiso   1.00
H301   H     0.87389   0.48436   0.42359   0.00000  Uiso   1.00
H302   H     0.72851   0.45926   0.43260   0.00000  Uiso   1.00
H303   H     0.83835   0.40051   0.53505   0.00000  Uiso   1.00
H304   H     0.94144   0.52279   0.31610   0.00000  Uiso   1.00
H305   H     0.63488   0.46985   0.33511   0.00000  Uiso   1.00
H306   H     0.86650   0.34598   0.55115   0.00000  Uiso   1.00
H307   H     0.82088   0.42906   0.81271   0.00000  Uiso   1.00
H308   H     0.88138   0.46487   0.75516   0.00000  Uiso   1.00
H309   H     0.73599   0.43977   0.76418   0.00000  Uiso   1.00
H310   H     0.84583   0.38103   0.86662   0.00000  Uiso   1.00
H311   H     0.94752   0.50698   0.77358   0.00000  Uiso   1.00
H312   H     0.64095   0.45404   0.79259   0.00000  Uiso   1.00
H313   H     0.87257   0.33017   0.00863   0.00000  Uiso   1.00
O314   O     0.98414   0.53878   0.01841   0.00000  Uiso   1.00
O315   O     0.58194   0.46932   0.04336   0.00000  Uiso   1.00
O316   O     0.88582   0.30681   0.32679   0.00000  Uiso   1.00
N317   N     0.93458   0.51415   0.19632   0.00000  Uiso   1.00
N318   N     0.64796   0.46466   0.21409   0.00000  Uiso   1.00
N319   N     0.86449   0.34885   0.41607   0.00000  Uiso   1.00
N320   N     0.93784   0.50564   0.90440   0.00000  Uiso   1.00
N321   N     0.65123   0.45615   0.92216   0.00000  Uiso   1.00
N322   N     0.86776   0.34034   0.12414   0.00000  Uiso   1.00
C323   C     0.81542   0.94330   0.80119   0.00000  Uiso   1.00
C324   C     0.84906   0.96075   0.70095   0.00000  Uiso   1.00
C325   C     0.87552   0.98016   0.77928   0.00000  Uiso   1.00
C326   C     0.90418   0.99396   0.66441   0.00000  Uiso   1.00
C327   C     0.95609   0.02188   0.53711   0.00000  Uiso   1.00
C328   C     0.77007   0.94711   0.70584   0.00000  Uiso   1.00
C329   C     0.73011   0.95505   0.78829   0.00000  Uiso   1.00
C330   C     0.69227   0.95737   0.67753   0.00000  Uiso   1.00
C331   C     0.62153   0.96410   0.55785   0.00000  Uiso   1.00
C332   C     0.82975   0.91520   0.76151   0.00000  Uiso   1.00
C333   C     0.83997   0.89630   0.89076   0.00000  Uiso   1.00
C334   C     0.85237   0.87174   0.82686   0.00000  Uiso   1.00
C335   C     0.87430   0.82892   0.79362   0.00000  Uiso   1.00
C336   C     0.81926   0.93330   0.45789   0.00000  Uiso   1.00
C337   C     0.85114   0.95531   0.51448   0.00000  Uiso   1.00
C338   C     0.87977   0.96908   0.39946   0.00000  Uiso   1.00
C339   C     0.90627   0.98851   0.47760   0.00000  Uiso   1.00
C340   C     0.77215   0.94168   0.51938   0.00000  Uiso   1.00
C341   C     0.73436   0.94398   0.40847   0.00000  Uiso   1.00
C342   C     0.69436   0.95193   0.49072   0.00000  Uiso   1.00
C343   C     0.83184   0.90976   0.57504   0.00000  Uiso   1.00
C344   C     0.84422   0.88523   0.51093   0.00000  Uiso   1.00
C345   C     0.85446   0.86630   0.64006   0.00000  Uiso   1.00
H346   H     0.81379   0.94754   0.94636   0.00000  Uiso   1.00
H347   H     0.87389   0.98436   0.92359   0.00000  Uiso   1.00
H348   H     0.72851   0.95926   0.93260   0.00000  Uiso   1.00
H349   H     0.83835   0.90051   0.03505   0.00000  Uiso   1.00
H350   H     0.94144   0.02279   0.81610   0.00000  Uiso   1.00
H351   H     0.63488   0.96985   0.83511   0.00000  Uiso   1.00
H352   H     0.86650   0.84598   0.05115   0.00000  Uiso   1.00
H353   H     0.82088   0.92906   0.31271   0.00000  Uiso   1.00
H354   H     0.88138   0.96487   0.25516   0.00000  Uiso   1.00
H355   H     0.73599   0.93977   0.26418   0.00000  Uiso   1.00
H356   H     0.84583   0.88103   0.36662   0.00000  Uiso   1.00
H357   H     0.94752   0.00698   0.27358   0.00000  Uiso   1.00
H358   H     0.64095   0.95404   0.29259   0.00000  Uiso   1.00
H359   H     0.87257   0.83017   0.50863   0.00000  Uiso   1.00
O360   O     0.98414   0.03878   0.51841   0.00000  Uiso   1.00
O361   O     0.58194   0.96932   0.54336   0.00000  Uiso   1.00
O362   O     0.88582   0.80681   0.82679   0.00000  Uiso   1.00
N363   N     0.93458   0.01415   0.69632   0.00000  Uiso   1.00
N364   N     0.64796   0.96466   0.71409   0.00000  Uiso   1.00
N365   N     0.86449   0.84885   0.91607   0.00000  Uiso   1.00
N366   N     0.93784   0.00564   0.40440   0.00000  Uiso   1.00
N367   N     0.65123   0.95615   0.42216   0.00000  Uiso   1.00
N368   N     0.86776   0.84034   0.62414   0.00000  Uiso   1.00
C369   C     0.93458   0.69330   0.05119   0.00000  Uiso   1.00
C370   C     0.90094   0.71075   0.95095   0.00000  Uiso   1.00
C371   C     0.87448   0.73016   0.02928   0.00000  Uiso   1.00
C372   C     0.84582   0.74396   0.91441   0.00000  Uiso   1.00
C373   C     0.79391   0.77188   0.78711   0.00000  Uiso   1.00
C374   C     0.97993   0.69711   0.95584   0.00000  Uiso   1.00
C375   C     0.01989   0.70505   0.03829   0.00000  Uiso   1.00
C376   C     0.05773   0.70737   0.92753   0.00000  Uiso   1.00
C377   C     0.12847   0.71410   0.80785   0.00000  Uiso   1.00
C378   C     0.92025   0.66520   0.01151   0.00000  Uiso   1.00
C379   C     0.91003   0.64630   0.14076   0.00000  Uiso   1.00
C380   C     0.89763   0.62174   0.07686   0.00000  Uiso   1.00
C381   C     0.87570   0.57892   0.04362   0.00000  Uiso   1.00
C382   C     0.93074   0.68330   0.70789   0.00000  Uiso   1.00
C383   C     0.89886   0.70531   0.76448   0.00000  Uiso   1.00
C384   C     0.87023   0.71908   0.64946   0.00000  Uiso   1.00
C385   C     0.84373   0.73851   0.72760   0.00000  Uiso   1.00
C386   C     0.97785   0.69168   0.76938   0.00000  Uiso   1.00
C387   C     0.01564   0.69398   0.65847   0.00000  Uiso   1.00
C388   C     0.05564   0.70193   0.74072   0.00000  Uiso   1.00
C389   C     0.91816   0.65976   0.82504   0.00000  Uiso   1.00
C390   C     0.90578   0.63523   0.76093   0.00000  Uiso   1.00
C391   C     0.89554   0.61630   0.89006   0.00000  Uiso   1.00
H392   H     0.93621   0.69754   0.19636   0.00000  Uiso   1.00
H393   H     0.87611   0.73436   0.17359   0.00000  Uiso   1.00
H394   H     0.02149   0.70926   0.18260   0.00000  Uiso   1.00
H395   H     0.91165   0.65051   0.28505   0.00000  Uiso   1.00
H396   H     0.80856   0.77279   0.06610   0.00000  Uiso   1.00
H397   H     0.11512   0.71985   0.08511   0.00000  Uiso   1.00
H398   H     0.88350   0.59598   0.30115   0.00000  Uiso   1.00
H399   H     0.92912   0.67906   0.56271   0.00000  Uiso   1.00
H400   H     0.86862   0.71487   0.50516   0.00000  Uiso   1.00
H401   H     0.01401   0.68977   0.51418   0.00000  Uiso   1.00
H402   H     0.90417   0.63103   0.61662   0.00000  Uiso   1.00
H403   H     0.80248   0.75698   0.52358   0.00000  Uiso   1.00
H404   H     0.10905   0.70404   0.54259   0.00000  Uiso   1.00
H405   H     0.87743   0.58017   0.75863   0.00000  Uiso   1.00
O406   O     0.76586   0.78878   0.76841   0.00000  Uiso   1.00
O407   O     0.16806   0.71932   0.79336   0.00000  Uiso   1.00
O408   O     0.86418   0.55681   0.07679   0.00000  Uiso   1.00
N409   N     0.81542   0.76415   0.94632   0.00000  Uiso   1.00
N410   N     0.10204   0.71466   0.96409   0.00000  Uiso   1.00
N411   N     0.88551   0.59885   0.16607   0.00000  Uiso   1.00
N412   N     0.81216   0.75564   0.65440   0.00000  Uiso   1.00
N413   N     0.09877   0.70615   0.67216   0.00000  Uiso   1.00
N414   N     0.88224   0.59034   0.87414   0.00000  Uiso   1.00
C415   C     0.93458   0.19330   0.55119   0.00000  Uiso   1.00
C416   C     0.90094   0.21075   0.45095   0.00000  Uiso   1.00
C417   C     0.87448   0.23016   0.52928   0.00000  Uiso   1.00
C418   C     0.84582   0.24396   0.41441   0.00000  Uiso   1.00
C419   C     0.79391   0.27188   0.28711   0.00000  Uiso   1.00
C420   C     0.97993   0.19711   0.45584   0.00000  Uiso   1.00
C421   C     0.01989   0.20505   0.53829   0.00000  Uiso   1.00
C422   C     0.05773   0.20737   0.42753   0.00000  Uiso   1.00
C423   C     0.12847   0.21410   0.30785   0.00000  Uiso   1.00
C424   C     0.92025   0.16520   0.51151   0.00000  Uiso   1.00
C425   C     0.91003   0.14630   0.64076   0.00000  Uiso   1.00
C426   C     0.89763   0.12174   0.57686   0.00000  Uiso   1.00
C427   C     0.87570   0.07892   0.54362   0.00000  Uiso   1.00
C428   C     0.93074   0.18330   0.20789   0.00000  Uiso   1.00
C429   C     0.89886   0.20531   0.26448   0.00000  Uiso   1.00
C430   C     0.87023   0.21908   0.14946   0.00000  Uiso   1.00
C431   C     0.84373   0.23851   0.22760   0.00000  Uiso   1.00
C432   C     0.97785   0.19168   0.26938   0.00000  Uiso   1.00
C433   C     0.01564   0.19398   0.15847   0.00000  Uiso   1.00
C434   C     0.05564   0.20193   0.24072   0.00000  Uiso   1.00
C435   C     0.91816   0.15976   0.32504   0.00000  Uiso   1.00
C436   C     0.90578   0.13523   0.26093   0.00000  Uiso   1.00
C437   C     0.89554   0.11630   0.39006   0.00000  Uiso   1.00
H438   H     0.93621   0.19754   0.69636   0.00000  Uiso   1.00
H439   H     0.87611   0.23436   0.67359   0.00000  Uiso   1.00
H440   H     0.02149   0.20926   0.68260   0.00000  Uiso   1.00
H441   H     0.91165   0.15051   0.78505   0.00000  Uiso   1.00
H442   H     0.80856   0.27279   0.56610   0.00000  Uiso   1.00
H443   H     0.11512   0.21985   0.58511   0.00000  Uiso   1.00
H444   H     0.88350   0.09598   0.80115   0.00000  Uiso   1.00
H445   H     0.92912   0.17906   0.06271   0.00000  Uiso   1.00
H446   H     0.86862   0.21487   0.00516   0.00000  Uiso   1.00
H447   H     0.01401   0.18977   0.01418   0.00000  Uiso   1.00
H448   H     0.90417   0.13103   0.11662   0.00000  Uiso   1.00
H449   H     0.80248   0.25698   0.02358   0.00000  Uiso   1.00
H450   H     0.10905   0.20404   0.04259   0.00000  Uiso   1.00
H451   H     0.87743   0.08017   0.25863   0.00000  Uiso   1.00
O452   O     0.76586   0.28878   0.26841   0.00000  Uiso   1.00
O453   O     0.16806   0.21932   0.29336   0.00000  Uiso   1.00
O454   O     0.86418   0.05681   0.57679   0.00000  Uiso   1.00
N455   N     0.81542   0.26415   0.44632   0.00000  Uiso   1.00
N456   N     0.10204   0.21466   0.46409   0.00000  Uiso   1.00
N457   N     0.88551   0.09885   0.66607   0.00000  Uiso   1.00
N458   N     0.81216   0.25564   0.15440   0.00000  Uiso   1.00
N459   N     0.09877   0.20615   0.17216   0.00000  Uiso   1.00
N460   N     0.88224   0.09034   0.37414   0.00000  Uiso   1.00
C461   C     0.43458   0.69330   0.55119   0.00000  Uiso   1.00
C462   C     0.40094   0.71075   0.45095   0.00000  Uiso   1.00
C463   C     0.37448   0.73016   0.52928   0.00000  Uiso   1.00
C464   C     0.34582   0.74396   0.41441   0.00000  Uiso   1.00
C465   C     0.29391   0.77188   0.28711   0.00000  Uiso   1.00
C466   C     0.47993   0.69711   0.45584   0.00000  Uiso   1.00
C467   C     0.51989   0.70505   0.53829   0.00000  Uiso   1.00
C468   C     0.55773   0.70737   0.42753   0.00000  Uiso   1.00
C469   C     0.62847   0.71410   0.30785   0.00000  Uiso   1.00
C470   C     0.42025   0.66520   0.51151   0.00000  Uiso   1.00
C471   C     0.41003   0.64630   0.64076   0.00000  Uiso   1.00
C472   C     0.39763   0.62174   0.57686   0.00000  Uiso   1.00
C473   C     0.37570   0.57892   0.54362   0.00000  Uiso   1.00
C474   C     0.43074   0.68330   0.20789   0.00000  Uiso   1.00
C475   C     0.39886   0.70531   0.26448   0.00000  Uiso   1.00
C476   C     0.37023   0.71908   0.14946   0.00000  Uiso   1.00
C477   C     0.34373   0.73851   0.22760   0.00000  Uiso   1.00
C478   C     0.47785   0.69168   0.26938   0.00000  Uiso   1.00
C479   C     0.51564   0.69398   0.15847   0.00000  Uiso   1.00
C480   C     0.55564   0.70193   0.24072   0.00000  Uiso   1.00
C481   C     0.41816   0.65976   0.32504   0.00000  Uiso   1.00
C482   C     0.40578   0.63523   0.26093   0.00000  Uiso   1.00
C483   C     0.39554   0.61630   0.39006   0.00000  Uiso   1.00
H484   H     0.43621   0.69754   0.69636   0.00000  Uiso   1.00
H485   H     0.37611   0.73436   0.67359   0.00000  Uiso   1.00
H486   H     0.52149   0.70926   0.68260   0.00000  Uiso   1.00
H487   H     0.41165   0.65051   0.78505   0.00000  Uiso   1.00
H488   H     0.30856   0.77279   0.56610   0.00000  Uiso   1.00
H489   H     0.61512   0.71985   0.58511   0.00000  Uiso   1.00
H490   H     0.38350   0.59598   0.80115   0.00000  Uiso   1.00
H491   H     0.42912   0.67906   0.06271   0.00000  Uiso   1.00
H492   H     0.36862   0.71487   0.00516   0.00000  Uiso   1.00
H493   H     0.51401   0.68977   0.01418   0.00000  Uiso   1.00
H494   H     0.40417   0.63103   0.11662   0.00000  Uiso   1.00
H495   H     0.30248   0.75698   0.02358   0.00000  Uiso   1.00
H496   H     0.60905   0.70404   0.04259   0.00000  Uiso   1.00
H497   H     0.37743   0.58017   0.25863   0.00000  Uiso   1.00
O498   O     0.26586   0.78878   0.26841   0.00000  Uiso   1.00
O499   O     0.66806   0.71932   0.29336   0.00000  Uiso   1.00
O500   O     0.36418   0.55681   0.57679   0.00000  Uiso   1.00
N501   N     0.31542   0.76415   0.44632   0.00000  Uiso   1.00
N502   N     0.60204   0.71466   0.46409   0.00000  Uiso   1.00
N503   N     0.38551   0.59885   0.66607   0.00000  Uiso   1.00
N504   N     0.31216   0.75564   0.15440   0.00000  Uiso   1.00
N505   N     0.59877   0.70615   0.17216   0.00000  Uiso   1.00
N506   N     0.38224   0.59034   0.37414   0.00000  Uiso   1.00
C507   C     0.43458   0.19330   0.05119   0.00000  Uiso   1.00
C508   C     0.40094   0.21075   0.95095   0.00000  Uiso   1.00
C509   C     0.37448   0.23016   0.02928   0.00000  Uiso   1.00
C510   C     0.34582   0.24396   0.91441   0.00000  Uiso   1.00
C511   C     0.29391   0.27188   0.78711   0.00000  Uiso   1.00
C512   C     0.47993   0.19711   0.95584   0.00000  Uiso   1.00
C513   C     0.51989   0.20505   0.03829   0.00000  Uiso   1.00
C514   C     0.55773   0.20737   0.92753   0.00000  Uiso   1.00
C515   C     0.62847   0.21410   0.80785   0.00000  Uiso   1.00
C516   C     0.42025   0.16520   0.01151   0.00000  Uiso   1.00
C517   C     0.41003   0.14630   0.14076   0.00000  Uiso   1.00
C518   C     0.39763   0.12174   0.07686   0.00000  Uiso   1.00
C519   C     0.37570   0.07892   0.04362   0.00000  Uiso   1.00
C520   C     0.43074   0.18330   0.70789   0.00000  Uiso   1.00
C521   C     0.39886   0.20531   0.76448   0.00000  Uiso   1.00
C522   C     0.37023   0.21908   0.64946   0.00000  Uiso   1.00
C523   C     0.34373   0.23851   0.72760   0.00000  Uiso   1.00
C524   C     0.47785   0.19168   0.76938   0.00000  Uiso   1.00
C525   C     0.51564   0.19398   0.65847   0.00000  Uiso   1.00
C526   C     0.55564   0.20193   0.74072   0.00000  Uiso   1.00
C527   C     0.41816   0.15976   0.82504   0.00000  Uiso   1.00
C528   C     0.40578   0.13523   0.76093   0.00000  Uiso   1.00
C529   C     0.39554   0.11630   0.89006   0.00000  Uiso   1.00
H530   H     0.43621   0.19754   0.19636   0.00000  Uiso   1.00
H531   H     0.37611   0.23436   0.17359   0.00000  Uiso   1.00
H532   H     0.52149   0.20926   0.18260   0.00000  Uiso   1.00
H533   H     0.41165   0.15051   0.28505   0.00000  Uiso   1.00
H534   H     0.30856   0.27279   0.06610   0.00000  Uiso   1.00
H535   H     0.61512   0.21985   0.08511   0.00000  Uiso   1.00
H536   H     0.38350   0.09598   0.30115   0.00000  Uiso   1.00
H537   H     0.42912   0.17906   0.56271   0.00000  Uiso   1.00
H538   H     0.36862   0.21487   0.50516   0.00000  Uiso   1.00
H539   H     0.51401   0.18977   0.51418   0.00000  Uiso   1.00
H540   H     0.40417   0.13103   0.61662   0.00000  Uiso   1.00
H541   H     0.30248   0.25698   0.52358   0.00000  Uiso   1.00
H542   H     0.60905   0.20404   0.54259   0.00000  Uiso   1.00
H543   H     0.37743   0.08017   0.75863   0.00000  Uiso   1.00
O544   O     0.26586   0.28878   0.76841   0.00000  Uiso   1.00
O545   O     0.66806   0.21932   0.79336   0.00000  Uiso   1.00
O546   O     0.36418   0.05681   0.07679   0.00000  Uiso   1.00
N547   N     0.31542   0.26415   0.94632   0.00000  Uiso   1.00
N548   N     0.60204   0.21466   0.96409   0.00000  Uiso   1.00
N549   N     0.38551   0.09885   0.16607   0.00000  Uiso   1.00
N550   N     0.31216   0.25564   0.65440   0.00000  Uiso   1.00
N551   N     0.59877   0.20615   0.67216   0.00000  Uiso   1.00
N552   N     0.38224   0.09034   0.87414   0.00000  Uiso   1.00
C553   C     0.56542   0.80670   0.05119   0.00000  Uiso   1.00
C554   C     0.59906   0.78925   0.95095   0.00000  Uiso   1.00
C555   C     0.62552   0.76984   0.02928   0.00000  Uiso   1.00
C556   C     0.65418   0.75604   0.91441   0.00000  Uiso   1.00
C557   C     0.70609   0.72812   0.78711   0.00000  Uiso   1.00
C558   C     0.52007   0.80289   0.95584   0.00000  Uiso   1.00
C559   C     0.48011   0.79495   0.03829   0.00000  Uiso   1.00
C560   C     0.44227   0.79263   0.92753   0.00000  Uiso   1.00
C561   C     0.37153   0.78590   0.80785   0.00000  Uiso   1.00
C562   C     0.57975   0.83480   0.01151   0.00000  Uiso   1.00
C563   C     0.58997   0.85370   0.14076   0.00000  Uiso   1.00
C564   C     0.60237   0.87826   0.07686   0.00000  Uiso   1.00
C565   C     0.62430   0.92108   0.04362   0.00000  Uiso   1.00
C566   C     0.56926   0.81670   0.70789   0.00000  Uiso   1.00
C567   C     0.60114   0.79469   0.76448   0.00000  Uiso   1.00
C568   C     0.62977   0.78092   0.64946   0.00000  Uiso   1.00
C569   C     0.65627   0.76149   0.72760   0.00000  Uiso   1.00
C570   C     0.52215   0.80832   0.76938   0.00000  Uiso   1.00
C571   C     0.48436   0.80602   0.65847   0.00000  Uiso   1.00
C572   C     0.44436   0.79807   0.74072   0.00000  Uiso   1.00
C573   C     0.58184   0.84024   0.82504   0.00000  Uiso   1.00
C574   C     0.59422   0.86477   0.76093   0.00000  Uiso   1.00
C575   C     0.60446   0.88370   0.89006   0.00000  Uiso   1.00
H576   H     0.56379   0.80246   0.19636   0.00000  Uiso   1.00
H577   H     0.62389   0.76564   0.17359   0.00000  Uiso   1.00
H578   H     0.47851   0.79074   0.18260   0.00000  Uiso   1.00
H579   H     0.58835   0.84949   0.28505   0.00000  Uiso   1.00
H580   H     0.69144   0.72721   0.06610   0.00000  Uiso   1.00
H581   H     0.38488   0.78015   0.08511   0.00000  Uiso   1.00
H582   H     0.61650   0.90402   0.30115   0.00000  Uiso   1.00
H583   H     0.57088   0.82094   0.56271   0.00000  Uiso   1.00
H584   H     0.63138   0.78513   0.50516   0.00000  Uiso   1.00
H585   H     0.48599   0.81023   0.51418   0.00000  Uiso   1.00
H586   H     0.59583   0.86897   0.61662   0.00000  Uiso   1.00
H587   H     0.69752   0.74302   0.52358   0.00000  Uiso   1.00
H588   H     0.39095   0.79596   0.54259   0.00000  Uiso   1.00
H589   H     0.62257   0.91983   0.75863   0.00000  Uiso   1.00
O590   O     0.73414   0.71122   0.76841   0.00000  Uiso   1.00
O591   O     0.33194   0.78068   0.79336   0.00000  Uiso   1.00
O592   O     0.63582   0.94319   0.07679   0.00000  Uiso   1.00
N593   N     0.68458   0.73585   0.94632   0.00000  Uiso   1.00
N594   N     0.39796   0.78534   0.96409   0.00000  Uiso   1.00
N595   N     0.61449   0.90115   0.16607   0.00000  Uiso   1.00
N596   N     0.68784   0.74436   0.65440   0.00000  Uiso   1.00
N597   N     0.40123   0.79385   0.67216   0.00000  Uiso   1.00
N598   N     0.61776   0.90966   0.87414   0.00000  Uiso   1.00
C599   C     0.56542   0.30670   0.55119   0.00000  Uiso   1.00
C600   C     0.59906   0.28925   0.45095   0.00000  Uiso   1.00
C601   C     0.62552   0.26984   0.52928   0.00000  Uiso   1.00
C602   C     0.65418   0.25604   0.41441   0.00000  Uiso   1.00
C603   C     0.70609   0.22812   0.28711   0.00000  Uiso   1.00
C604   C     0.52007   0.30289   0.45584   0.00000  Uiso   1.00
C605   C     0.48011   0.29495   0.53829   0.00000  Uiso   1.00
C606   C     0.44227   0.29263   0.42753   0.00000  Uiso   1.00
C607   C     0.37153   0.28590   0.30785   0.00000  Uiso   1.00
C608   C     0.57975   0.33480   0.51151   0.00000  Uiso   1.00
C609   C     0.58997   0.35370   0.64076   0.00000  Uiso   1.00
C610   C     0.60237   0.37826   0.57686   0.00000  Uiso   1.00
C611   C     0.62430   0.42108   0.54362   0.00000  Uiso   1.00
C612   C     0.56926   0.31670   0.20789   0.00000  Uiso   1.00
C613   C     0.60114   0.29469   0.26448   0.00000  Uiso   1.00
C614   C     0.62977   0.28092   0.14946   0.00000  Uiso   1.00
C615   C     0.65627   0.26149   0.22760   0.00000  Uiso   1.00
C616   C     0.52215   0.30832   0.26938   0.00000  Uiso   1.00
C617   C     0.48436   0.30602   0.15847   0.00000  Uiso   1.00
C618   C     0.44436   0.29807   0.24072   0.00000  Uiso   1.00
C619   C     0.58184   0.34024   0.32504   0.00000  Uiso   1.00
C620   C     0.59422   0.36477   0.26093   0.00000  Uiso   1.00
C621   C     0.60446   0.38370   0.39006   0.00000  Uiso   1.00
H622   H     0.56379   0.30246   0.69636   0.00000  Uiso   1.00
H623   H     0.62389   0.26564   0.67359   0.00000  Uiso   1.00
H624   H     0.47851   0.29074   0.68260   0.00000  Uiso   1.00
H625   H     0.58835   0.34949   0.78505   0.00000  Uiso   1.00
H626   H     0.69144   0.22721   0.56610   0.00000  Uiso   1.00
H627   H     0.38488   0.28015   0.58511   0.00000  Uiso   1.00
H628   H     0.61650   0.40402   0.80115   0.00000  Uiso   1.00
H629   H     0.57088   0.32094   0.06271   0.00000  Uiso   1.00
H630   H     0.63138   0.28513   0.00516   0.00000  Uiso   1.00
H631   H     0.48599   0.31023   0.01418   0.00000  Uiso   1.00
H632   H     0.59583   0.36897   0.11662   0.00000  Uiso   1.00
H633   H     0.69752   0.24302   0.02358   0.00000  Uiso   1.00
H634   H     0.39095   0.29596   0.04259   0.00000  Uiso   1.00
H635   H     0.62257   0.41983   0.25863   0.00000  Uiso   1.00
O636   O     0.73414   0.21122   0.26841   0.00000  Uiso   1.00
O637   O     0.33194   0.28068   0.29336   0.00000  Uiso   1.00
O638   O     0.63582   0.44319   0.57679   0.00000  Uiso   1.00
N639   N     0.68458   0.23585   0.44632   0.00000  Uiso   1.00
N640   N     0.39796   0.28534   0.46409   0.00000  Uiso   1.00
N641   N     0.61449   0.40115   0.66607   0.00000  Uiso   1.00
N642   N     0.68784   0.24436   0.15440   0.00000  Uiso   1.00
N643   N     0.40123   0.29385   0.17216   0.00000  Uiso   1.00
N644   N     0.61776   0.40966   0.37414   0.00000  Uiso   1.00
C645   C     0.06542   0.80670   0.55119   0.00000  Uiso   1.00
C646   C     0.09906   0.78925   0.45095   0.00000  Uiso   1.00
C647   C     0.12552   0.76984   0.52928   0.00000  Uiso   1.00
C648   C     0.15418   0.75604   0.41441   0.00000  Uiso   1.00
C649   C     0.20609   0.72812   0.28711   0.00000  Uiso   1.00
C650   C     0.02007   0.80289   0.45584   0.00000  Uiso   1.00
C651   C     0.98011   0.79495   0.53829   0.00000  Uiso   1.00
C652   C     0.94227   0.79263   0.42753   0.00000  Uiso   1.00
C653   C     0.87153   0.78590   0.30785   0.00000  Uiso   1.00
C654   C     0.07975   0.83480   0.51151   0.00000  Uiso   1.00
C655   C     0.08997   0.85370   0.64076   0.00000  Uiso   1.00
C656   C     0.10237   0.87826   0.57686   0.00000  Uiso   1.00
C657   C     0.12430   0.92108   0.54362   0.00000  Uiso   1.00
C658   C     0.06926   0.81670   0.20789   0.00000  Uiso   1.00
C659   C     0.10114   0.79469   0.26448   0.00000  Uiso   1.00
C660   C     0.12977   0.78092   0.14946   0.00000  Uiso   1.00
C661   C     0.15627   0.76149   0.22760   0.00000  Uiso   1.00
C662   C     0.02215   0.80832   0.26938   0.00000  Uiso   1.00
C663   C     0.98436   0.80602   0.15847   0.00000  Uiso   1.00
C664   C     0.94436   0.79807   0.24072   0.00000  Uiso   1.00
C665   C     0.08184   0.84024   0.32504   0.00000  Uiso   1.00
C666   C     0.09422   0.86477   0.26093   0.00000  Uiso   1.00
C667   C     0.10446   0.88370   0.39006   0.00000  Uiso   1.00
H668   H     0.06379   0.80246   0.69636   0.00000  Uiso   1.00
H669   H     0.12389   0.76564   0.67359   0.00000  Uiso   1.00
H670   H     0.97851   0.79074   0.68260   0.00000  Uiso   1.00
H671   H     0.08835   0.84949   0.78505   0.00000  Uiso   1.00
H672   H     0.19144   0.72721   0.56610   0.00000  Uiso   1.00
H673   H     0.88488   0.78015   0.58511   0.00000  Uiso   1.00
H674   H     0.11650   0.90402   0.80115   0.00000  Uiso   1.00
H675   H     0.07088   0.82094   0.06271   0.00000  Uiso   1.00
H676   H     0.13138   0.78513   0.00516   0.00000  Uiso   1.00
H677   H     0.98599   0.81023   0.01418   0.00000  Uiso   1.00
H678   H     0.09583   0.86897   0.11662   0.00000  Uiso   1.00
H679   H     0.19752   0.74302   0.02358   0.00000  Uiso   1.00
H680   H     0.89095   0.79596   0.04259   0.00000  Uiso   1.00
H681   H     0.12257   0.91983   0.25863   0.00000  Uiso   1.00
O682   O     0.23414   0.71122   0.26841   0.00000  Uiso   1.00
O683   O     0.83194   0.78068   0.29336   0.00000  Uiso   1.00
O684   O     0.13582   0.94319   0.57679   0.00000  Uiso   1.00
N685   N     0.18458   0.73585   0.44632   0.00000  Uiso   1.00
N686   N     0.89796   0.78534   0.46409   0.00000  Uiso   1.00
N687   N     0.11449   0.90115   0.66607   0.00000  Uiso   1.00
N688   N     0.18784   0.74436   0.15440   0.00000  Uiso   1.00
N689   N     0.90123   0.79385   0.17216   0.00000  Uiso   1.00
N690   N     0.11776   0.90966   0.37414   0.00000  Uiso   1.00
C691   C     0.06542   0.30670   0.05119   0.00000  Uiso   1.00
C692   C     0.09906   0.28925   0.95095   0.00000  Uiso   1.00
C693   C     0.12552   0.26984   0.02928   0.00000  Uiso   1.00
C694   C     0.15418   0.25604   0.91441   0.00000  Uiso   1.00
C695   C     0.20609   0.22812   0.78711   0.00000  Uiso   1.00
C696   C     0.02007   0.30289   0.95584   0.00000  Uiso   1.00
C697   C     0.98011   0.29495   0.03829   0.00000  Uiso   1.00
C698   C     0.94227   0.29263   0.92753   0.00000  Uiso   1.00
C699   C     0.87153   0.28590   0.80785   0.00000  Uiso   1.00
C700   C     0.07975   0.33480   0.01151   0.00000  Uiso   1.00
C701   C     0.08997   0.35370   0.14076   0.00000  Uiso   1.00
C702   C     0.10237   0.37826   0.07686   0.00000  Uiso   1.00
C703   C     0.12430   0.42108   0.04362   0.00000  Uiso   1.00
C704   C     0.06926   0.31670   0.70789   0.00000  Uiso   1.00
C705   C     0.10114   0.29469   0.76448   0.00000  Uiso   1.00
C706   C     0.12977   0.28092   0.64946   0.00000  Uiso   1.00
C707   C     0.15627   0.26149   0.72760   0.00000  Uiso   1.00
C708   C     0.02215   0.30832   0.76938   0.00000  Uiso   1.00
C709   C     0.98436   0.30602   0.65847   0.00000  Uiso   1.00
C710   C     0.94436   0.29807   0.74072   0.00000  Uiso   1.00
C711   C     0.08184   0.34024   0.82504   0.00000  Uiso   1.00
C712   C     0.09422   0.36477   0.76093   0.00000  Uiso   1.00
C713   C     0.10446   0.38370   0.89006   0.00000  Uiso   1.00
H714   H     0.06379   0.30246   0.19636   0.00000  Uiso   1.00
H715   H     0.12389   0.26564   0.17359   0.00000  Uiso   1.00
H716   H     0.97851   0.29074   0.18260   0.00000  Uiso   1.00
H717   H     0.08835   0.34949   0.28505   0.00000  Uiso   1.00
H718   H     0.19144   0.22721   0.06610   0.00000  Uiso   1.00
H719   H     0.88488   0.28015   0.08511   0.00000  Uiso   1.00
H720   H     0.11650   0.40402   0.30115   0.00000  Uiso   1.00
H721   H     0.07088   0.32094   0.56271   0.00000  Uiso   1.00
H722   H     0.13138   0.28513   0.50516   0.00000  Uiso   1.00
H723   H     0.98599   0.31023   0.51418   0.00000  Uiso   1.00
H724   H     0.09583   0.36897   0.61662   0.00000  Uiso   1.00
H725   H     0.19752   0.24302   0.52358   0.00000  Uiso   1.00
H726   H     0.89095   0.29596   0.54259   0.00000  Uiso   1.00
H727   H     0.12257   0.41983   0.75863   0.00000  Uiso   1.00
O728   O     0.23414   0.21122   0.76841   0.00000  Uiso   1.00
O729   O     0.83194   0.28068   0.79336   0.00000  Uiso   1.00
O730   O     0.13582   0.44319   0.07679   0.00000  Uiso   1.00
N731   N     0.18458   0.23585   0.94632   0.00000  Uiso   1.00
N732   N     0.89796   0.28534   0.96409   0.00000  Uiso   1.00
N733   N     0.11449   0.40115   0.16607   0.00000  Uiso   1.00
N734   N     0.18784   0.24436   0.65440   0.00000  Uiso   1.00
N735   N     0.90123   0.29385   0.67216   0.00000  Uiso   1.00
N736   N     0.11776   0.40966   0.87414   0.00000  Uiso   1.00
