data_job_01729
_audit_creation_date              2018-12-19
_audit_creation_method            'Materials Studio'
_symmetry_space_group_name_H-M    'P1'
_symmetry_Int_Tables_number       1
_symmetry_cell_setting            triclinic
loop_
_symmetry_equiv_pos_as_xyz
  x,y,z
_cell_length_a                    31.9528
_cell_length_b                    12.9581
_cell_length_c                    21.1855
_cell_angle_alpha                 90.0000
_cell_angle_beta                  90.0000
_cell_angle_gamma                 90.0000
loop_
_atom_site_label
_atom_site_type_symbol
_atom_site_fract_x
_atom_site_fract_y
_atom_site_fract_z
_atom_site_U_iso_or_equiv
_atom_site_adp_type
_atom_site_occupancy
C1     C     0.08293   0.12626   0.65353   0.00000  Uiso   1.00
C2     C     0.06750   0.12035   0.72154   0.00000  Uiso   1.00
C3     C     0.02698   0.14020   0.74176   0.00000  Uiso   1.00
C4     C     0.01915   0.13059   0.80595   0.00000  Uiso   1.00
C5     C     0.99038   0.12579   0.90511   0.00000  Uiso   1.00
C6     C     0.11952   0.20181   0.65384   0.00000  Uiso   1.00
C7     C     0.12275   0.29015   0.61711   0.00000  Uiso   1.00
C8     C     0.15871   0.34911   0.62431   0.00000  Uiso   1.00
C9     C     0.21073   0.47074   0.61832   0.00000  Uiso   1.00
C10    C     0.10163   0.02074   0.63870   0.00000  Uiso   1.00
C11    C     0.08982   0.95684   0.58924   0.00000  Uiso   1.00
C12    C     0.11073   0.86335   0.58368   0.00000  Uiso   1.00
C13    C     0.13497   0.70384   0.55420   0.00000  Uiso   1.00
C14    C     0.14108   0.07389   0.73159   0.00000  Uiso   1.00
C15    C     0.09908   0.09191   0.76394   0.00000  Uiso   1.00
C16    C     0.09131   0.08226   0.82812   0.00000  Uiso   1.00
C17    C     0.05079   0.10209   0.84842   0.00000  Uiso   1.00
C18    C     0.15111   0.17337   0.69623   0.00000  Uiso   1.00
C19    C     0.18708   0.23221   0.70348   0.00000  Uiso   1.00
C20    C     0.19036   0.32061   0.66678   0.00000  Uiso   1.00
C21    C     0.13321   0.99229   0.68110   0.00000  Uiso   1.00
C22    C     0.15415   0.89889   0.67561   0.00000  Uiso   1.00
C23    C     0.14237   0.83486   0.62616   0.00000  Uiso   1.00
H24    H     0.05835   0.14841   0.62052   0.00000  Uiso   1.00
H25    H     0.00254   0.16222   0.70893   0.00000  Uiso   1.00
H26    H     0.09830   0.31214   0.58430   0.00000  Uiso   1.00
H27    H     0.06538   0.97888   0.55644   0.00000  Uiso   1.00
H28    H     0.95461   0.16502   0.82565   0.00000  Uiso   1.00
H29    H     0.15652   0.48111   0.56285   0.00000  Uiso   1.00
H30    H     0.08710   0.77837   0.50410   0.00000  Uiso   1.00
H31    H     0.16567   0.05174   0.76460   0.00000  Uiso   1.00
H32    H     0.11576   0.06024   0.86092   0.00000  Uiso   1.00
H33    H     0.21152   0.21017   0.73629   0.00000  Uiso   1.00
H34    H     0.17859   0.87690   0.70843   0.00000  Uiso   1.00
H35    H     0.04650   0.08226   0.94901   0.00000  Uiso   1.00
H36    H     0.24842   0.39835   0.68621   0.00000  Uiso   1.00
H37    H     0.17899   0.69560   0.62746   0.00000  Uiso   1.00
O38    O     0.96579   0.13101   0.94810   0.00000  Uiso   1.00
O39    O     0.23069   0.54570   0.60330   0.00000  Uiso   1.00
O40    O     0.13961   0.62371   0.52622   0.00000  Uiso   1.00
N41    N     0.98308   0.14436   0.84147   0.00000  Uiso   1.00
N42    N     0.17186   0.43989   0.59577   0.00000  Uiso   1.00
N43    N     0.10696   0.78290   0.54083   0.00000  Uiso   1.00
N44    N     0.03253   0.09982   0.90784   0.00000  Uiso   1.00
N45    N     0.22130   0.39536   0.66215   0.00000  Uiso   1.00
N46    N     0.15640   0.73836   0.60721   0.00000  Uiso   1.00
C47    C     0.58293   0.62626   0.65353   0.00000  Uiso   1.00
C48    C     0.56750   0.62035   0.72154   0.00000  Uiso   1.00
C49    C     0.52698   0.64020   0.74176   0.00000  Uiso   1.00
C50    C     0.51915   0.63059   0.80595   0.00000  Uiso   1.00
C51    C     0.49038   0.62579   0.90511   0.00000  Uiso   1.00
C52    C     0.61952   0.70181   0.65384   0.00000  Uiso   1.00
C53    C     0.62275   0.79015   0.61711   0.00000  Uiso   1.00
C54    C     0.65871   0.84911   0.62431   0.00000  Uiso   1.00
C55    C     0.71073   0.97074   0.61832   0.00000  Uiso   1.00
C56    C     0.60163   0.52074   0.63870   0.00000  Uiso   1.00
C57    C     0.58982   0.45684   0.58924   0.00000  Uiso   1.00
C58    C     0.61073   0.36335   0.58368   0.00000  Uiso   1.00
C59    C     0.63497   0.20384   0.55420   0.00000  Uiso   1.00
C60    C     0.64108   0.57389   0.73159   0.00000  Uiso   1.00
C61    C     0.59908   0.59191   0.76394   0.00000  Uiso   1.00
C62    C     0.59131   0.58226   0.82812   0.00000  Uiso   1.00
C63    C     0.55079   0.60209   0.84842   0.00000  Uiso   1.00
C64    C     0.65111   0.67337   0.69623   0.00000  Uiso   1.00
C65    C     0.68708   0.73221   0.70348   0.00000  Uiso   1.00
C66    C     0.69036   0.82061   0.66678   0.00000  Uiso   1.00
C67    C     0.63321   0.49229   0.68110   0.00000  Uiso   1.00
C68    C     0.65415   0.39889   0.67561   0.00000  Uiso   1.00
C69    C     0.64237   0.33486   0.62616   0.00000  Uiso   1.00
H70    H     0.55835   0.64841   0.62052   0.00000  Uiso   1.00
H71    H     0.50254   0.66222   0.70893   0.00000  Uiso   1.00
H72    H     0.59830   0.81214   0.58430   0.00000  Uiso   1.00
H73    H     0.56538   0.47888   0.55644   0.00000  Uiso   1.00
H74    H     0.45461   0.66502   0.82565   0.00000  Uiso   1.00
H75    H     0.65652   0.98111   0.56285   0.00000  Uiso   1.00
H76    H     0.58710   0.27837   0.50410   0.00000  Uiso   1.00
H77    H     0.66567   0.55174   0.76460   0.00000  Uiso   1.00
H78    H     0.61576   0.56024   0.86092   0.00000  Uiso   1.00
H79    H     0.71152   0.71017   0.73629   0.00000  Uiso   1.00
H80    H     0.67859   0.37690   0.70843   0.00000  Uiso   1.00
H81    H     0.54650   0.58226   0.94901   0.00000  Uiso   1.00
H82    H     0.74842   0.89835   0.68621   0.00000  Uiso   1.00
H83    H     0.67899   0.19560   0.62746   0.00000  Uiso   1.00
O84    O     0.46579   0.63101   0.94810   0.00000  Uiso   1.00
O85    O     0.73069   0.04570   0.60330   0.00000  Uiso   1.00
O86    O     0.63961   0.12371   0.52622   0.00000  Uiso   1.00
N87    N     0.48308   0.64436   0.84147   0.00000  Uiso   1.00
N88    N     0.67186   0.93989   0.59577   0.00000  Uiso   1.00
N89    N     0.60696   0.28290   0.54083   0.00000  Uiso   1.00
N90    N     0.53253   0.59982   0.90784   0.00000  Uiso   1.00
N91    N     0.72130   0.89536   0.66215   0.00000  Uiso   1.00
N92    N     0.65640   0.23836   0.60721   0.00000  Uiso   1.00
C93    C     0.41707   0.37374   0.65353   0.00000  Uiso   1.00
C94    C     0.43250   0.37965   0.72154   0.00000  Uiso   1.00
C95    C     0.47302   0.35980   0.74176   0.00000  Uiso   1.00
C96    C     0.48085   0.36941   0.80595   0.00000  Uiso   1.00
C97    C     0.50962   0.37421   0.90511   0.00000  Uiso   1.00
C98    C     0.38048   0.29819   0.65384   0.00000  Uiso   1.00
C99    C     0.37725   0.20985   0.61711   0.00000  Uiso   1.00
C100   C     0.34129   0.15089   0.62431   0.00000  Uiso   1.00
C101   C     0.28927   0.02926   0.61832   0.00000  Uiso   1.00
C102   C     0.39837   0.47926   0.63870   0.00000  Uiso   1.00
C103   C     0.41018   0.54316   0.58924   0.00000  Uiso   1.00
C104   C     0.38927   0.63665   0.58368   0.00000  Uiso   1.00
C105   C     0.36503   0.79616   0.55420   0.00000  Uiso   1.00
C106   C     0.35892   0.42611   0.73159   0.00000  Uiso   1.00
C107   C     0.40092   0.40809   0.76394   0.00000  Uiso   1.00
C108   C     0.40869   0.41774   0.82812   0.00000  Uiso   1.00
C109   C     0.44921   0.39791   0.84842   0.00000  Uiso   1.00
C110   C     0.34889   0.32663   0.69623   0.00000  Uiso   1.00
C111   C     0.31292   0.26779   0.70348   0.00000  Uiso   1.00
C112   C     0.30964   0.17939   0.66678   0.00000  Uiso   1.00
C113   C     0.36679   0.50771   0.68110   0.00000  Uiso   1.00
C114   C     0.34585   0.60111   0.67561   0.00000  Uiso   1.00
C115   C     0.35763   0.66514   0.62616   0.00000  Uiso   1.00
H116   H     0.44165   0.35159   0.62052   0.00000  Uiso   1.00
H117   H     0.49746   0.33778   0.70893   0.00000  Uiso   1.00
H118   H     0.40170   0.18786   0.58430   0.00000  Uiso   1.00
H119   H     0.43462   0.52112   0.55644   0.00000  Uiso   1.00
H120   H     0.54539   0.33498   0.82565   0.00000  Uiso   1.00
H121   H     0.34348   0.01889   0.56285   0.00000  Uiso   1.00
H122   H     0.41290   0.72163   0.50410   0.00000  Uiso   1.00
H123   H     0.33433   0.44826   0.76460   0.00000  Uiso   1.00
H124   H     0.38424   0.43976   0.86092   0.00000  Uiso   1.00
H125   H     0.28848   0.28983   0.73629   0.00000  Uiso   1.00
H126   H     0.32141   0.62310   0.70843   0.00000  Uiso   1.00
H127   H     0.45350   0.41774   0.94901   0.00000  Uiso   1.00
H128   H     0.25158   0.10165   0.68621   0.00000  Uiso   1.00
H129   H     0.32101   0.80440   0.62746   0.00000  Uiso   1.00
O130   O     0.53421   0.36899   0.94810   0.00000  Uiso   1.00
O131   O     0.26931   0.95430   0.60330   0.00000  Uiso   1.00
O132   O     0.36039   0.87629   0.52622   0.00000  Uiso   1.00
N133   N     0.51692   0.35564   0.84147   0.00000  Uiso   1.00
N134   N     0.32814   0.06011   0.59577   0.00000  Uiso   1.00
N135   N     0.39304   0.71710   0.54083   0.00000  Uiso   1.00
N136   N     0.46747   0.40018   0.90784   0.00000  Uiso   1.00
N137   N     0.27870   0.10464   0.66215   0.00000  Uiso   1.00
N138   N     0.34360   0.76164   0.60721   0.00000  Uiso   1.00
C139   C     0.91707   0.87374   0.65353   0.00000  Uiso   1.00
C140   C     0.93250   0.87965   0.72154   0.00000  Uiso   1.00
C141   C     0.97302   0.85980   0.74176   0.00000  Uiso   1.00
C142   C     0.98085   0.86941   0.80595   0.00000  Uiso   1.00
C143   C     0.00962   0.87421   0.90511   0.00000  Uiso   1.00
C144   C     0.88048   0.79819   0.65384   0.00000  Uiso   1.00
C145   C     0.87725   0.70985   0.61711   0.00000  Uiso   1.00
C146   C     0.84129   0.65089   0.62431   0.00000  Uiso   1.00
C147   C     0.78927   0.52926   0.61832   0.00000  Uiso   1.00
C148   C     0.89837   0.97926   0.63870   0.00000  Uiso   1.00
C149   C     0.91018   0.04316   0.58924   0.00000  Uiso   1.00
C150   C     0.88927   0.13665   0.58368   0.00000  Uiso   1.00
C151   C     0.86503   0.29616   0.55420   0.00000  Uiso   1.00
C152   C     0.85892   0.92611   0.73159   0.00000  Uiso   1.00
C153   C     0.90092   0.90809   0.76394   0.00000  Uiso   1.00
C154   C     0.90869   0.91774   0.82812   0.00000  Uiso   1.00
C155   C     0.94921   0.89791   0.84842   0.00000  Uiso   1.00
C156   C     0.84889   0.82663   0.69623   0.00000  Uiso   1.00
C157   C     0.81292   0.76779   0.70348   0.00000  Uiso   1.00
C158   C     0.80964   0.67939   0.66678   0.00000  Uiso   1.00
C159   C     0.86679   0.00771   0.68110   0.00000  Uiso   1.00
C160   C     0.84585   0.10111   0.67561   0.00000  Uiso   1.00
C161   C     0.85763   0.16514   0.62616   0.00000  Uiso   1.00
H162   H     0.94165   0.85159   0.62052   0.00000  Uiso   1.00
H163   H     0.99746   0.83778   0.70893   0.00000  Uiso   1.00
H164   H     0.90170   0.68786   0.58430   0.00000  Uiso   1.00
H165   H     0.93462   0.02112   0.55644   0.00000  Uiso   1.00
H166   H     0.04539   0.83498   0.82565   0.00000  Uiso   1.00
H167   H     0.84348   0.51889   0.56285   0.00000  Uiso   1.00
H168   H     0.91290   0.22163   0.50410   0.00000  Uiso   1.00
H169   H     0.83433   0.94826   0.76460   0.00000  Uiso   1.00
H170   H     0.88424   0.93976   0.86092   0.00000  Uiso   1.00
H171   H     0.78848   0.78983   0.73629   0.00000  Uiso   1.00
H172   H     0.82141   0.12310   0.70843   0.00000  Uiso   1.00
H173   H     0.95350   0.91774   0.94901   0.00000  Uiso   1.00
H174   H     0.75158   0.60165   0.68621   0.00000  Uiso   1.00
H175   H     0.82101   0.30440   0.62746   0.00000  Uiso   1.00
O176   O     0.03421   0.86899   0.94810   0.00000  Uiso   1.00
O177   O     0.76931   0.45430   0.60330   0.00000  Uiso   1.00
O178   O     0.86039   0.37629   0.52622   0.00000  Uiso   1.00
N179   N     0.01692   0.85564   0.84147   0.00000  Uiso   1.00
N180   N     0.82814   0.56011   0.59577   0.00000  Uiso   1.00
N181   N     0.89304   0.21710   0.54083   0.00000  Uiso   1.00
N182   N     0.96747   0.90018   0.90784   0.00000  Uiso   1.00
N183   N     0.77870   0.60464   0.66215   0.00000  Uiso   1.00
N184   N     0.84360   0.26164   0.60721   0.00000  Uiso   1.00
C185   C     0.91707   0.12626   0.34647   0.00000  Uiso   1.00
C186   C     0.93250   0.12035   0.27846   0.00000  Uiso   1.00
C187   C     0.97302   0.14020   0.25824   0.00000  Uiso   1.00
C188   C     0.98085   0.13059   0.19405   0.00000  Uiso   1.00
C189   C     0.00962   0.12579   0.09489   0.00000  Uiso   1.00
C190   C     0.88048   0.20181   0.34616   0.00000  Uiso   1.00
C191   C     0.87725   0.29015   0.38289   0.00000  Uiso   1.00
C192   C     0.84129   0.34911   0.37569   0.00000  Uiso   1.00
C193   C     0.78927   0.47074   0.38168   0.00000  Uiso   1.00
C194   C     0.89837   0.02074   0.36130   0.00000  Uiso   1.00
C195   C     0.91018   0.95684   0.41076   0.00000  Uiso   1.00
C196   C     0.88927   0.86335   0.41632   0.00000  Uiso   1.00
C197   C     0.86503   0.70384   0.44580   0.00000  Uiso   1.00
C198   C     0.85892   0.07389   0.26841   0.00000  Uiso   1.00
C199   C     0.90092   0.09191   0.23606   0.00000  Uiso   1.00
C200   C     0.90869   0.08226   0.17188   0.00000  Uiso   1.00
C201   C     0.94921   0.10209   0.15158   0.00000  Uiso   1.00
C202   C     0.84889   0.17337   0.30377   0.00000  Uiso   1.00
C203   C     0.81292   0.23221   0.29652   0.00000  Uiso   1.00
C204   C     0.80964   0.32061   0.33322   0.00000  Uiso   1.00
C205   C     0.86679   0.99229   0.31890   0.00000  Uiso   1.00
C206   C     0.84585   0.89889   0.32439   0.00000  Uiso   1.00
C207   C     0.85763   0.83486   0.37384   0.00000  Uiso   1.00
H208   H     0.94165   0.14841   0.37948   0.00000  Uiso   1.00
H209   H     0.99746   0.16222   0.29107   0.00000  Uiso   1.00
H210   H     0.90170   0.31214   0.41570   0.00000  Uiso   1.00
H211   H     0.93462   0.97888   0.44356   0.00000  Uiso   1.00
H212   H     0.04539   0.16502   0.17435   0.00000  Uiso   1.00
H213   H     0.84348   0.48111   0.43715   0.00000  Uiso   1.00
H214   H     0.91290   0.77837   0.49590   0.00000  Uiso   1.00
H215   H     0.83433   0.05174   0.23540   0.00000  Uiso   1.00
H216   H     0.88424   0.06024   0.13908   0.00000  Uiso   1.00
H217   H     0.78848   0.21017   0.26371   0.00000  Uiso   1.00
H218   H     0.82141   0.87690   0.29157   0.00000  Uiso   1.00
H219   H     0.95350   0.08226   0.05099   0.00000  Uiso   1.00
H220   H     0.75158   0.39835   0.31379   0.00000  Uiso   1.00
H221   H     0.82101   0.69560   0.37254   0.00000  Uiso   1.00
O222   O     0.03421   0.13101   0.05190   0.00000  Uiso   1.00
O223   O     0.76931   0.54570   0.39670   0.00000  Uiso   1.00
O224   O     0.86039   0.62371   0.47378   0.00000  Uiso   1.00
N225   N     0.01692   0.14436   0.15853   0.00000  Uiso   1.00
N226   N     0.82814   0.43989   0.40423   0.00000  Uiso   1.00
N227   N     0.89304   0.78290   0.45917   0.00000  Uiso   1.00
N228   N     0.96747   0.09982   0.09216   0.00000  Uiso   1.00
N229   N     0.77870   0.39536   0.33785   0.00000  Uiso   1.00
N230   N     0.84360   0.73836   0.39279   0.00000  Uiso   1.00
C231   C     0.41707   0.62626   0.34647   0.00000  Uiso   1.00
C232   C     0.43250   0.62035   0.27846   0.00000  Uiso   1.00
C233   C     0.47302   0.64020   0.25824   0.00000  Uiso   1.00
C234   C     0.48085   0.63059   0.19405   0.00000  Uiso   1.00
C235   C     0.50962   0.62579   0.09489   0.00000  Uiso   1.00
C236   C     0.38048   0.70181   0.34616   0.00000  Uiso   1.00
C237   C     0.37725   0.79015   0.38289   0.00000  Uiso   1.00
C238   C     0.34129   0.84911   0.37569   0.00000  Uiso   1.00
C239   C     0.28927   0.97074   0.38168   0.00000  Uiso   1.00
C240   C     0.39837   0.52074   0.36130   0.00000  Uiso   1.00
C241   C     0.41018   0.45684   0.41076   0.00000  Uiso   1.00
C242   C     0.38927   0.36335   0.41632   0.00000  Uiso   1.00
C243   C     0.36503   0.20384   0.44580   0.00000  Uiso   1.00
C244   C     0.35892   0.57389   0.26841   0.00000  Uiso   1.00
C245   C     0.40092   0.59191   0.23606   0.00000  Uiso   1.00
C246   C     0.40869   0.58226   0.17188   0.00000  Uiso   1.00
C247   C     0.44921   0.60209   0.15158   0.00000  Uiso   1.00
C248   C     0.34889   0.67337   0.30377   0.00000  Uiso   1.00
C249   C     0.31292   0.73221   0.29652   0.00000  Uiso   1.00
C250   C     0.30964   0.82061   0.33322   0.00000  Uiso   1.00
C251   C     0.36679   0.49229   0.31890   0.00000  Uiso   1.00
C252   C     0.34585   0.39889   0.32439   0.00000  Uiso   1.00
C253   C     0.35763   0.33486   0.37384   0.00000  Uiso   1.00
H254   H     0.44165   0.64841   0.37948   0.00000  Uiso   1.00
H255   H     0.49746   0.66222   0.29107   0.00000  Uiso   1.00
H256   H     0.40170   0.81214   0.41570   0.00000  Uiso   1.00
H257   H     0.43462   0.47888   0.44356   0.00000  Uiso   1.00
H258   H     0.54539   0.66502   0.17435   0.00000  Uiso   1.00
H259   H     0.34348   0.98111   0.43715   0.00000  Uiso   1.00
H260   H     0.41290   0.27837   0.49590   0.00000  Uiso   1.00
H261   H     0.33433   0.55174   0.23540   0.00000  Uiso   1.00
H262   H     0.38424   0.56024   0.13908   0.00000  Uiso   1.00
H263   H     0.28848   0.71017   0.26371   0.00000  Uiso   1.00
H264   H     0.32141   0.37690   0.29157   0.00000  Uiso   1.00
H265   H     0.45350   0.58226   0.05099   0.00000  Uiso   1.00
H266   H     0.25158   0.89835   0.31379   0.00000  Uiso   1.00
H267   H     0.32101   0.19560   0.37254   0.00000  Uiso   1.00
O268   O     0.53421   0.63101   0.05190   0.00000  Uiso   1.00
O269   O     0.26931   0.04570   0.39670   0.00000  Uiso   1.00
O270   O     0.36039   0.12371   0.47378   0.00000  Uiso   1.00
N271   N     0.51692   0.64436   0.15853   0.00000  Uiso   1.00
N272   N     0.32814   0.93989   0.40423   0.00000  Uiso   1.00
N273   N     0.39304   0.28290   0.45917   0.00000  Uiso   1.00
N274   N     0.46747   0.59982   0.09216   0.00000  Uiso   1.00
N275   N     0.27870   0.89536   0.33785   0.00000  Uiso   1.00
N276   N     0.34360   0.23836   0.39279   0.00000  Uiso   1.00
C277   C     0.58293   0.37374   0.34647   0.00000  Uiso   1.00
C278   C     0.56750   0.37965   0.27846   0.00000  Uiso   1.00
C279   C     0.52698   0.35980   0.25824   0.00000  Uiso   1.00
C280   C     0.51915   0.36941   0.19405   0.00000  Uiso   1.00
C281   C     0.49038   0.37421   0.09489   0.00000  Uiso   1.00
C282   C     0.61952   0.29819   0.34616   0.00000  Uiso   1.00
C283   C     0.62275   0.20985   0.38289   0.00000  Uiso   1.00
C284   C     0.65871   0.15089   0.37569   0.00000  Uiso   1.00
C285   C     0.71073   0.02926   0.38168   0.00000  Uiso   1.00
C286   C     0.60163   0.47926   0.36130   0.00000  Uiso   1.00
C287   C     0.58982   0.54316   0.41076   0.00000  Uiso   1.00
C288   C     0.61073   0.63665   0.41632   0.00000  Uiso   1.00
C289   C     0.63497   0.79616   0.44580   0.00000  Uiso   1.00
C290   C     0.64108   0.42611   0.26841   0.00000  Uiso   1.00
C291   C     0.59908   0.40809   0.23606   0.00000  Uiso   1.00
C292   C     0.59131   0.41774   0.17188   0.00000  Uiso   1.00
C293   C     0.55079   0.39791   0.15158   0.00000  Uiso   1.00
C294   C     0.65111   0.32663   0.30377   0.00000  Uiso   1.00
C295   C     0.68708   0.26779   0.29652   0.00000  Uiso   1.00
C296   C     0.69036   0.17939   0.33322   0.00000  Uiso   1.00
C297   C     0.63321   0.50771   0.31890   0.00000  Uiso   1.00
C298   C     0.65415   0.60111   0.32439   0.00000  Uiso   1.00
C299   C     0.64237   0.66514   0.37384   0.00000  Uiso   1.00
H300   H     0.55835   0.35159   0.37948   0.00000  Uiso   1.00
H301   H     0.50254   0.33778   0.29107   0.00000  Uiso   1.00
H302   H     0.59830   0.18786   0.41570   0.00000  Uiso   1.00
H303   H     0.56538   0.52112   0.44356   0.00000  Uiso   1.00
H304   H     0.45461   0.33498   0.17435   0.00000  Uiso   1.00
H305   H     0.65652   0.01889   0.43715   0.00000  Uiso   1.00
H306   H     0.58710   0.72163   0.49590   0.00000  Uiso   1.00
H307   H     0.66567   0.44826   0.23540   0.00000  Uiso   1.00
H308   H     0.61576   0.43976   0.13908   0.00000  Uiso   1.00
H309   H     0.71152   0.28983   0.26371   0.00000  Uiso   1.00
H310   H     0.67859   0.62310   0.29157   0.00000  Uiso   1.00
H311   H     0.54650   0.41774   0.05099   0.00000  Uiso   1.00
H312   H     0.74842   0.10165   0.31379   0.00000  Uiso   1.00
H313   H     0.67899   0.80440   0.37254   0.00000  Uiso   1.00
O314   O     0.46579   0.36899   0.05190   0.00000  Uiso   1.00
O315   O     0.73069   0.95430   0.39670   0.00000  Uiso   1.00
O316   O     0.63961   0.87629   0.47378   0.00000  Uiso   1.00
N317   N     0.48308   0.35564   0.15853   0.00000  Uiso   1.00
N318   N     0.67186   0.06011   0.40423   0.00000  Uiso   1.00
N319   N     0.60696   0.71710   0.45917   0.00000  Uiso   1.00
N320   N     0.53253   0.40018   0.09216   0.00000  Uiso   1.00
N321   N     0.72130   0.10464   0.33785   0.00000  Uiso   1.00
N322   N     0.65640   0.76164   0.39279   0.00000  Uiso   1.00
C323   C     0.08293   0.87374   0.34647   0.00000  Uiso   1.00
C324   C     0.06750   0.87965   0.27846   0.00000  Uiso   1.00
C325   C     0.02698   0.85980   0.25824   0.00000  Uiso   1.00
C326   C     0.01915   0.86941   0.19405   0.00000  Uiso   1.00
C327   C     0.99038   0.87421   0.09489   0.00000  Uiso   1.00
C328   C     0.11952   0.79819   0.34616   0.00000  Uiso   1.00
C329   C     0.12275   0.70985   0.38289   0.00000  Uiso   1.00
C330   C     0.15871   0.65089   0.37569   0.00000  Uiso   1.00
C331   C     0.21073   0.52926   0.38168   0.00000  Uiso   1.00
C332   C     0.10163   0.97926   0.36130   0.00000  Uiso   1.00
C333   C     0.08982   0.04316   0.41076   0.00000  Uiso   1.00
C334   C     0.11073   0.13665   0.41632   0.00000  Uiso   1.00
C335   C     0.13497   0.29616   0.44580   0.00000  Uiso   1.00
C336   C     0.14108   0.92611   0.26841   0.00000  Uiso   1.00
C337   C     0.09908   0.90809   0.23606   0.00000  Uiso   1.00
C338   C     0.09131   0.91774   0.17188   0.00000  Uiso   1.00
C339   C     0.05079   0.89791   0.15158   0.00000  Uiso   1.00
C340   C     0.15111   0.82663   0.30377   0.00000  Uiso   1.00
C341   C     0.18708   0.76779   0.29652   0.00000  Uiso   1.00
C342   C     0.19036   0.67939   0.33322   0.00000  Uiso   1.00
C343   C     0.13321   0.00771   0.31890   0.00000  Uiso   1.00
C344   C     0.15415   0.10111   0.32439   0.00000  Uiso   1.00
C345   C     0.14237   0.16514   0.37384   0.00000  Uiso   1.00
H346   H     0.05835   0.85159   0.37948   0.00000  Uiso   1.00
H347   H     0.00254   0.83778   0.29107   0.00000  Uiso   1.00
H348   H     0.09830   0.68786   0.41570   0.00000  Uiso   1.00
H349   H     0.06538   0.02112   0.44356   0.00000  Uiso   1.00
H350   H     0.95461   0.83498   0.17435   0.00000  Uiso   1.00
H351   H     0.15652   0.51889   0.43715   0.00000  Uiso   1.00
H352   H     0.08710   0.22163   0.49590   0.00000  Uiso   1.00
H353   H     0.16567   0.94826   0.23540   0.00000  Uiso   1.00
H354   H     0.11576   0.93976   0.13908   0.00000  Uiso   1.00
H355   H     0.21152   0.78983   0.26371   0.00000  Uiso   1.00
H356   H     0.17859   0.12310   0.29157   0.00000  Uiso   1.00
H357   H     0.04650   0.91774   0.05099   0.00000  Uiso   1.00
H358   H     0.24842   0.60165   0.31379   0.00000  Uiso   1.00
H359   H     0.17899   0.30440   0.37254   0.00000  Uiso   1.00
O360   O     0.96579   0.86899   0.05190   0.00000  Uiso   1.00
O361   O     0.23069   0.45430   0.39670   0.00000  Uiso   1.00
O362   O     0.13961   0.37629   0.47378   0.00000  Uiso   1.00
N363   N     0.98308   0.85564   0.15853   0.00000  Uiso   1.00
N364   N     0.17186   0.56011   0.40423   0.00000  Uiso   1.00
N365   N     0.10696   0.21710   0.45917   0.00000  Uiso   1.00
N366   N     0.03253   0.90018   0.09216   0.00000  Uiso   1.00
N367   N     0.22130   0.60464   0.33785   0.00000  Uiso   1.00
N368   N     0.15640   0.26164   0.39279   0.00000  Uiso   1.00
C369   C     0.91707   0.37374   0.84647   0.00000  Uiso   1.00
C370   C     0.93250   0.37965   0.77846   0.00000  Uiso   1.00
C371   C     0.97302   0.35980   0.75824   0.00000  Uiso   1.00
C372   C     0.98085   0.36941   0.69405   0.00000  Uiso   1.00
C373   C     0.00962   0.37421   0.59489   0.00000  Uiso   1.00
C374   C     0.88048   0.29819   0.84616   0.00000  Uiso   1.00
C375   C     0.87725   0.20985   0.88289   0.00000  Uiso   1.00
C376   C     0.84129   0.15089   0.87569   0.00000  Uiso   1.00
C377   C     0.78927   0.02926   0.88168   0.00000  Uiso   1.00
C378   C     0.89837   0.47926   0.86130   0.00000  Uiso   1.00
C379   C     0.91018   0.54316   0.91076   0.00000  Uiso   1.00
C380   C     0.88927   0.63665   0.91632   0.00000  Uiso   1.00
C381   C     0.86503   0.79616   0.94580   0.00000  Uiso   1.00
C382   C     0.85892   0.42611   0.76841   0.00000  Uiso   1.00
C383   C     0.90092   0.40809   0.73606   0.00000  Uiso   1.00
C384   C     0.90869   0.41774   0.67188   0.00000  Uiso   1.00
C385   C     0.94921   0.39791   0.65158   0.00000  Uiso   1.00
C386   C     0.84889   0.32663   0.80377   0.00000  Uiso   1.00
C387   C     0.81292   0.26779   0.79652   0.00000  Uiso   1.00
C388   C     0.80964   0.17939   0.83322   0.00000  Uiso   1.00
C389   C     0.86679   0.50771   0.81890   0.00000  Uiso   1.00
C390   C     0.84585   0.60111   0.82439   0.00000  Uiso   1.00
C391   C     0.85763   0.66514   0.87384   0.00000  Uiso   1.00
H392   H     0.94165   0.35159   0.87948   0.00000  Uiso   1.00
H393   H     0.99746   0.33778   0.79107   0.00000  Uiso   1.00
H394   H     0.90170   0.18786   0.91570   0.00000  Uiso   1.00
H395   H     0.93462   0.52112   0.94356   0.00000  Uiso   1.00
H396   H     0.04539   0.33498   0.67435   0.00000  Uiso   1.00
H397   H     0.84348   0.01889   0.93715   0.00000  Uiso   1.00
H398   H     0.91290   0.72163   0.99590   0.00000  Uiso   1.00
H399   H     0.83433   0.44826   0.73540   0.00000  Uiso   1.00
H400   H     0.88424   0.43976   0.63908   0.00000  Uiso   1.00
H401   H     0.78848   0.28983   0.76371   0.00000  Uiso   1.00
H402   H     0.82141   0.62310   0.79157   0.00000  Uiso   1.00
H403   H     0.95350   0.41774   0.55099   0.00000  Uiso   1.00
H404   H     0.75158   0.10165   0.81379   0.00000  Uiso   1.00
H405   H     0.82101   0.80440   0.87254   0.00000  Uiso   1.00
O406   O     0.03421   0.36899   0.55190   0.00000  Uiso   1.00
O407   O     0.76931   0.95430   0.89670   0.00000  Uiso   1.00
O408   O     0.86039   0.87629   0.97378   0.00000  Uiso   1.00
N409   N     0.01692   0.35564   0.65853   0.00000  Uiso   1.00
N410   N     0.82814   0.06011   0.90423   0.00000  Uiso   1.00
N411   N     0.89304   0.71710   0.95917   0.00000  Uiso   1.00
N412   N     0.96747   0.40018   0.59216   0.00000  Uiso   1.00
N413   N     0.77870   0.10464   0.83785   0.00000  Uiso   1.00
N414   N     0.84360   0.76164   0.89279   0.00000  Uiso   1.00
C415   C     0.41707   0.87374   0.84647   0.00000  Uiso   1.00
C416   C     0.43250   0.87965   0.77846   0.00000  Uiso   1.00
C417   C     0.47302   0.85980   0.75824   0.00000  Uiso   1.00
C418   C     0.48085   0.86941   0.69405   0.00000  Uiso   1.00
C419   C     0.50962   0.87421   0.59489   0.00000  Uiso   1.00
C420   C     0.38048   0.79819   0.84616   0.00000  Uiso   1.00
C421   C     0.37725   0.70985   0.88289   0.00000  Uiso   1.00
C422   C     0.34129   0.65089   0.87569   0.00000  Uiso   1.00
C423   C     0.28927   0.52926   0.88168   0.00000  Uiso   1.00
C424   C     0.39837   0.97926   0.86130   0.00000  Uiso   1.00
C425   C     0.41018   0.04316   0.91076   0.00000  Uiso   1.00
C426   C     0.38927   0.13665   0.91632   0.00000  Uiso   1.00
C427   C     0.36503   0.29616   0.94580   0.00000  Uiso   1.00
C428   C     0.35892   0.92611   0.76841   0.00000  Uiso   1.00
C429   C     0.40092   0.90809   0.73606   0.00000  Uiso   1.00
C430   C     0.40869   0.91774   0.67188   0.00000  Uiso   1.00
C431   C     0.44921   0.89791   0.65158   0.00000  Uiso   1.00
C432   C     0.34889   0.82663   0.80377   0.00000  Uiso   1.00
C433   C     0.31292   0.76779   0.79652   0.00000  Uiso   1.00
C434   C     0.30964   0.67939   0.83322   0.00000  Uiso   1.00
C435   C     0.36679   0.00771   0.81890   0.00000  Uiso   1.00
C436   C     0.34585   0.10111   0.82439   0.00000  Uiso   1.00
C437   C     0.35763   0.16514   0.87384   0.00000  Uiso   1.00
H438   H     0.44165   0.85159   0.87948   0.00000  Uiso   1.00
H439   H     0.49746   0.83778   0.79107   0.00000  Uiso   1.00
H440   H     0.40170   0.68786   0.91570   0.00000  Uiso   1.00
H441   H     0.43462   0.02112   0.94356   0.00000  Uiso   1.00
H442   H     0.54539   0.83498   0.67435   0.00000  Uiso   1.00
H443   H     0.34348   0.51889   0.93715   0.00000  Uiso   1.00
H444   H     0.41290   0.22163   0.99590   0.00000  Uiso   1.00
H445   H     0.33433   0.94826   0.73540   0.00000  Uiso   1.00
H446   H     0.38424   0.93976   0.63908   0.00000  Uiso   1.00
H447   H     0.28848   0.78983   0.76371   0.00000  Uiso   1.00
H448   H     0.32141   0.12310   0.79157   0.00000  Uiso   1.00
H449   H     0.45350   0.91774   0.55099   0.00000  Uiso   1.00
H450   H     0.25158   0.60165   0.81379   0.00000  Uiso   1.00
H451   H     0.32101   0.30440   0.87254   0.00000  Uiso   1.00
O452   O     0.53421   0.86899   0.55190   0.00000  Uiso   1.00
O453   O     0.26931   0.45430   0.89670   0.00000  Uiso   1.00
O454   O     0.36039   0.37629   0.97378   0.00000  Uiso   1.00
N455   N     0.51692   0.85564   0.65853   0.00000  Uiso   1.00
N456   N     0.32814   0.56011   0.90423   0.00000  Uiso   1.00
N457   N     0.39304   0.21710   0.95917   0.00000  Uiso   1.00
N458   N     0.46747   0.90018   0.59216   0.00000  Uiso   1.00
N459   N     0.27870   0.60464   0.83785   0.00000  Uiso   1.00
N460   N     0.34360   0.26164   0.89279   0.00000  Uiso   1.00
C461   C     0.58293   0.12626   0.84647   0.00000  Uiso   1.00
C462   C     0.56750   0.12035   0.77846   0.00000  Uiso   1.00
C463   C     0.52698   0.14020   0.75824   0.00000  Uiso   1.00
C464   C     0.51915   0.13059   0.69405   0.00000  Uiso   1.00
C465   C     0.49038   0.12579   0.59489   0.00000  Uiso   1.00
C466   C     0.61952   0.20181   0.84616   0.00000  Uiso   1.00
C467   C     0.62275   0.29015   0.88289   0.00000  Uiso   1.00
C468   C     0.65871   0.34911   0.87569   0.00000  Uiso   1.00
C469   C     0.71073   0.47074   0.88168   0.00000  Uiso   1.00
C470   C     0.60163   0.02074   0.86130   0.00000  Uiso   1.00
C471   C     0.58982   0.95684   0.91076   0.00000  Uiso   1.00
C472   C     0.61073   0.86335   0.91632   0.00000  Uiso   1.00
C473   C     0.63497   0.70384   0.94580   0.00000  Uiso   1.00
C474   C     0.64108   0.07389   0.76841   0.00000  Uiso   1.00
C475   C     0.59908   0.09191   0.73606   0.00000  Uiso   1.00
C476   C     0.59131   0.08226   0.67188   0.00000  Uiso   1.00
C477   C     0.55079   0.10209   0.65158   0.00000  Uiso   1.00
C478   C     0.65111   0.17337   0.80377   0.00000  Uiso   1.00
C479   C     0.68708   0.23221   0.79652   0.00000  Uiso   1.00
C480   C     0.69036   0.32061   0.83322   0.00000  Uiso   1.00
C481   C     0.63321   0.99229   0.81890   0.00000  Uiso   1.00
C482   C     0.65415   0.89889   0.82439   0.00000  Uiso   1.00
C483   C     0.64237   0.83486   0.87384   0.00000  Uiso   1.00
H484   H     0.55835   0.14841   0.87948   0.00000  Uiso   1.00
H485   H     0.50254   0.16222   0.79107   0.00000  Uiso   1.00
H486   H     0.59830   0.31214   0.91570   0.00000  Uiso   1.00
H487   H     0.56538   0.97888   0.94356   0.00000  Uiso   1.00
H488   H     0.45461   0.16502   0.67435   0.00000  Uiso   1.00
H489   H     0.65652   0.48111   0.93715   0.00000  Uiso   1.00
H490   H     0.58710   0.77837   0.99590   0.00000  Uiso   1.00
H491   H     0.66567   0.05174   0.73540   0.00000  Uiso   1.00
H492   H     0.61576   0.06024   0.63908   0.00000  Uiso   1.00
H493   H     0.71152   0.21017   0.76371   0.00000  Uiso   1.00
H494   H     0.67859   0.87690   0.79157   0.00000  Uiso   1.00
H495   H     0.54650   0.08226   0.55099   0.00000  Uiso   1.00
H496   H     0.74842   0.39835   0.81379   0.00000  Uiso   1.00
H497   H     0.67899   0.69560   0.87254   0.00000  Uiso   1.00
O498   O     0.46579   0.13101   0.55190   0.00000  Uiso   1.00
O499   O     0.73069   0.54570   0.89670   0.00000  Uiso   1.00
O500   O     0.63961   0.62371   0.97378   0.00000  Uiso   1.00
N501   N     0.48308   0.14436   0.65853   0.00000  Uiso   1.00
N502   N     0.67186   0.43989   0.90423   0.00000  Uiso   1.00
N503   N     0.60696   0.78290   0.95917   0.00000  Uiso   1.00
N504   N     0.53253   0.09982   0.59216   0.00000  Uiso   1.00
N505   N     0.72130   0.39536   0.83785   0.00000  Uiso   1.00
N506   N     0.65640   0.73836   0.89279   0.00000  Uiso   1.00
C507   C     0.08293   0.62626   0.84647   0.00000  Uiso   1.00
C508   C     0.06750   0.62035   0.77846   0.00000  Uiso   1.00
C509   C     0.02698   0.64020   0.75824   0.00000  Uiso   1.00
C510   C     0.01915   0.63059   0.69405   0.00000  Uiso   1.00
C511   C     0.99038   0.62579   0.59489   0.00000  Uiso   1.00
C512   C     0.11952   0.70181   0.84616   0.00000  Uiso   1.00
C513   C     0.12275   0.79015   0.88289   0.00000  Uiso   1.00
C514   C     0.15871   0.84911   0.87569   0.00000  Uiso   1.00
C515   C     0.21073   0.97074   0.88168   0.00000  Uiso   1.00
C516   C     0.10163   0.52074   0.86130   0.00000  Uiso   1.00
C517   C     0.08982   0.45684   0.91076   0.00000  Uiso   1.00
C518   C     0.11073   0.36335   0.91632   0.00000  Uiso   1.00
C519   C     0.13497   0.20384   0.94580   0.00000  Uiso   1.00
C520   C     0.14108   0.57389   0.76841   0.00000  Uiso   1.00
C521   C     0.09908   0.59191   0.73606   0.00000  Uiso   1.00
C522   C     0.09131   0.58226   0.67188   0.00000  Uiso   1.00
C523   C     0.05079   0.60209   0.65158   0.00000  Uiso   1.00
C524   C     0.15111   0.67337   0.80377   0.00000  Uiso   1.00
C525   C     0.18708   0.73221   0.79652   0.00000  Uiso   1.00
C526   C     0.19036   0.82061   0.83322   0.00000  Uiso   1.00
C527   C     0.13321   0.49229   0.81890   0.00000  Uiso   1.00
C528   C     0.15415   0.39889   0.82439   0.00000  Uiso   1.00
C529   C     0.14237   0.33486   0.87384   0.00000  Uiso   1.00
H530   H     0.05835   0.64841   0.87948   0.00000  Uiso   1.00
H531   H     0.00254   0.66222   0.79107   0.00000  Uiso   1.00
H532   H     0.09830   0.81214   0.91570   0.00000  Uiso   1.00
H533   H     0.06538   0.47888   0.94356   0.00000  Uiso   1.00
H534   H     0.95461   0.66502   0.67435   0.00000  Uiso   1.00
H535   H     0.15652   0.98111   0.93715   0.00000  Uiso   1.00
H536   H     0.08710   0.27837   0.99590   0.00000  Uiso   1.00
H537   H     0.16567   0.55174   0.73540   0.00000  Uiso   1.00
H538   H     0.11576   0.56024   0.63908   0.00000  Uiso   1.00
H539   H     0.21152   0.71017   0.76371   0.00000  Uiso   1.00
H540   H     0.17859   0.37690   0.79157   0.00000  Uiso   1.00
H541   H     0.04650   0.58226   0.55099   0.00000  Uiso   1.00
H542   H     0.24842   0.89835   0.81379   0.00000  Uiso   1.00
H543   H     0.17899   0.19560   0.87254   0.00000  Uiso   1.00
O544   O     0.96579   0.63101   0.55190   0.00000  Uiso   1.00
O545   O     0.23069   0.04570   0.89670   0.00000  Uiso   1.00
O546   O     0.13961   0.12371   0.97378   0.00000  Uiso   1.00
N547   N     0.98308   0.64436   0.65853   0.00000  Uiso   1.00
N548   N     0.17186   0.93989   0.90423   0.00000  Uiso   1.00
N549   N     0.10696   0.28290   0.95917   0.00000  Uiso   1.00
N550   N     0.03253   0.59982   0.59216   0.00000  Uiso   1.00
N551   N     0.22130   0.89536   0.83785   0.00000  Uiso   1.00
N552   N     0.15640   0.23836   0.89279   0.00000  Uiso   1.00
C553   C     0.08293   0.37374   0.15353   0.00000  Uiso   1.00
C554   C     0.06750   0.37965   0.22154   0.00000  Uiso   1.00
C555   C     0.02698   0.35980   0.24176   0.00000  Uiso   1.00
C556   C     0.01915   0.36941   0.30595   0.00000  Uiso   1.00
C557   C     0.99038   0.37421   0.40511   0.00000  Uiso   1.00
C558   C     0.11952   0.29819   0.15384   0.00000  Uiso   1.00
C559   C     0.12275   0.20985   0.11711   0.00000  Uiso   1.00
C560   C     0.15871   0.15089   0.12431   0.00000  Uiso   1.00
C561   C     0.21073   0.02926   0.11832   0.00000  Uiso   1.00
C562   C     0.10163   0.47926   0.13870   0.00000  Uiso   1.00
C563   C     0.08982   0.54316   0.08924   0.00000  Uiso   1.00
C564   C     0.11073   0.63665   0.08368   0.00000  Uiso   1.00
C565   C     0.13497   0.79616   0.05420   0.00000  Uiso   1.00
C566   C     0.14108   0.42611   0.23159   0.00000  Uiso   1.00
C567   C     0.09908   0.40809   0.26394   0.00000  Uiso   1.00
C568   C     0.09131   0.41774   0.32812   0.00000  Uiso   1.00
C569   C     0.05079   0.39791   0.34842   0.00000  Uiso   1.00
C570   C     0.15111   0.32663   0.19623   0.00000  Uiso   1.00
C571   C     0.18708   0.26779   0.20348   0.00000  Uiso   1.00
C572   C     0.19036   0.17939   0.16678   0.00000  Uiso   1.00
C573   C     0.13321   0.50771   0.18110   0.00000  Uiso   1.00
C574   C     0.15415   0.60111   0.17561   0.00000  Uiso   1.00
C575   C     0.14237   0.66514   0.12616   0.00000  Uiso   1.00
H576   H     0.05835   0.35159   0.12052   0.00000  Uiso   1.00
H577   H     0.00254   0.33778   0.20893   0.00000  Uiso   1.00
H578   H     0.09830   0.18786   0.08430   0.00000  Uiso   1.00
H579   H     0.06538   0.52112   0.05644   0.00000  Uiso   1.00
H580   H     0.95461   0.33498   0.32565   0.00000  Uiso   1.00
H581   H     0.15652   0.01889   0.06285   0.00000  Uiso   1.00
H582   H     0.08710   0.72163   0.00410   0.00000  Uiso   1.00
H583   H     0.16567   0.44826   0.26460   0.00000  Uiso   1.00
H584   H     0.11576   0.43976   0.36092   0.00000  Uiso   1.00
H585   H     0.21152   0.28983   0.23629   0.00000  Uiso   1.00
H586   H     0.17859   0.62310   0.20843   0.00000  Uiso   1.00
H587   H     0.04650   0.41774   0.44901   0.00000  Uiso   1.00
H588   H     0.24842   0.10165   0.18621   0.00000  Uiso   1.00
H589   H     0.17899   0.80440   0.12746   0.00000  Uiso   1.00
O590   O     0.96579   0.36899   0.44810   0.00000  Uiso   1.00
O591   O     0.23069   0.95430   0.10330   0.00000  Uiso   1.00
O592   O     0.13961   0.87629   0.02622   0.00000  Uiso   1.00
N593   N     0.98308   0.35564   0.34147   0.00000  Uiso   1.00
N594   N     0.17186   0.06011   0.09577   0.00000  Uiso   1.00
N595   N     0.10696   0.71710   0.04083   0.00000  Uiso   1.00
N596   N     0.03253   0.40018   0.40784   0.00000  Uiso   1.00
N597   N     0.22130   0.10464   0.16215   0.00000  Uiso   1.00
N598   N     0.15640   0.76164   0.10721   0.00000  Uiso   1.00
C599   C     0.58293   0.87374   0.15353   0.00000  Uiso   1.00
C600   C     0.56750   0.87965   0.22154   0.00000  Uiso   1.00
C601   C     0.52698   0.85980   0.24176   0.00000  Uiso   1.00
C602   C     0.51915   0.86941   0.30595   0.00000  Uiso   1.00
C603   C     0.49038   0.87421   0.40511   0.00000  Uiso   1.00
C604   C     0.61952   0.79819   0.15384   0.00000  Uiso   1.00
C605   C     0.62275   0.70985   0.11711   0.00000  Uiso   1.00
C606   C     0.65871   0.65089   0.12431   0.00000  Uiso   1.00
C607   C     0.71073   0.52926   0.11832   0.00000  Uiso   1.00
C608   C     0.60163   0.97926   0.13870   0.00000  Uiso   1.00
C609   C     0.58982   0.04316   0.08924   0.00000  Uiso   1.00
C610   C     0.61073   0.13665   0.08368   0.00000  Uiso   1.00
C611   C     0.63497   0.29616   0.05420   0.00000  Uiso   1.00
C612   C     0.64108   0.92611   0.23159   0.00000  Uiso   1.00
C613   C     0.59908   0.90809   0.26394   0.00000  Uiso   1.00
C614   C     0.59131   0.91774   0.32812   0.00000  Uiso   1.00
C615   C     0.55079   0.89791   0.34842   0.00000  Uiso   1.00
C616   C     0.65111   0.82663   0.19623   0.00000  Uiso   1.00
C617   C     0.68708   0.76779   0.20348   0.00000  Uiso   1.00
C618   C     0.69036   0.67939   0.16678   0.00000  Uiso   1.00
C619   C     0.63321   0.00771   0.18110   0.00000  Uiso   1.00
C620   C     0.65415   0.10111   0.17561   0.00000  Uiso   1.00
C621   C     0.64237   0.16514   0.12616   0.00000  Uiso   1.00
H622   H     0.55835   0.85159   0.12052   0.00000  Uiso   1.00
H623   H     0.50254   0.83778   0.20893   0.00000  Uiso   1.00
H624   H     0.59830   0.68786   0.08430   0.00000  Uiso   1.00
H625   H     0.56538   0.02112   0.05644   0.00000  Uiso   1.00
H626   H     0.45461   0.83498   0.32565   0.00000  Uiso   1.00
H627   H     0.65652   0.51889   0.06285   0.00000  Uiso   1.00
H628   H     0.58710   0.22163   0.00410   0.00000  Uiso   1.00
H629   H     0.66567   0.94826   0.26460   0.00000  Uiso   1.00
H630   H     0.61576   0.93976   0.36092   0.00000  Uiso   1.00
H631   H     0.71152   0.78983   0.23629   0.00000  Uiso   1.00
H632   H     0.67859   0.12310   0.20843   0.00000  Uiso   1.00
H633   H     0.54650   0.91774   0.44901   0.00000  Uiso   1.00
H634   H     0.74842   0.60165   0.18621   0.00000  Uiso   1.00
H635   H     0.67899   0.30440   0.12746   0.00000  Uiso   1.00
O636   O     0.46579   0.86899   0.44810   0.00000  Uiso   1.00
O637   O     0.73069   0.45430   0.10330   0.00000  Uiso   1.00
O638   O     0.63961   0.37629   0.02622   0.00000  Uiso   1.00
N639   N     0.48308   0.85564   0.34147   0.00000  Uiso   1.00
N640   N     0.67186   0.56011   0.09577   0.00000  Uiso   1.00
N641   N     0.60696   0.21710   0.04083   0.00000  Uiso   1.00
N642   N     0.53253   0.90018   0.40784   0.00000  Uiso   1.00
N643   N     0.72130   0.60464   0.16215   0.00000  Uiso   1.00
N644   N     0.65640   0.26164   0.10721   0.00000  Uiso   1.00
C645   C     0.41707   0.12626   0.15353   0.00000  Uiso   1.00
C646   C     0.43250   0.12035   0.22154   0.00000  Uiso   1.00
C647   C     0.47302   0.14020   0.24176   0.00000  Uiso   1.00
C648   C     0.48085   0.13059   0.30595   0.00000  Uiso   1.00
C649   C     0.50962   0.12579   0.40511   0.00000  Uiso   1.00
C650   C     0.38048   0.20181   0.15384   0.00000  Uiso   1.00
C651   C     0.37725   0.29015   0.11711   0.00000  Uiso   1.00
C652   C     0.34129   0.34911   0.12431   0.00000  Uiso   1.00
C653   C     0.28927   0.47074   0.11832   0.00000  Uiso   1.00
C654   C     0.39837   0.02074   0.13870   0.00000  Uiso   1.00
C655   C     0.41018   0.95684   0.08924   0.00000  Uiso   1.00
C656   C     0.38927   0.86335   0.08368   0.00000  Uiso   1.00
C657   C     0.36503   0.70384   0.05420   0.00000  Uiso   1.00
C658   C     0.35892   0.07389   0.23159   0.00000  Uiso   1.00
C659   C     0.40092   0.09191   0.26394   0.00000  Uiso   1.00
C660   C     0.40869   0.08226   0.32812   0.00000  Uiso   1.00
C661   C     0.44921   0.10209   0.34842   0.00000  Uiso   1.00
C662   C     0.34889   0.17337   0.19623   0.00000  Uiso   1.00
C663   C     0.31292   0.23221   0.20348   0.00000  Uiso   1.00
C664   C     0.30964   0.32061   0.16678   0.00000  Uiso   1.00
C665   C     0.36679   0.99229   0.18110   0.00000  Uiso   1.00
C666   C     0.34585   0.89889   0.17561   0.00000  Uiso   1.00
C667   C     0.35763   0.83486   0.12616   0.00000  Uiso   1.00
H668   H     0.44165   0.14841   0.12052   0.00000  Uiso   1.00
H669   H     0.49746   0.16222   0.20893   0.00000  Uiso   1.00
H670   H     0.40170   0.31214   0.08430   0.00000  Uiso   1.00
H671   H     0.43462   0.97888   0.05644   0.00000  Uiso   1.00
H672   H     0.54539   0.16502   0.32565   0.00000  Uiso   1.00
H673   H     0.34348   0.48111   0.06285   0.00000  Uiso   1.00
H674   H     0.41290   0.77837   0.00410   0.00000  Uiso   1.00
H675   H     0.33433   0.05174   0.26460   0.00000  Uiso   1.00
H676   H     0.38424   0.06024   0.36092   0.00000  Uiso   1.00
H677   H     0.28848   0.21017   0.23629   0.00000  Uiso   1.00
H678   H     0.32141   0.87690   0.20843   0.00000  Uiso   1.00
H679   H     0.45350   0.08226   0.44901   0.00000  Uiso   1.00
H680   H     0.25158   0.39835   0.18621   0.00000  Uiso   1.00
H681   H     0.32101   0.69560   0.12746   0.00000  Uiso   1.00
O682   O     0.53421   0.13101   0.44810   0.00000  Uiso   1.00
O683   O     0.26931   0.54570   0.10330   0.00000  Uiso   1.00
O684   O     0.36039   0.62371   0.02622   0.00000  Uiso   1.00
N685   N     0.51692   0.14436   0.34147   0.00000  Uiso   1.00
N686   N     0.32814   0.43989   0.09577   0.00000  Uiso   1.00
N687   N     0.39304   0.78290   0.04083   0.00000  Uiso   1.00
N688   N     0.46747   0.09982   0.40784   0.00000  Uiso   1.00
N689   N     0.27870   0.39536   0.16215   0.00000  Uiso   1.00
N690   N     0.34360   0.73836   0.10721   0.00000  Uiso   1.00
C691   C     0.91707   0.62626   0.15353   0.00000  Uiso   1.00
C692   C     0.93250   0.62035   0.22154   0.00000  Uiso   1.00
C693   C     0.97302   0.64020   0.24176   0.00000  Uiso   1.00
C694   C     0.98085   0.63059   0.30595   0.00000  Uiso   1.00
C695   C     0.00962   0.62579   0.40511   0.00000  Uiso   1.00
C696   C     0.88048   0.70181   0.15384   0.00000  Uiso   1.00
C697   C     0.87725   0.79015   0.11711   0.00000  Uiso   1.00
C698   C     0.84129   0.84911   0.12431   0.00000  Uiso   1.00
C699   C     0.78927   0.97074   0.11832   0.00000  Uiso   1.00
C700   C     0.89837   0.52074   0.13870   0.00000  Uiso   1.00
C701   C     0.91018   0.45684   0.08924   0.00000  Uiso   1.00
C702   C     0.88927   0.36335   0.08368   0.00000  Uiso   1.00
C703   C     0.86503   0.20384   0.05420   0.00000  Uiso   1.00
C704   C     0.85892   0.57389   0.23159   0.00000  Uiso   1.00
C705   C     0.90092   0.59191   0.26394   0.00000  Uiso   1.00
C706   C     0.90869   0.58226   0.32812   0.00000  Uiso   1.00
C707   C     0.94921   0.60209   0.34842   0.00000  Uiso   1.00
C708   C     0.84889   0.67337   0.19623   0.00000  Uiso   1.00
C709   C     0.81292   0.73221   0.20348   0.00000  Uiso   1.00
C710   C     0.80964   0.82061   0.16678   0.00000  Uiso   1.00
C711   C     0.86679   0.49229   0.18110   0.00000  Uiso   1.00
C712   C     0.84585   0.39889   0.17561   0.00000  Uiso   1.00
C713   C     0.85763   0.33486   0.12616   0.00000  Uiso   1.00
H714   H     0.94165   0.64841   0.12052   0.00000  Uiso   1.00
H715   H     0.99746   0.66222   0.20893   0.00000  Uiso   1.00
H716   H     0.90170   0.81214   0.08430   0.00000  Uiso   1.00
H717   H     0.93462   0.47888   0.05644   0.00000  Uiso   1.00
H718   H     0.04539   0.66502   0.32565   0.00000  Uiso   1.00
H719   H     0.84348   0.98111   0.06285   0.00000  Uiso   1.00
H720   H     0.91290   0.27837   0.00410   0.00000  Uiso   1.00
H721   H     0.83433   0.55174   0.26460   0.00000  Uiso   1.00
H722   H     0.88424   0.56024   0.36092   0.00000  Uiso   1.00
H723   H     0.78848   0.71017   0.23629   0.00000  Uiso   1.00
H724   H     0.82141   0.37690   0.20843   0.00000  Uiso   1.00
H725   H     0.95350   0.58226   0.44901   0.00000  Uiso   1.00
H726   H     0.75158   0.89835   0.18621   0.00000  Uiso   1.00
H727   H     0.82101   0.19560   0.12746   0.00000  Uiso   1.00
O728   O     0.03421   0.63101   0.44810   0.00000  Uiso   1.00
O729   O     0.76931   0.04570   0.10330   0.00000  Uiso   1.00
O730   O     0.86039   0.12371   0.02622   0.00000  Uiso   1.00
N731   N     0.01692   0.64436   0.34147   0.00000  Uiso   1.00
N732   N     0.82814   0.93989   0.09577   0.00000  Uiso   1.00
N733   N     0.89304   0.28290   0.04083   0.00000  Uiso   1.00
N734   N     0.96747   0.59982   0.40784   0.00000  Uiso   1.00
N735   N     0.77870   0.89536   0.16215   0.00000  Uiso   1.00
N736   N     0.84360   0.23836   0.10721   0.00000  Uiso   1.00
