data_job_03134
_audit_creation_date              2018-12-19
_audit_creation_method            'Materials Studio'
_symmetry_space_group_name_H-M    'P1'
_symmetry_Int_Tables_number       1
_symmetry_cell_setting            triclinic
loop_
_symmetry_equiv_pos_as_xyz
  x,y,z
_cell_length_a                    20.5350
_cell_length_b                    15.1852
_cell_length_c                    31.6295
_cell_angle_alpha                 90.0000
_cell_angle_beta                  90.0000
_cell_angle_gamma                 90.0000
loop_
_atom_site_label
_atom_site_type_symbol
_atom_site_fract_x
_atom_site_fract_y
_atom_site_fract_z
_atom_site_U_iso_or_equiv
_atom_site_adp_type
_atom_site_occupancy
C1     C     0.10933   0.32466   0.40278   0.00000  Uiso   1.00
C2     C     0.13404   0.23152   0.39458   0.00000  Uiso   1.00
C3     C     0.16100   0.20141   0.35703   0.00000  Uiso   1.00
C4     C     0.18064   0.11395   0.35586   0.00000  Uiso   1.00
C5     C     0.22006   0.97772   0.33777   0.00000  Uiso   1.00
C6     C     0.03859   0.31493   0.41669   0.00000  Uiso   1.00
C7     C     0.98530   0.35496   0.39774   0.00000  Uiso   1.00
C8     C     0.92459   0.33772   0.41520   0.00000  Uiso   1.00
C9     C     0.81583   0.33104   0.43145   0.00000  Uiso   1.00
C10    C     0.14638   0.35779   0.44142   0.00000  Uiso   1.00
C11    C     0.18372   0.43387   0.44326   0.00000  Uiso   1.00
C12    C     0.21375   0.45273   0.48154   0.00000  Uiso   1.00
C13    C     0.27236   0.51260   0.53618   0.00000  Uiso   1.00
C14    C     0.09625   0.22288   0.46748   0.00000  Uiso   1.00
C15    C     0.12693   0.17624   0.42972   0.00000  Uiso   1.00
C16    C     0.14653   0.08880   0.42861   0.00000  Uiso   1.00
C17    C     0.17352   0.05857   0.39106   0.00000  Uiso   1.00
C18    C     0.03148   0.25965   0.45183   0.00000  Uiso   1.00
C19    C     0.97083   0.24235   0.46932   0.00000  Uiso   1.00
C20    C     0.91747   0.28234   0.45040   0.00000  Uiso   1.00
C21    C     0.13928   0.30251   0.47656   0.00000  Uiso   1.00
C22    C     0.16925   0.32126   0.51484   0.00000  Uiso   1.00
C23    C     0.20663   0.39735   0.51674   0.00000  Uiso   1.00
H24    H     0.11485   0.36770   0.37543   0.00000  Uiso   1.00
H25    H     0.16649   0.24421   0.32984   0.00000  Uiso   1.00
H26    H     0.99082   0.39774   0.37055   0.00000  Uiso   1.00
H27    H     0.18921   0.47663   0.41606   0.00000  Uiso   1.00
H28    H     0.22058   0.08291   0.29479   0.00000  Uiso   1.00
H29    H     0.85017   0.40666   0.38064   0.00000  Uiso   1.00
H30    H     0.26851   0.57303   0.47661   0.00000  Uiso   1.00
H31    H     0.09072   0.17984   0.49484   0.00000  Uiso   1.00
H32    H     0.14103   0.04604   0.45580   0.00000  Uiso   1.00
H33    H     0.96536   0.19957   0.49651   0.00000  Uiso   1.00
H34    H     0.16375   0.27847   0.54202   0.00000  Uiso   1.00
H35    H     0.19991   0.92206   0.39703   0.00000  Uiso   1.00
H36    H     0.82950   0.24583   0.48288   0.00000  Uiso   1.00
H37    H     0.24785   0.41219   0.57884   0.00000  Uiso   1.00
O38    O     0.24376   0.91785   0.31807   0.00000  Uiso   1.00
O39    O     0.75780   0.34262   0.43071   0.00000  Uiso   1.00
O40    O     0.30665   0.56088   0.55662   0.00000  Uiso   1.00
N41    N     0.20882   0.06342   0.32421   0.00000  Uiso   1.00
N42    N     0.86251   0.36610   0.40447   0.00000  Uiso   1.00
N43    N     0.25361   0.52165   0.49420   0.00000  Uiso   1.00
N44    N     0.19770   0.97687   0.37923   0.00000  Uiso   1.00
N45    N     0.85139   0.27956   0.45948   0.00000  Uiso   1.00
N46    N     0.24249   0.43511   0.54921   0.00000  Uiso   1.00
C47    C     0.10933   0.82466   0.90278   0.00000  Uiso   1.00
C48    C     0.13404   0.73152   0.89458   0.00000  Uiso   1.00
C49    C     0.16100   0.70141   0.85703   0.00000  Uiso   1.00
C50    C     0.18064   0.61395   0.85586   0.00000  Uiso   1.00
C51    C     0.22006   0.47772   0.83777   0.00000  Uiso   1.00
C52    C     0.03859   0.81493   0.91669   0.00000  Uiso   1.00
C53    C     0.98530   0.85496   0.89774   0.00000  Uiso   1.00
C54    C     0.92459   0.83772   0.91520   0.00000  Uiso   1.00
C55    C     0.81583   0.83104   0.93145   0.00000  Uiso   1.00
C56    C     0.14638   0.85779   0.94142   0.00000  Uiso   1.00
C57    C     0.18372   0.93387   0.94326   0.00000  Uiso   1.00
C58    C     0.21375   0.95273   0.98154   0.00000  Uiso   1.00
C59    C     0.27236   0.01260   0.03618   0.00000  Uiso   1.00
C60    C     0.09625   0.72288   0.96748   0.00000  Uiso   1.00
C61    C     0.12693   0.67624   0.92972   0.00000  Uiso   1.00
C62    C     0.14653   0.58880   0.92861   0.00000  Uiso   1.00
C63    C     0.17352   0.55857   0.89106   0.00000  Uiso   1.00
C64    C     0.03148   0.75965   0.95183   0.00000  Uiso   1.00
C65    C     0.97083   0.74235   0.96932   0.00000  Uiso   1.00
C66    C     0.91747   0.78234   0.95040   0.00000  Uiso   1.00
C67    C     0.13928   0.80251   0.97656   0.00000  Uiso   1.00
C68    C     0.16925   0.82126   0.01484   0.00000  Uiso   1.00
C69    C     0.20663   0.89735   0.01674   0.00000  Uiso   1.00
H70    H     0.11485   0.86770   0.87543   0.00000  Uiso   1.00
H71    H     0.16649   0.74421   0.82984   0.00000  Uiso   1.00
H72    H     0.99082   0.89774   0.87055   0.00000  Uiso   1.00
H73    H     0.18921   0.97663   0.91606   0.00000  Uiso   1.00
H74    H     0.22058   0.58291   0.79479   0.00000  Uiso   1.00
H75    H     0.85017   0.90666   0.88064   0.00000  Uiso   1.00
H76    H     0.26851   0.07303   0.97661   0.00000  Uiso   1.00
H77    H     0.09072   0.67984   0.99484   0.00000  Uiso   1.00
H78    H     0.14103   0.54604   0.95580   0.00000  Uiso   1.00
H79    H     0.96536   0.69957   0.99651   0.00000  Uiso   1.00
H80    H     0.16375   0.77847   0.04202   0.00000  Uiso   1.00
H81    H     0.19991   0.42206   0.89703   0.00000  Uiso   1.00
H82    H     0.82950   0.74583   0.98288   0.00000  Uiso   1.00
H83    H     0.24785   0.91219   0.07884   0.00000  Uiso   1.00
O84    O     0.24376   0.41785   0.81807   0.00000  Uiso   1.00
O85    O     0.75780   0.84262   0.93071   0.00000  Uiso   1.00
O86    O     0.30665   0.06088   0.05662   0.00000  Uiso   1.00
N87    N     0.20882   0.56342   0.82421   0.00000  Uiso   1.00
N88    N     0.86251   0.86610   0.90447   0.00000  Uiso   1.00
N89    N     0.25361   0.02165   0.99420   0.00000  Uiso   1.00
N90    N     0.19770   0.47687   0.87923   0.00000  Uiso   1.00
N91    N     0.85139   0.77956   0.95948   0.00000  Uiso   1.00
N92    N     0.24249   0.93511   0.04921   0.00000  Uiso   1.00
C93    C     0.60933   0.32466   0.90278   0.00000  Uiso   1.00
C94    C     0.63404   0.23152   0.89458   0.00000  Uiso   1.00
C95    C     0.66100   0.20141   0.85703   0.00000  Uiso   1.00
C96    C     0.68064   0.11395   0.85586   0.00000  Uiso   1.00
C97    C     0.72006   0.97772   0.83777   0.00000  Uiso   1.00
C98    C     0.53859   0.31493   0.91669   0.00000  Uiso   1.00
C99    C     0.48530   0.35496   0.89774   0.00000  Uiso   1.00
C100   C     0.42459   0.33772   0.91520   0.00000  Uiso   1.00
C101   C     0.31583   0.33104   0.93145   0.00000  Uiso   1.00
C102   C     0.64638   0.35779   0.94142   0.00000  Uiso   1.00
C103   C     0.68372   0.43387   0.94326   0.00000  Uiso   1.00
C104   C     0.71375   0.45273   0.98154   0.00000  Uiso   1.00
C105   C     0.77236   0.51260   0.03618   0.00000  Uiso   1.00
C106   C     0.59625   0.22288   0.96748   0.00000  Uiso   1.00
C107   C     0.62693   0.17624   0.92972   0.00000  Uiso   1.00
C108   C     0.64653   0.08880   0.92861   0.00000  Uiso   1.00
C109   C     0.67352   0.05857   0.89106   0.00000  Uiso   1.00
C110   C     0.53148   0.25965   0.95183   0.00000  Uiso   1.00
C111   C     0.47083   0.24235   0.96932   0.00000  Uiso   1.00
C112   C     0.41747   0.28234   0.95040   0.00000  Uiso   1.00
C113   C     0.63928   0.30251   0.97656   0.00000  Uiso   1.00
C114   C     0.66925   0.32126   0.01484   0.00000  Uiso   1.00
C115   C     0.70663   0.39735   0.01674   0.00000  Uiso   1.00
H116   H     0.61485   0.36770   0.87543   0.00000  Uiso   1.00
H117   H     0.66649   0.24421   0.82984   0.00000  Uiso   1.00
H118   H     0.49082   0.39774   0.87055   0.00000  Uiso   1.00
H119   H     0.68921   0.47663   0.91606   0.00000  Uiso   1.00
H120   H     0.72058   0.08291   0.79479   0.00000  Uiso   1.00
H121   H     0.35017   0.40666   0.88064   0.00000  Uiso   1.00
H122   H     0.76851   0.57303   0.97661   0.00000  Uiso   1.00
H123   H     0.59072   0.17984   0.99484   0.00000  Uiso   1.00
H124   H     0.64103   0.04604   0.95580   0.00000  Uiso   1.00
H125   H     0.46536   0.19957   0.99651   0.00000  Uiso   1.00
H126   H     0.66375   0.27847   0.04202   0.00000  Uiso   1.00
H127   H     0.69991   0.92206   0.89703   0.00000  Uiso   1.00
H128   H     0.32950   0.24583   0.98288   0.00000  Uiso   1.00
H129   H     0.74785   0.41219   0.07884   0.00000  Uiso   1.00
O130   O     0.74376   0.91785   0.81807   0.00000  Uiso   1.00
O131   O     0.25780   0.34262   0.93071   0.00000  Uiso   1.00
O132   O     0.80665   0.56088   0.05662   0.00000  Uiso   1.00
N133   N     0.70882   0.06342   0.82421   0.00000  Uiso   1.00
N134   N     0.36251   0.36610   0.90447   0.00000  Uiso   1.00
N135   N     0.75361   0.52165   0.99420   0.00000  Uiso   1.00
N136   N     0.69770   0.97687   0.87923   0.00000  Uiso   1.00
N137   N     0.35139   0.27956   0.95948   0.00000  Uiso   1.00
N138   N     0.74249   0.43511   0.04921   0.00000  Uiso   1.00
C139   C     0.60933   0.82466   0.40278   0.00000  Uiso   1.00
C140   C     0.63404   0.73152   0.39458   0.00000  Uiso   1.00
C141   C     0.66100   0.70141   0.35703   0.00000  Uiso   1.00
C142   C     0.68064   0.61395   0.35586   0.00000  Uiso   1.00
C143   C     0.72006   0.47772   0.33777   0.00000  Uiso   1.00
C144   C     0.53859   0.81493   0.41669   0.00000  Uiso   1.00
C145   C     0.48530   0.85496   0.39774   0.00000  Uiso   1.00
C146   C     0.42459   0.83772   0.41520   0.00000  Uiso   1.00
C147   C     0.31583   0.83104   0.43145   0.00000  Uiso   1.00
C148   C     0.64638   0.85779   0.44142   0.00000  Uiso   1.00
C149   C     0.68372   0.93387   0.44326   0.00000  Uiso   1.00
C150   C     0.71375   0.95273   0.48154   0.00000  Uiso   1.00
C151   C     0.77236   0.01260   0.53618   0.00000  Uiso   1.00
C152   C     0.59625   0.72288   0.46748   0.00000  Uiso   1.00
C153   C     0.62693   0.67624   0.42972   0.00000  Uiso   1.00
C154   C     0.64653   0.58880   0.42861   0.00000  Uiso   1.00
C155   C     0.67352   0.55857   0.39106   0.00000  Uiso   1.00
C156   C     0.53148   0.75965   0.45183   0.00000  Uiso   1.00
C157   C     0.47083   0.74235   0.46932   0.00000  Uiso   1.00
C158   C     0.41747   0.78234   0.45040   0.00000  Uiso   1.00
C159   C     0.63928   0.80251   0.47656   0.00000  Uiso   1.00
C160   C     0.66925   0.82126   0.51484   0.00000  Uiso   1.00
C161   C     0.70663   0.89735   0.51674   0.00000  Uiso   1.00
H162   H     0.61485   0.86770   0.37543   0.00000  Uiso   1.00
H163   H     0.66649   0.74421   0.32984   0.00000  Uiso   1.00
H164   H     0.49082   0.89774   0.37055   0.00000  Uiso   1.00
H165   H     0.68921   0.97663   0.41606   0.00000  Uiso   1.00
H166   H     0.72058   0.58291   0.29479   0.00000  Uiso   1.00
H167   H     0.35017   0.90666   0.38064   0.00000  Uiso   1.00
H168   H     0.76851   0.07303   0.47661   0.00000  Uiso   1.00
H169   H     0.59072   0.67984   0.49484   0.00000  Uiso   1.00
H170   H     0.64103   0.54604   0.45580   0.00000  Uiso   1.00
H171   H     0.46536   0.69957   0.49651   0.00000  Uiso   1.00
H172   H     0.66375   0.77847   0.54202   0.00000  Uiso   1.00
H173   H     0.69991   0.42206   0.39703   0.00000  Uiso   1.00
H174   H     0.32950   0.74583   0.48288   0.00000  Uiso   1.00
H175   H     0.74785   0.91219   0.57884   0.00000  Uiso   1.00
O176   O     0.74376   0.41785   0.31807   0.00000  Uiso   1.00
O177   O     0.25780   0.84262   0.43071   0.00000  Uiso   1.00
O178   O     0.80665   0.06088   0.55662   0.00000  Uiso   1.00
N179   N     0.70882   0.56342   0.32421   0.00000  Uiso   1.00
N180   N     0.36251   0.86610   0.40447   0.00000  Uiso   1.00
N181   N     0.75361   0.02165   0.49420   0.00000  Uiso   1.00
N182   N     0.69770   0.47687   0.37923   0.00000  Uiso   1.00
N183   N     0.35139   0.77956   0.45948   0.00000  Uiso   1.00
N184   N     0.74249   0.93511   0.54921   0.00000  Uiso   1.00
C185   C     0.89067   0.67534   0.40278   0.00000  Uiso   1.00
C186   C     0.86596   0.76848   0.39458   0.00000  Uiso   1.00
C187   C     0.83900   0.79859   0.35703   0.00000  Uiso   1.00
C188   C     0.81936   0.88605   0.35586   0.00000  Uiso   1.00
C189   C     0.77994   0.02228   0.33777   0.00000  Uiso   1.00
C190   C     0.96141   0.68507   0.41669   0.00000  Uiso   1.00
C191   C     0.01470   0.64504   0.39774   0.00000  Uiso   1.00
C192   C     0.07541   0.66228   0.41520   0.00000  Uiso   1.00
C193   C     0.18417   0.66896   0.43145   0.00000  Uiso   1.00
C194   C     0.85362   0.64221   0.44142   0.00000  Uiso   1.00
C195   C     0.81628   0.56613   0.44326   0.00000  Uiso   1.00
C196   C     0.78625   0.54727   0.48154   0.00000  Uiso   1.00
C197   C     0.72764   0.48740   0.53618   0.00000  Uiso   1.00
C198   C     0.90375   0.77712   0.46748   0.00000  Uiso   1.00
C199   C     0.87307   0.82376   0.42972   0.00000  Uiso   1.00
C200   C     0.85347   0.91120   0.42861   0.00000  Uiso   1.00
C201   C     0.82648   0.94143   0.39106   0.00000  Uiso   1.00
C202   C     0.96852   0.74035   0.45183   0.00000  Uiso   1.00
C203   C     0.02917   0.75765   0.46932   0.00000  Uiso   1.00
C204   C     0.08253   0.71766   0.45040   0.00000  Uiso   1.00
C205   C     0.86072   0.69749   0.47656   0.00000  Uiso   1.00
C206   C     0.83075   0.67874   0.51484   0.00000  Uiso   1.00
C207   C     0.79337   0.60265   0.51674   0.00000  Uiso   1.00
H208   H     0.88515   0.63230   0.37543   0.00000  Uiso   1.00
H209   H     0.83351   0.75579   0.32984   0.00000  Uiso   1.00
H210   H     0.00918   0.60226   0.37055   0.00000  Uiso   1.00
H211   H     0.81079   0.52337   0.41606   0.00000  Uiso   1.00
H212   H     0.77942   0.91709   0.29479   0.00000  Uiso   1.00
H213   H     0.14983   0.59334   0.38064   0.00000  Uiso   1.00
H214   H     0.73149   0.42697   0.47661   0.00000  Uiso   1.00
H215   H     0.90928   0.82016   0.49484   0.00000  Uiso   1.00
H216   H     0.85897   0.95396   0.45580   0.00000  Uiso   1.00
H217   H     0.03464   0.80043   0.49651   0.00000  Uiso   1.00
H218   H     0.83625   0.72153   0.54202   0.00000  Uiso   1.00
H219   H     0.80009   0.07794   0.39703   0.00000  Uiso   1.00
H220   H     0.17050   0.75417   0.48288   0.00000  Uiso   1.00
H221   H     0.75215   0.58781   0.57884   0.00000  Uiso   1.00
O222   O     0.75624   0.08215   0.31807   0.00000  Uiso   1.00
O223   O     0.24220   0.65738   0.43071   0.00000  Uiso   1.00
O224   O     0.69335   0.43912   0.55662   0.00000  Uiso   1.00
N225   N     0.79118   0.93658   0.32421   0.00000  Uiso   1.00
N226   N     0.13749   0.63390   0.40447   0.00000  Uiso   1.00
N227   N     0.74639   0.47835   0.49420   0.00000  Uiso   1.00
N228   N     0.80230   0.02313   0.37923   0.00000  Uiso   1.00
N229   N     0.14861   0.72044   0.45948   0.00000  Uiso   1.00
N230   N     0.75751   0.56489   0.54921   0.00000  Uiso   1.00
C231   C     0.89067   0.17534   0.90278   0.00000  Uiso   1.00
C232   C     0.86596   0.26848   0.89458   0.00000  Uiso   1.00
C233   C     0.83900   0.29859   0.85703   0.00000  Uiso   1.00
C234   C     0.81936   0.38605   0.85586   0.00000  Uiso   1.00
C235   C     0.77994   0.52228   0.83777   0.00000  Uiso   1.00
C236   C     0.96141   0.18507   0.91669   0.00000  Uiso   1.00
C237   C     0.01470   0.14504   0.89774   0.00000  Uiso   1.00
C238   C     0.07541   0.16228   0.91520   0.00000  Uiso   1.00
C239   C     0.18417   0.16896   0.93145   0.00000  Uiso   1.00
C240   C     0.85362   0.14221   0.94142   0.00000  Uiso   1.00
C241   C     0.81628   0.06613   0.94326   0.00000  Uiso   1.00
C242   C     0.78625   0.04727   0.98154   0.00000  Uiso   1.00
C243   C     0.72764   0.98740   0.03618   0.00000  Uiso   1.00
C244   C     0.90375   0.27712   0.96748   0.00000  Uiso   1.00
C245   C     0.87307   0.32376   0.92972   0.00000  Uiso   1.00
C246   C     0.85347   0.41120   0.92861   0.00000  Uiso   1.00
C247   C     0.82648   0.44143   0.89106   0.00000  Uiso   1.00
C248   C     0.96852   0.24035   0.95183   0.00000  Uiso   1.00
C249   C     0.02917   0.25765   0.96932   0.00000  Uiso   1.00
C250   C     0.08253   0.21766   0.95040   0.00000  Uiso   1.00
C251   C     0.86072   0.19749   0.97656   0.00000  Uiso   1.00
C252   C     0.83075   0.17874   0.01484   0.00000  Uiso   1.00
C253   C     0.79337   0.10265   0.01674   0.00000  Uiso   1.00
H254   H     0.88515   0.13230   0.87543   0.00000  Uiso   1.00
H255   H     0.83351   0.25579   0.82984   0.00000  Uiso   1.00
H256   H     0.00918   0.10226   0.87055   0.00000  Uiso   1.00
H257   H     0.81079   0.02337   0.91606   0.00000  Uiso   1.00
H258   H     0.77942   0.41709   0.79479   0.00000  Uiso   1.00
H259   H     0.14983   0.09334   0.88064   0.00000  Uiso   1.00
H260   H     0.73149   0.92697   0.97661   0.00000  Uiso   1.00
H261   H     0.90928   0.32016   0.99484   0.00000  Uiso   1.00
H262   H     0.85897   0.45396   0.95580   0.00000  Uiso   1.00
H263   H     0.03464   0.30043   0.99651   0.00000  Uiso   1.00
H264   H     0.83625   0.22153   0.04202   0.00000  Uiso   1.00
H265   H     0.80009   0.57794   0.89703   0.00000  Uiso   1.00
H266   H     0.17050   0.25417   0.98288   0.00000  Uiso   1.00
H267   H     0.75215   0.08781   0.07884   0.00000  Uiso   1.00
O268   O     0.75624   0.58215   0.81807   0.00000  Uiso   1.00
O269   O     0.24220   0.15738   0.93071   0.00000  Uiso   1.00
O270   O     0.69335   0.93912   0.05662   0.00000  Uiso   1.00
N271   N     0.79118   0.43658   0.82421   0.00000  Uiso   1.00
N272   N     0.13749   0.13390   0.90447   0.00000  Uiso   1.00
N273   N     0.74639   0.97835   0.99420   0.00000  Uiso   1.00
N274   N     0.80230   0.52313   0.87923   0.00000  Uiso   1.00
N275   N     0.14861   0.22044   0.95948   0.00000  Uiso   1.00
N276   N     0.75751   0.06489   0.04921   0.00000  Uiso   1.00
C277   C     0.39067   0.67534   0.90278   0.00000  Uiso   1.00
C278   C     0.36596   0.76848   0.89458   0.00000  Uiso   1.00
C279   C     0.33900   0.79859   0.85703   0.00000  Uiso   1.00
C280   C     0.31936   0.88605   0.85586   0.00000  Uiso   1.00
C281   C     0.27994   0.02228   0.83777   0.00000  Uiso   1.00
C282   C     0.46141   0.68507   0.91669   0.00000  Uiso   1.00
C283   C     0.51470   0.64504   0.89774   0.00000  Uiso   1.00
C284   C     0.57541   0.66228   0.91520   0.00000  Uiso   1.00
C285   C     0.68417   0.66896   0.93145   0.00000  Uiso   1.00
C286   C     0.35362   0.64221   0.94142   0.00000  Uiso   1.00
C287   C     0.31628   0.56613   0.94326   0.00000  Uiso   1.00
C288   C     0.28625   0.54727   0.98154   0.00000  Uiso   1.00
C289   C     0.22764   0.48740   0.03618   0.00000  Uiso   1.00
C290   C     0.40375   0.77712   0.96748   0.00000  Uiso   1.00
C291   C     0.37307   0.82376   0.92972   0.00000  Uiso   1.00
C292   C     0.35347   0.91120   0.92861   0.00000  Uiso   1.00
C293   C     0.32648   0.94143   0.89106   0.00000  Uiso   1.00
C294   C     0.46852   0.74035   0.95183   0.00000  Uiso   1.00
C295   C     0.52917   0.75765   0.96932   0.00000  Uiso   1.00
C296   C     0.58253   0.71766   0.95040   0.00000  Uiso   1.00
C297   C     0.36072   0.69749   0.97656   0.00000  Uiso   1.00
C298   C     0.33075   0.67874   0.01484   0.00000  Uiso   1.00
C299   C     0.29337   0.60265   0.01674   0.00000  Uiso   1.00
H300   H     0.38515   0.63230   0.87543   0.00000  Uiso   1.00
H301   H     0.33351   0.75579   0.82984   0.00000  Uiso   1.00
H302   H     0.50918   0.60226   0.87055   0.00000  Uiso   1.00
H303   H     0.31079   0.52337   0.91606   0.00000  Uiso   1.00
H304   H     0.27942   0.91709   0.79479   0.00000  Uiso   1.00
H305   H     0.64983   0.59334   0.88064   0.00000  Uiso   1.00
H306   H     0.23149   0.42697   0.97661   0.00000  Uiso   1.00
H307   H     0.40928   0.82016   0.99484   0.00000  Uiso   1.00
H308   H     0.35897   0.95396   0.95580   0.00000  Uiso   1.00
H309   H     0.53464   0.80043   0.99651   0.00000  Uiso   1.00
H310   H     0.33625   0.72153   0.04202   0.00000  Uiso   1.00
H311   H     0.30009   0.07794   0.89703   0.00000  Uiso   1.00
H312   H     0.67050   0.75417   0.98288   0.00000  Uiso   1.00
H313   H     0.25215   0.58781   0.07884   0.00000  Uiso   1.00
O314   O     0.25624   0.08215   0.81807   0.00000  Uiso   1.00
O315   O     0.74220   0.65738   0.93071   0.00000  Uiso   1.00
O316   O     0.19335   0.43912   0.05662   0.00000  Uiso   1.00
N317   N     0.29118   0.93658   0.82421   0.00000  Uiso   1.00
N318   N     0.63749   0.63390   0.90447   0.00000  Uiso   1.00
N319   N     0.24639   0.47835   0.99420   0.00000  Uiso   1.00
N320   N     0.30230   0.02313   0.87923   0.00000  Uiso   1.00
N321   N     0.64861   0.72044   0.95948   0.00000  Uiso   1.00
N322   N     0.25751   0.56489   0.04921   0.00000  Uiso   1.00
C323   C     0.39067   0.17534   0.40278   0.00000  Uiso   1.00
C324   C     0.36596   0.26848   0.39458   0.00000  Uiso   1.00
C325   C     0.33900   0.29859   0.35703   0.00000  Uiso   1.00
C326   C     0.31936   0.38605   0.35586   0.00000  Uiso   1.00
C327   C     0.27994   0.52228   0.33777   0.00000  Uiso   1.00
C328   C     0.46141   0.18507   0.41669   0.00000  Uiso   1.00
C329   C     0.51470   0.14504   0.39774   0.00000  Uiso   1.00
C330   C     0.57541   0.16228   0.41520   0.00000  Uiso   1.00
C331   C     0.68417   0.16896   0.43145   0.00000  Uiso   1.00
C332   C     0.35362   0.14221   0.44142   0.00000  Uiso   1.00
C333   C     0.31628   0.06613   0.44326   0.00000  Uiso   1.00
C334   C     0.28625   0.04727   0.48154   0.00000  Uiso   1.00
C335   C     0.22764   0.98740   0.53618   0.00000  Uiso   1.00
C336   C     0.40375   0.27712   0.46748   0.00000  Uiso   1.00
C337   C     0.37307   0.32376   0.42972   0.00000  Uiso   1.00
C338   C     0.35347   0.41120   0.42861   0.00000  Uiso   1.00
C339   C     0.32648   0.44143   0.39106   0.00000  Uiso   1.00
C340   C     0.46852   0.24035   0.45183   0.00000  Uiso   1.00
C341   C     0.52917   0.25765   0.46932   0.00000  Uiso   1.00
C342   C     0.58253   0.21766   0.45040   0.00000  Uiso   1.00
C343   C     0.36072   0.19749   0.47656   0.00000  Uiso   1.00
C344   C     0.33075   0.17874   0.51484   0.00000  Uiso   1.00
C345   C     0.29337   0.10265   0.51674   0.00000  Uiso   1.00
H346   H     0.38515   0.13230   0.37543   0.00000  Uiso   1.00
H347   H     0.33351   0.25579   0.32984   0.00000  Uiso   1.00
H348   H     0.50918   0.10226   0.37055   0.00000  Uiso   1.00
H349   H     0.31079   0.02337   0.41606   0.00000  Uiso   1.00
H350   H     0.27942   0.41709   0.29479   0.00000  Uiso   1.00
H351   H     0.64983   0.09334   0.38064   0.00000  Uiso   1.00
H352   H     0.23149   0.92697   0.47661   0.00000  Uiso   1.00
H353   H     0.40928   0.32016   0.49484   0.00000  Uiso   1.00
H354   H     0.35897   0.45396   0.45580   0.00000  Uiso   1.00
H355   H     0.53464   0.30043   0.49651   0.00000  Uiso   1.00
H356   H     0.33625   0.22153   0.54202   0.00000  Uiso   1.00
H357   H     0.30009   0.57794   0.39703   0.00000  Uiso   1.00
H358   H     0.67050   0.25417   0.48288   0.00000  Uiso   1.00
H359   H     0.25215   0.08781   0.57884   0.00000  Uiso   1.00
O360   O     0.25624   0.58215   0.31807   0.00000  Uiso   1.00
O361   O     0.74220   0.15738   0.43071   0.00000  Uiso   1.00
O362   O     0.19335   0.93912   0.55662   0.00000  Uiso   1.00
N363   N     0.29118   0.43658   0.32421   0.00000  Uiso   1.00
N364   N     0.63749   0.13390   0.40447   0.00000  Uiso   1.00
N365   N     0.24639   0.97835   0.49420   0.00000  Uiso   1.00
N366   N     0.30230   0.52313   0.37923   0.00000  Uiso   1.00
N367   N     0.64861   0.22044   0.45948   0.00000  Uiso   1.00
N368   N     0.25751   0.06489   0.54921   0.00000  Uiso   1.00
C369   C     0.35933   0.92534   0.65278   0.00000  Uiso   1.00
C370   C     0.38404   0.01848   0.64458   0.00000  Uiso   1.00
C371   C     0.41100   0.04859   0.60703   0.00000  Uiso   1.00
C372   C     0.43064   0.13605   0.60586   0.00000  Uiso   1.00
C373   C     0.47006   0.27228   0.58777   0.00000  Uiso   1.00
C374   C     0.28859   0.93507   0.66669   0.00000  Uiso   1.00
C375   C     0.23530   0.89504   0.64774   0.00000  Uiso   1.00
C376   C     0.17459   0.91228   0.66520   0.00000  Uiso   1.00
C377   C     0.06583   0.91896   0.68145   0.00000  Uiso   1.00
C378   C     0.39638   0.89221   0.69142   0.00000  Uiso   1.00
C379   C     0.43372   0.81613   0.69326   0.00000  Uiso   1.00
C380   C     0.46375   0.79727   0.73154   0.00000  Uiso   1.00
C381   C     0.52236   0.73740   0.78618   0.00000  Uiso   1.00
C382   C     0.34625   0.02712   0.71748   0.00000  Uiso   1.00
C383   C     0.37693   0.07376   0.67972   0.00000  Uiso   1.00
C384   C     0.39653   0.16120   0.67861   0.00000  Uiso   1.00
C385   C     0.42352   0.19143   0.64106   0.00000  Uiso   1.00
C386   C     0.28148   0.99035   0.70183   0.00000  Uiso   1.00
C387   C     0.22083   0.00765   0.71932   0.00000  Uiso   1.00
C388   C     0.16747   0.96766   0.70040   0.00000  Uiso   1.00
C389   C     0.38928   0.94749   0.72656   0.00000  Uiso   1.00
C390   C     0.41925   0.92874   0.76484   0.00000  Uiso   1.00
C391   C     0.45663   0.85265   0.76674   0.00000  Uiso   1.00
H392   H     0.36485   0.88230   0.62543   0.00000  Uiso   1.00
H393   H     0.41649   0.00579   0.57984   0.00000  Uiso   1.00
H394   H     0.24082   0.85226   0.62055   0.00000  Uiso   1.00
H395   H     0.43921   0.77337   0.66606   0.00000  Uiso   1.00
H396   H     0.47058   0.16709   0.54479   0.00000  Uiso   1.00
H397   H     0.10017   0.84334   0.63064   0.00000  Uiso   1.00
H398   H     0.51851   0.67697   0.72661   0.00000  Uiso   1.00
H399   H     0.34072   0.07016   0.74484   0.00000  Uiso   1.00
H400   H     0.39103   0.20396   0.70580   0.00000  Uiso   1.00
H401   H     0.21536   0.05043   0.74651   0.00000  Uiso   1.00
H402   H     0.41375   0.97153   0.79202   0.00000  Uiso   1.00
H403   H     0.44991   0.32794   0.64703   0.00000  Uiso   1.00
H404   H     0.07950   0.00417   0.73288   0.00000  Uiso   1.00
H405   H     0.49785   0.83781   0.82884   0.00000  Uiso   1.00
O406   O     0.49376   0.33215   0.56807   0.00000  Uiso   1.00
O407   O     0.00780   0.90738   0.68071   0.00000  Uiso   1.00
O408   O     0.55665   0.68912   0.80662   0.00000  Uiso   1.00
N409   N     0.45882   0.18658   0.57421   0.00000  Uiso   1.00
N410   N     0.11251   0.88390   0.65447   0.00000  Uiso   1.00
N411   N     0.50361   0.72835   0.74420   0.00000  Uiso   1.00
N412   N     0.44770   0.27313   0.62923   0.00000  Uiso   1.00
N413   N     0.10139   0.97044   0.70948   0.00000  Uiso   1.00
N414   N     0.49249   0.81489   0.79921   0.00000  Uiso   1.00
C415   C     0.35933   0.42534   0.15278   0.00000  Uiso   1.00
C416   C     0.38404   0.51848   0.14458   0.00000  Uiso   1.00
C417   C     0.41100   0.54859   0.10703   0.00000  Uiso   1.00
C418   C     0.43064   0.63605   0.10586   0.00000  Uiso   1.00
C419   C     0.47006   0.77228   0.08777   0.00000  Uiso   1.00
C420   C     0.28859   0.43507   0.16669   0.00000  Uiso   1.00
C421   C     0.23530   0.39504   0.14774   0.00000  Uiso   1.00
C422   C     0.17459   0.41228   0.16520   0.00000  Uiso   1.00
C423   C     0.06583   0.41896   0.18145   0.00000  Uiso   1.00
C424   C     0.39638   0.39221   0.19142   0.00000  Uiso   1.00
C425   C     0.43372   0.31613   0.19326   0.00000  Uiso   1.00
C426   C     0.46375   0.29727   0.23154   0.00000  Uiso   1.00
C427   C     0.52236   0.23740   0.28618   0.00000  Uiso   1.00
C428   C     0.34625   0.52712   0.21748   0.00000  Uiso   1.00
C429   C     0.37693   0.57376   0.17972   0.00000  Uiso   1.00
C430   C     0.39653   0.66120   0.17861   0.00000  Uiso   1.00
C431   C     0.42352   0.69143   0.14106   0.00000  Uiso   1.00
C432   C     0.28148   0.49035   0.20183   0.00000  Uiso   1.00
C433   C     0.22083   0.50765   0.21932   0.00000  Uiso   1.00
C434   C     0.16747   0.46766   0.20040   0.00000  Uiso   1.00
C435   C     0.38928   0.44749   0.22656   0.00000  Uiso   1.00
C436   C     0.41925   0.42874   0.26484   0.00000  Uiso   1.00
C437   C     0.45663   0.35265   0.26674   0.00000  Uiso   1.00
H438   H     0.36485   0.38230   0.12543   0.00000  Uiso   1.00
H439   H     0.41649   0.50579   0.07984   0.00000  Uiso   1.00
H440   H     0.24082   0.35226   0.12055   0.00000  Uiso   1.00
H441   H     0.43921   0.27337   0.16606   0.00000  Uiso   1.00
H442   H     0.47058   0.66709   0.04479   0.00000  Uiso   1.00
H443   H     0.10017   0.34334   0.13064   0.00000  Uiso   1.00
H444   H     0.51851   0.17697   0.22661   0.00000  Uiso   1.00
H445   H     0.34072   0.57016   0.24484   0.00000  Uiso   1.00
H446   H     0.39103   0.70396   0.20580   0.00000  Uiso   1.00
H447   H     0.21536   0.55043   0.24651   0.00000  Uiso   1.00
H448   H     0.41375   0.47153   0.29202   0.00000  Uiso   1.00
H449   H     0.44991   0.82794   0.14703   0.00000  Uiso   1.00
H450   H     0.07950   0.50417   0.23288   0.00000  Uiso   1.00
H451   H     0.49785   0.33781   0.32884   0.00000  Uiso   1.00
O452   O     0.49376   0.83215   0.06807   0.00000  Uiso   1.00
O453   O     0.00780   0.40738   0.18071   0.00000  Uiso   1.00
O454   O     0.55665   0.18912   0.30662   0.00000  Uiso   1.00
N455   N     0.45882   0.68658   0.07421   0.00000  Uiso   1.00
N456   N     0.11251   0.38390   0.15447   0.00000  Uiso   1.00
N457   N     0.50361   0.22835   0.24420   0.00000  Uiso   1.00
N458   N     0.44770   0.77313   0.12923   0.00000  Uiso   1.00
N459   N     0.10139   0.47044   0.20948   0.00000  Uiso   1.00
N460   N     0.49249   0.31489   0.29921   0.00000  Uiso   1.00
C461   C     0.85933   0.92534   0.15278   0.00000  Uiso   1.00
C462   C     0.88404   0.01848   0.14458   0.00000  Uiso   1.00
C463   C     0.91100   0.04859   0.10703   0.00000  Uiso   1.00
C464   C     0.93064   0.13605   0.10586   0.00000  Uiso   1.00
C465   C     0.97006   0.27228   0.08777   0.00000  Uiso   1.00
C466   C     0.78859   0.93507   0.16669   0.00000  Uiso   1.00
C467   C     0.73530   0.89504   0.14774   0.00000  Uiso   1.00
C468   C     0.67459   0.91228   0.16520   0.00000  Uiso   1.00
C469   C     0.56583   0.91896   0.18145   0.00000  Uiso   1.00
C470   C     0.89638   0.89221   0.19142   0.00000  Uiso   1.00
C471   C     0.93372   0.81613   0.19326   0.00000  Uiso   1.00
C472   C     0.96375   0.79727   0.23154   0.00000  Uiso   1.00
C473   C     0.02236   0.73740   0.28618   0.00000  Uiso   1.00
C474   C     0.84625   0.02712   0.21748   0.00000  Uiso   1.00
C475   C     0.87693   0.07376   0.17972   0.00000  Uiso   1.00
C476   C     0.89653   0.16120   0.17861   0.00000  Uiso   1.00
C477   C     0.92352   0.19143   0.14106   0.00000  Uiso   1.00
C478   C     0.78148   0.99035   0.20183   0.00000  Uiso   1.00
C479   C     0.72083   0.00765   0.21932   0.00000  Uiso   1.00
C480   C     0.66747   0.96766   0.20040   0.00000  Uiso   1.00
C481   C     0.88928   0.94749   0.22656   0.00000  Uiso   1.00
C482   C     0.91925   0.92874   0.26484   0.00000  Uiso   1.00
C483   C     0.95663   0.85265   0.26674   0.00000  Uiso   1.00
H484   H     0.86485   0.88230   0.12543   0.00000  Uiso   1.00
H485   H     0.91649   0.00579   0.07984   0.00000  Uiso   1.00
H486   H     0.74082   0.85226   0.12055   0.00000  Uiso   1.00
H487   H     0.93921   0.77337   0.16606   0.00000  Uiso   1.00
H488   H     0.97058   0.16709   0.04479   0.00000  Uiso   1.00
H489   H     0.60017   0.84334   0.13064   0.00000  Uiso   1.00
H490   H     0.01851   0.67697   0.22661   0.00000  Uiso   1.00
H491   H     0.84072   0.07016   0.24484   0.00000  Uiso   1.00
H492   H     0.89103   0.20396   0.20580   0.00000  Uiso   1.00
H493   H     0.71536   0.05043   0.24651   0.00000  Uiso   1.00
H494   H     0.91375   0.97153   0.29202   0.00000  Uiso   1.00
H495   H     0.94991   0.32794   0.14703   0.00000  Uiso   1.00
H496   H     0.57950   0.00417   0.23288   0.00000  Uiso   1.00
H497   H     0.99785   0.83781   0.32884   0.00000  Uiso   1.00
O498   O     0.99376   0.33215   0.06807   0.00000  Uiso   1.00
O499   O     0.50780   0.90738   0.18071   0.00000  Uiso   1.00
O500   O     0.05665   0.68912   0.30662   0.00000  Uiso   1.00
N501   N     0.95882   0.18658   0.07421   0.00000  Uiso   1.00
N502   N     0.61251   0.88390   0.15447   0.00000  Uiso   1.00
N503   N     0.00361   0.72835   0.24420   0.00000  Uiso   1.00
N504   N     0.94770   0.27313   0.12923   0.00000  Uiso   1.00
N505   N     0.60139   0.97044   0.20948   0.00000  Uiso   1.00
N506   N     0.99249   0.81489   0.29921   0.00000  Uiso   1.00
C507   C     0.85933   0.42534   0.65278   0.00000  Uiso   1.00
C508   C     0.88404   0.51848   0.64458   0.00000  Uiso   1.00
C509   C     0.91100   0.54859   0.60703   0.00000  Uiso   1.00
C510   C     0.93064   0.63605   0.60586   0.00000  Uiso   1.00
C511   C     0.97006   0.77228   0.58777   0.00000  Uiso   1.00
C512   C     0.78859   0.43507   0.66669   0.00000  Uiso   1.00
C513   C     0.73530   0.39504   0.64774   0.00000  Uiso   1.00
C514   C     0.67459   0.41228   0.66520   0.00000  Uiso   1.00
C515   C     0.56583   0.41896   0.68145   0.00000  Uiso   1.00
C516   C     0.89638   0.39221   0.69142   0.00000  Uiso   1.00
C517   C     0.93372   0.31613   0.69326   0.00000  Uiso   1.00
C518   C     0.96375   0.29727   0.73154   0.00000  Uiso   1.00
C519   C     0.02236   0.23740   0.78618   0.00000  Uiso   1.00
C520   C     0.84625   0.52712   0.71748   0.00000  Uiso   1.00
C521   C     0.87693   0.57376   0.67972   0.00000  Uiso   1.00
C522   C     0.89653   0.66120   0.67861   0.00000  Uiso   1.00
C523   C     0.92352   0.69143   0.64106   0.00000  Uiso   1.00
C524   C     0.78148   0.49035   0.70183   0.00000  Uiso   1.00
C525   C     0.72083   0.50765   0.71932   0.00000  Uiso   1.00
C526   C     0.66747   0.46766   0.70040   0.00000  Uiso   1.00
C527   C     0.88928   0.44749   0.72656   0.00000  Uiso   1.00
C528   C     0.91925   0.42874   0.76484   0.00000  Uiso   1.00
C529   C     0.95663   0.35265   0.76674   0.00000  Uiso   1.00
H530   H     0.86485   0.38230   0.62543   0.00000  Uiso   1.00
H531   H     0.91649   0.50579   0.57984   0.00000  Uiso   1.00
H532   H     0.74082   0.35226   0.62055   0.00000  Uiso   1.00
H533   H     0.93921   0.27337   0.66606   0.00000  Uiso   1.00
H534   H     0.97058   0.66709   0.54479   0.00000  Uiso   1.00
H535   H     0.60017   0.34334   0.63064   0.00000  Uiso   1.00
H536   H     0.01851   0.17697   0.72661   0.00000  Uiso   1.00
H537   H     0.84072   0.57016   0.74484   0.00000  Uiso   1.00
H538   H     0.89103   0.70396   0.70580   0.00000  Uiso   1.00
H539   H     0.71536   0.55043   0.74651   0.00000  Uiso   1.00
H540   H     0.91375   0.47153   0.79202   0.00000  Uiso   1.00
H541   H     0.94991   0.82794   0.64703   0.00000  Uiso   1.00
H542   H     0.57950   0.50417   0.73288   0.00000  Uiso   1.00
H543   H     0.99785   0.33781   0.82884   0.00000  Uiso   1.00
O544   O     0.99376   0.83215   0.56807   0.00000  Uiso   1.00
O545   O     0.50780   0.40738   0.68071   0.00000  Uiso   1.00
O546   O     0.05665   0.18912   0.80662   0.00000  Uiso   1.00
N547   N     0.95882   0.68658   0.57421   0.00000  Uiso   1.00
N548   N     0.61251   0.38390   0.65447   0.00000  Uiso   1.00
N549   N     0.00361   0.22835   0.74420   0.00000  Uiso   1.00
N550   N     0.94770   0.77313   0.62923   0.00000  Uiso   1.00
N551   N     0.60139   0.47044   0.70948   0.00000  Uiso   1.00
N552   N     0.99249   0.31489   0.79921   0.00000  Uiso   1.00
C553   C     0.14067   0.57466   0.65278   0.00000  Uiso   1.00
C554   C     0.11596   0.48152   0.64458   0.00000  Uiso   1.00
C555   C     0.08900   0.45141   0.60703   0.00000  Uiso   1.00
C556   C     0.06936   0.36395   0.60586   0.00000  Uiso   1.00
C557   C     0.02994   0.22772   0.58777   0.00000  Uiso   1.00
C558   C     0.21141   0.56493   0.66669   0.00000  Uiso   1.00
C559   C     0.26470   0.60496   0.64774   0.00000  Uiso   1.00
C560   C     0.32541   0.58772   0.66520   0.00000  Uiso   1.00
C561   C     0.43417   0.58104   0.68145   0.00000  Uiso   1.00
C562   C     0.10362   0.60779   0.69142   0.00000  Uiso   1.00
C563   C     0.06628   0.68387   0.69326   0.00000  Uiso   1.00
C564   C     0.03625   0.70273   0.73154   0.00000  Uiso   1.00
C565   C     0.97764   0.76260   0.78618   0.00000  Uiso   1.00
C566   C     0.15375   0.47288   0.71748   0.00000  Uiso   1.00
C567   C     0.12307   0.42624   0.67972   0.00000  Uiso   1.00
C568   C     0.10347   0.33880   0.67861   0.00000  Uiso   1.00
C569   C     0.07648   0.30857   0.64106   0.00000  Uiso   1.00
C570   C     0.21852   0.50965   0.70183   0.00000  Uiso   1.00
C571   C     0.27917   0.49235   0.71932   0.00000  Uiso   1.00
C572   C     0.33253   0.53234   0.70040   0.00000  Uiso   1.00
C573   C     0.11072   0.55251   0.72656   0.00000  Uiso   1.00
C574   C     0.08075   0.57126   0.76484   0.00000  Uiso   1.00
C575   C     0.04337   0.64735   0.76674   0.00000  Uiso   1.00
H576   H     0.13515   0.61770   0.62543   0.00000  Uiso   1.00
H577   H     0.08351   0.49421   0.57984   0.00000  Uiso   1.00
H578   H     0.25918   0.64774   0.62055   0.00000  Uiso   1.00
H579   H     0.06079   0.72663   0.66606   0.00000  Uiso   1.00
H580   H     0.02942   0.33291   0.54479   0.00000  Uiso   1.00
H581   H     0.39983   0.65666   0.63064   0.00000  Uiso   1.00
H582   H     0.98149   0.82303   0.72661   0.00000  Uiso   1.00
H583   H     0.15928   0.42984   0.74484   0.00000  Uiso   1.00
H584   H     0.10897   0.29604   0.70580   0.00000  Uiso   1.00
H585   H     0.28464   0.44957   0.74651   0.00000  Uiso   1.00
H586   H     0.08625   0.52847   0.79202   0.00000  Uiso   1.00
H587   H     0.05009   0.17206   0.64703   0.00000  Uiso   1.00
H588   H     0.42050   0.49583   0.73288   0.00000  Uiso   1.00
H589   H     0.00215   0.66219   0.82884   0.00000  Uiso   1.00
O590   O     0.00624   0.16785   0.56807   0.00000  Uiso   1.00
O591   O     0.49220   0.59262   0.68071   0.00000  Uiso   1.00
O592   O     0.94335   0.81088   0.80662   0.00000  Uiso   1.00
N593   N     0.04118   0.31342   0.57421   0.00000  Uiso   1.00
N594   N     0.38749   0.61610   0.65447   0.00000  Uiso   1.00
N595   N     0.99639   0.77165   0.74420   0.00000  Uiso   1.00
N596   N     0.05230   0.22687   0.62923   0.00000  Uiso   1.00
N597   N     0.39861   0.52956   0.70948   0.00000  Uiso   1.00
N598   N     0.00751   0.68511   0.79921   0.00000  Uiso   1.00
C599   C     0.14067   0.07466   0.15278   0.00000  Uiso   1.00
C600   C     0.11596   0.98152   0.14458   0.00000  Uiso   1.00
C601   C     0.08900   0.95141   0.10703   0.00000  Uiso   1.00
C602   C     0.06936   0.86395   0.10586   0.00000  Uiso   1.00
C603   C     0.02994   0.72772   0.08777   0.00000  Uiso   1.00
C604   C     0.21141   0.06493   0.16669   0.00000  Uiso   1.00
C605   C     0.26470   0.10496   0.14774   0.00000  Uiso   1.00
C606   C     0.32541   0.08772   0.16520   0.00000  Uiso   1.00
C607   C     0.43417   0.08104   0.18145   0.00000  Uiso   1.00
C608   C     0.10362   0.10779   0.19142   0.00000  Uiso   1.00
C609   C     0.06628   0.18387   0.19326   0.00000  Uiso   1.00
C610   C     0.03625   0.20273   0.23154   0.00000  Uiso   1.00
C611   C     0.97764   0.26260   0.28618   0.00000  Uiso   1.00
C612   C     0.15375   0.97288   0.21748   0.00000  Uiso   1.00
C613   C     0.12307   0.92624   0.17972   0.00000  Uiso   1.00
C614   C     0.10347   0.83880   0.17861   0.00000  Uiso   1.00
C615   C     0.07648   0.80857   0.14106   0.00000  Uiso   1.00
C616   C     0.21852   0.00965   0.20183   0.00000  Uiso   1.00
C617   C     0.27917   0.99235   0.21932   0.00000  Uiso   1.00
C618   C     0.33253   0.03234   0.20040   0.00000  Uiso   1.00
C619   C     0.11072   0.05251   0.22656   0.00000  Uiso   1.00
C620   C     0.08075   0.07126   0.26484   0.00000  Uiso   1.00
C621   C     0.04337   0.14735   0.26674   0.00000  Uiso   1.00
H622   H     0.13515   0.11770   0.12543   0.00000  Uiso   1.00
H623   H     0.08351   0.99421   0.07984   0.00000  Uiso   1.00
H624   H     0.25918   0.14774   0.12055   0.00000  Uiso   1.00
H625   H     0.06079   0.22663   0.16606   0.00000  Uiso   1.00
H626   H     0.02942   0.83291   0.04479   0.00000  Uiso   1.00
H627   H     0.39983   0.15666   0.13064   0.00000  Uiso   1.00
H628   H     0.98149   0.32303   0.22661   0.00000  Uiso   1.00
H629   H     0.15928   0.92984   0.24484   0.00000  Uiso   1.00
H630   H     0.10897   0.79604   0.20580   0.00000  Uiso   1.00
H631   H     0.28464   0.94957   0.24651   0.00000  Uiso   1.00
H632   H     0.08625   0.02847   0.29202   0.00000  Uiso   1.00
H633   H     0.05009   0.67206   0.14703   0.00000  Uiso   1.00
H634   H     0.42050   0.99583   0.23288   0.00000  Uiso   1.00
H635   H     0.00215   0.16219   0.32884   0.00000  Uiso   1.00
O636   O     0.00624   0.66785   0.06807   0.00000  Uiso   1.00
O637   O     0.49220   0.09262   0.18071   0.00000  Uiso   1.00
O638   O     0.94335   0.31088   0.30662   0.00000  Uiso   1.00
N639   N     0.04118   0.81342   0.07421   0.00000  Uiso   1.00
N640   N     0.38749   0.11610   0.15447   0.00000  Uiso   1.00
N641   N     0.99639   0.27165   0.24420   0.00000  Uiso   1.00
N642   N     0.05230   0.72687   0.12923   0.00000  Uiso   1.00
N643   N     0.39861   0.02956   0.20948   0.00000  Uiso   1.00
N644   N     0.00751   0.18511   0.29921   0.00000  Uiso   1.00
C645   C     0.64067   0.57466   0.15278   0.00000  Uiso   1.00
C646   C     0.61596   0.48152   0.14458   0.00000  Uiso   1.00
C647   C     0.58900   0.45141   0.10703   0.00000  Uiso   1.00
C648   C     0.56936   0.36395   0.10586   0.00000  Uiso   1.00
C649   C     0.52994   0.22772   0.08777   0.00000  Uiso   1.00
C650   C     0.71141   0.56493   0.16669   0.00000  Uiso   1.00
C651   C     0.76470   0.60496   0.14774   0.00000  Uiso   1.00
C652   C     0.82541   0.58772   0.16520   0.00000  Uiso   1.00
C653   C     0.93417   0.58104   0.18145   0.00000  Uiso   1.00
C654   C     0.60362   0.60779   0.19142   0.00000  Uiso   1.00
C655   C     0.56628   0.68387   0.19326   0.00000  Uiso   1.00
C656   C     0.53625   0.70273   0.23154   0.00000  Uiso   1.00
C657   C     0.47764   0.76260   0.28618   0.00000  Uiso   1.00
C658   C     0.65375   0.47288   0.21748   0.00000  Uiso   1.00
C659   C     0.62307   0.42624   0.17972   0.00000  Uiso   1.00
C660   C     0.60347   0.33880   0.17861   0.00000  Uiso   1.00
C661   C     0.57648   0.30857   0.14106   0.00000  Uiso   1.00
C662   C     0.71852   0.50965   0.20183   0.00000  Uiso   1.00
C663   C     0.77917   0.49235   0.21932   0.00000  Uiso   1.00
C664   C     0.83253   0.53234   0.20040   0.00000  Uiso   1.00
C665   C     0.61072   0.55251   0.22656   0.00000  Uiso   1.00
C666   C     0.58075   0.57126   0.26484   0.00000  Uiso   1.00
C667   C     0.54337   0.64735   0.26674   0.00000  Uiso   1.00
H668   H     0.63515   0.61770   0.12543   0.00000  Uiso   1.00
H669   H     0.58351   0.49421   0.07984   0.00000  Uiso   1.00
H670   H     0.75918   0.64774   0.12055   0.00000  Uiso   1.00
H671   H     0.56079   0.72663   0.16606   0.00000  Uiso   1.00
H672   H     0.52942   0.33291   0.04479   0.00000  Uiso   1.00
H673   H     0.89983   0.65666   0.13064   0.00000  Uiso   1.00
H674   H     0.48149   0.82303   0.22661   0.00000  Uiso   1.00
H675   H     0.65928   0.42984   0.24484   0.00000  Uiso   1.00
H676   H     0.60897   0.29604   0.20580   0.00000  Uiso   1.00
H677   H     0.78464   0.44957   0.24651   0.00000  Uiso   1.00
H678   H     0.58625   0.52847   0.29202   0.00000  Uiso   1.00
H679   H     0.55009   0.17206   0.14703   0.00000  Uiso   1.00
H680   H     0.92050   0.49583   0.23288   0.00000  Uiso   1.00
H681   H     0.50215   0.66219   0.32884   0.00000  Uiso   1.00
O682   O     0.50624   0.16785   0.06807   0.00000  Uiso   1.00
O683   O     0.99220   0.59262   0.18071   0.00000  Uiso   1.00
O684   O     0.44335   0.81088   0.30662   0.00000  Uiso   1.00
N685   N     0.54118   0.31342   0.07421   0.00000  Uiso   1.00
N686   N     0.88749   0.61610   0.15447   0.00000  Uiso   1.00
N687   N     0.49639   0.77165   0.24420   0.00000  Uiso   1.00
N688   N     0.55230   0.22687   0.12923   0.00000  Uiso   1.00
N689   N     0.89861   0.52956   0.20948   0.00000  Uiso   1.00
N690   N     0.50751   0.68511   0.29921   0.00000  Uiso   1.00
C691   C     0.64067   0.07466   0.65278   0.00000  Uiso   1.00
C692   C     0.61596   0.98152   0.64458   0.00000  Uiso   1.00
C693   C     0.58900   0.95141   0.60703   0.00000  Uiso   1.00
C694   C     0.56936   0.86395   0.60586   0.00000  Uiso   1.00
C695   C     0.52994   0.72772   0.58777   0.00000  Uiso   1.00
C696   C     0.71141   0.06493   0.66669   0.00000  Uiso   1.00
C697   C     0.76470   0.10496   0.64774   0.00000  Uiso   1.00
C698   C     0.82541   0.08772   0.66520   0.00000  Uiso   1.00
C699   C     0.93417   0.08104   0.68145   0.00000  Uiso   1.00
C700   C     0.60362   0.10779   0.69142   0.00000  Uiso   1.00
C701   C     0.56628   0.18387   0.69326   0.00000  Uiso   1.00
C702   C     0.53625   0.20273   0.73154   0.00000  Uiso   1.00
C703   C     0.47764   0.26260   0.78618   0.00000  Uiso   1.00
C704   C     0.65375   0.97288   0.71748   0.00000  Uiso   1.00
C705   C     0.62307   0.92624   0.67972   0.00000  Uiso   1.00
C706   C     0.60347   0.83880   0.67861   0.00000  Uiso   1.00
C707   C     0.57648   0.80857   0.64106   0.00000  Uiso   1.00
C708   C     0.71852   0.00965   0.70183   0.00000  Uiso   1.00
C709   C     0.77917   0.99235   0.71932   0.00000  Uiso   1.00
C710   C     0.83253   0.03234   0.70040   0.00000  Uiso   1.00
C711   C     0.61072   0.05251   0.72656   0.00000  Uiso   1.00
C712   C     0.58075   0.07126   0.76484   0.00000  Uiso   1.00
C713   C     0.54337   0.14735   0.76674   0.00000  Uiso   1.00
H714   H     0.63515   0.11770   0.62543   0.00000  Uiso   1.00
H715   H     0.58351   0.99421   0.57984   0.00000  Uiso   1.00
H716   H     0.75918   0.14774   0.62055   0.00000  Uiso   1.00
H717   H     0.56079   0.22663   0.66606   0.00000  Uiso   1.00
H718   H     0.52942   0.83291   0.54479   0.00000  Uiso   1.00
H719   H     0.89983   0.15666   0.63064   0.00000  Uiso   1.00
H720   H     0.48149   0.32303   0.72661   0.00000  Uiso   1.00
H721   H     0.65928   0.92984   0.74484   0.00000  Uiso   1.00
H722   H     0.60897   0.79604   0.70580   0.00000  Uiso   1.00
H723   H     0.78464   0.94957   0.74651   0.00000  Uiso   1.00
H724   H     0.58625   0.02847   0.79202   0.00000  Uiso   1.00
H725   H     0.55009   0.67206   0.64703   0.00000  Uiso   1.00
H726   H     0.92050   0.99583   0.73288   0.00000  Uiso   1.00
H727   H     0.50215   0.16219   0.82884   0.00000  Uiso   1.00
O728   O     0.50624   0.66785   0.56807   0.00000  Uiso   1.00
O729   O     0.99220   0.09262   0.68071   0.00000  Uiso   1.00
O730   O     0.44335   0.31088   0.80662   0.00000  Uiso   1.00
N731   N     0.54118   0.81342   0.57421   0.00000  Uiso   1.00
N732   N     0.88749   0.11610   0.65447   0.00000  Uiso   1.00
N733   N     0.49639   0.27165   0.74420   0.00000  Uiso   1.00
N734   N     0.55230   0.72687   0.62923   0.00000  Uiso   1.00
N735   N     0.89861   0.02956   0.70948   0.00000  Uiso   1.00
N736   N     0.50751   0.18511   0.79921   0.00000  Uiso   1.00
