data_job_05176
_audit_creation_date              2018-12-19
_audit_creation_method            'Materials Studio'
_symmetry_space_group_name_H-M    'P1'
_symmetry_Int_Tables_number       1
_symmetry_cell_setting            triclinic
loop_
_symmetry_equiv_pos_as_xyz
  x,y,z
_cell_length_a                    20.9336
_cell_length_b                    20.9336
_cell_length_c                    26.3495
_cell_angle_alpha                 90.0000
_cell_angle_beta                  90.0000
_cell_angle_gamma                 90.0000
loop_
_atom_site_label
_atom_site_type_symbol
_atom_site_fract_x
_atom_site_fract_y
_atom_site_fract_z
_atom_site_U_iso_or_equiv
_atom_site_adp_type
_atom_site_occupancy
C1     C     0.95428   0.09193   0.27024   0.00000  Uiso   1.00
C2     C     0.02564   0.10036   0.27975   0.00000  Uiso   1.00
C3     C     0.06159   0.06713   0.31527   0.00000  Uiso   1.00
C4     C     0.12617   0.08180   0.31812   0.00000  Uiso   1.00
C5     C     0.23277   0.08787   0.33771   0.00000  Uiso   1.00
C6     C     0.92450   0.15785   0.27713   0.00000  Uiso   1.00
C7     C     0.87540   0.17295   0.31043   0.00000  Uiso   1.00
C8     C     0.85484   0.23600   0.31107   0.00000  Uiso   1.00
C9     C     0.80439   0.33131   0.32655   0.00000  Uiso   1.00
C10    C     0.94749   0.07593   0.21404   0.00000  Uiso   1.00
C11    C     0.91771   0.02217   0.19430   0.00000  Uiso   1.00
C12    C     0.91649   0.01626   0.14182   0.00000  Uiso   1.00
C13    C     0.90173   0.98439   0.05935   0.00000  Uiso   1.00
C14    C     0.00504   0.17706   0.21215   0.00000  Uiso   1.00
C15    C     0.05321   0.14660   0.24820   0.00000  Uiso   1.00
C16    C     0.11776   0.16132   0.25100   0.00000  Uiso   1.00
C17    C     0.15379   0.12812   0.28651   0.00000  Uiso   1.00
C18    C     0.95207   0.20408   0.24558   0.00000  Uiso   1.00
C19    C     0.93157   0.26713   0.24617   0.00000  Uiso   1.00
C20    C     0.88247   0.28232   0.27946   0.00000  Uiso   1.00
C21    C     0.97506   0.12217   0.18249   0.00000  Uiso   1.00
C22    C     0.97388   0.11635   0.13003   0.00000  Uiso   1.00
C23    C     0.94411   0.06258   0.11021   0.00000  Uiso   1.00
H24    H     0.93281   0.05594   0.29480   0.00000  Uiso   1.00
H25    H     0.04023   0.03136   0.33968   0.00000  Uiso   1.00
H26    H     0.85407   0.13715   0.33484   0.00000  Uiso   1.00
H27    H     0.89637   0.98640   0.21872   0.00000  Uiso   1.00
H28    H     0.17148   0.02451   0.37553   0.00000  Uiso   1.00
H29    H     0.77894   0.24758   0.36531   0.00000  Uiso   1.00
H30    H     0.86814   0.92968   0.12046   0.00000  Uiso   1.00
H31    H     0.02651   0.21306   0.18759   0.00000  Uiso   1.00
H32    H     0.13908   0.19710   0.22658   0.00000  Uiso   1.00
H33    H     0.95292   0.30290   0.22174   0.00000  Uiso   1.00
H34    H     0.99522   0.15214   0.10563   0.00000  Uiso   1.00
H35    H     0.25171   0.15904   0.28374   0.00000  Uiso   1.00
H36    H     0.85917   0.38211   0.27352   0.00000  Uiso   1.00
H37    H     0.94837   0.06421   0.02867   0.00000  Uiso   1.00
O38    O     0.28395   0.07846   0.35723   0.00000  Uiso   1.00
O39    O     0.76895   0.37111   0.34382   0.00000  Uiso   1.00
O40    O     0.88598   0.95403   0.02258   0.00000  Uiso   1.00
N41    N     0.17492   0.05836   0.34857   0.00000  Uiso   1.00
N42    N     0.80793   0.26691   0.33902   0.00000  Uiso   1.00
N43    N     0.89130   0.96971   0.11011   0.00000  Uiso   1.00
N44    N     0.21809   0.13074   0.29917   0.00000  Uiso   1.00
N45    N     0.85110   0.33930   0.28963   0.00000  Uiso   1.00
N46    N     0.93447   0.04210   0.06071   0.00000  Uiso   1.00
C47    C     0.45428   0.59193   0.77024   0.00000  Uiso   1.00
C48    C     0.52564   0.60036   0.77975   0.00000  Uiso   1.00
C49    C     0.56159   0.56713   0.81527   0.00000  Uiso   1.00
C50    C     0.62617   0.58180   0.81812   0.00000  Uiso   1.00
C51    C     0.73277   0.58787   0.83771   0.00000  Uiso   1.00
C52    C     0.42450   0.65785   0.77713   0.00000  Uiso   1.00
C53    C     0.37540   0.67295   0.81043   0.00000  Uiso   1.00
C54    C     0.35484   0.73600   0.81107   0.00000  Uiso   1.00
C55    C     0.30439   0.83131   0.82655   0.00000  Uiso   1.00
C56    C     0.44749   0.57593   0.71404   0.00000  Uiso   1.00
C57    C     0.41771   0.52217   0.69430   0.00000  Uiso   1.00
C58    C     0.41649   0.51626   0.64182   0.00000  Uiso   1.00
C59    C     0.40173   0.48439   0.55935   0.00000  Uiso   1.00
C60    C     0.50504   0.67706   0.71215   0.00000  Uiso   1.00
C61    C     0.55321   0.64660   0.74820   0.00000  Uiso   1.00
C62    C     0.61776   0.66132   0.75100   0.00000  Uiso   1.00
C63    C     0.65379   0.62812   0.78651   0.00000  Uiso   1.00
C64    C     0.45207   0.70408   0.74558   0.00000  Uiso   1.00
C65    C     0.43157   0.76713   0.74617   0.00000  Uiso   1.00
C66    C     0.38247   0.78232   0.77946   0.00000  Uiso   1.00
C67    C     0.47506   0.62217   0.68249   0.00000  Uiso   1.00
C68    C     0.47388   0.61635   0.63003   0.00000  Uiso   1.00
C69    C     0.44411   0.56258   0.61021   0.00000  Uiso   1.00
H70    H     0.43281   0.55594   0.79480   0.00000  Uiso   1.00
H71    H     0.54023   0.53136   0.83968   0.00000  Uiso   1.00
H72    H     0.35407   0.63715   0.83484   0.00000  Uiso   1.00
H73    H     0.39637   0.48640   0.71872   0.00000  Uiso   1.00
H74    H     0.67148   0.52451   0.87553   0.00000  Uiso   1.00
H75    H     0.27894   0.74758   0.86531   0.00000  Uiso   1.00
H76    H     0.36814   0.42968   0.62046   0.00000  Uiso   1.00
H77    H     0.52651   0.71306   0.68759   0.00000  Uiso   1.00
H78    H     0.63908   0.69710   0.72658   0.00000  Uiso   1.00
H79    H     0.45292   0.80290   0.72174   0.00000  Uiso   1.00
H80    H     0.49522   0.65214   0.60563   0.00000  Uiso   1.00
H81    H     0.75171   0.65904   0.78374   0.00000  Uiso   1.00
H82    H     0.35917   0.88211   0.77352   0.00000  Uiso   1.00
H83    H     0.44837   0.56421   0.52867   0.00000  Uiso   1.00
O84    O     0.78395   0.57846   0.85723   0.00000  Uiso   1.00
O85    O     0.26895   0.87111   0.84382   0.00000  Uiso   1.00
O86    O     0.38598   0.45403   0.52258   0.00000  Uiso   1.00
N87    N     0.67492   0.55836   0.84857   0.00000  Uiso   1.00
N88    N     0.30793   0.76691   0.83902   0.00000  Uiso   1.00
N89    N     0.39130   0.46971   0.61011   0.00000  Uiso   1.00
N90    N     0.71809   0.63074   0.79917   0.00000  Uiso   1.00
N91    N     0.35110   0.83930   0.78963   0.00000  Uiso   1.00
N92    N     0.43447   0.54210   0.56071   0.00000  Uiso   1.00
C93    C     0.54572   0.40807   0.77024   0.00000  Uiso   1.00
C94    C     0.47436   0.39964   0.77975   0.00000  Uiso   1.00
C95    C     0.43841   0.43287   0.81527   0.00000  Uiso   1.00
C96    C     0.37383   0.41820   0.81812   0.00000  Uiso   1.00
C97    C     0.26723   0.41213   0.83771   0.00000  Uiso   1.00
C98    C     0.57550   0.34215   0.77713   0.00000  Uiso   1.00
C99    C     0.62460   0.32705   0.81043   0.00000  Uiso   1.00
C100   C     0.64516   0.26400   0.81107   0.00000  Uiso   1.00
C101   C     0.69561   0.16869   0.82655   0.00000  Uiso   1.00
C102   C     0.55251   0.42407   0.71404   0.00000  Uiso   1.00
C103   C     0.58229   0.47783   0.69430   0.00000  Uiso   1.00
C104   C     0.58351   0.48374   0.64182   0.00000  Uiso   1.00
C105   C     0.59827   0.51561   0.55935   0.00000  Uiso   1.00
C106   C     0.49496   0.32294   0.71215   0.00000  Uiso   1.00
C107   C     0.44679   0.35340   0.74820   0.00000  Uiso   1.00
C108   C     0.38224   0.33868   0.75100   0.00000  Uiso   1.00
C109   C     0.34621   0.37188   0.78651   0.00000  Uiso   1.00
C110   C     0.54793   0.29592   0.74558   0.00000  Uiso   1.00
C111   C     0.56843   0.23287   0.74617   0.00000  Uiso   1.00
C112   C     0.61753   0.21768   0.77946   0.00000  Uiso   1.00
C113   C     0.52494   0.37783   0.68249   0.00000  Uiso   1.00
C114   C     0.52612   0.38365   0.63003   0.00000  Uiso   1.00
C115   C     0.55589   0.43742   0.61021   0.00000  Uiso   1.00
H116   H     0.56719   0.44406   0.79480   0.00000  Uiso   1.00
H117   H     0.45977   0.46864   0.83968   0.00000  Uiso   1.00
H118   H     0.64593   0.36285   0.83484   0.00000  Uiso   1.00
H119   H     0.60363   0.51360   0.71872   0.00000  Uiso   1.00
H120   H     0.32852   0.47549   0.87553   0.00000  Uiso   1.00
H121   H     0.72106   0.25242   0.86531   0.00000  Uiso   1.00
H122   H     0.63186   0.57032   0.62046   0.00000  Uiso   1.00
H123   H     0.47349   0.28694   0.68759   0.00000  Uiso   1.00
H124   H     0.36092   0.30290   0.72658   0.00000  Uiso   1.00
H125   H     0.54708   0.19710   0.72174   0.00000  Uiso   1.00
H126   H     0.50478   0.34786   0.60563   0.00000  Uiso   1.00
H127   H     0.24829   0.34096   0.78374   0.00000  Uiso   1.00
H128   H     0.64083   0.11789   0.77352   0.00000  Uiso   1.00
H129   H     0.55163   0.43579   0.52867   0.00000  Uiso   1.00
O130   O     0.21605   0.42154   0.85723   0.00000  Uiso   1.00
O131   O     0.73105   0.12889   0.84382   0.00000  Uiso   1.00
O132   O     0.61402   0.54597   0.52258   0.00000  Uiso   1.00
N133   N     0.32508   0.44164   0.84857   0.00000  Uiso   1.00
N134   N     0.69207   0.23309   0.83902   0.00000  Uiso   1.00
N135   N     0.60870   0.53029   0.61011   0.00000  Uiso   1.00
N136   N     0.28191   0.36926   0.79917   0.00000  Uiso   1.00
N137   N     0.64890   0.16070   0.78963   0.00000  Uiso   1.00
N138   N     0.56553   0.45790   0.56071   0.00000  Uiso   1.00
C139   C     0.04572   0.90807   0.27024   0.00000  Uiso   1.00
C140   C     0.97436   0.89964   0.27975   0.00000  Uiso   1.00
C141   C     0.93841   0.93287   0.31527   0.00000  Uiso   1.00
C142   C     0.87383   0.91820   0.31812   0.00000  Uiso   1.00
C143   C     0.76723   0.91213   0.33771   0.00000  Uiso   1.00
C144   C     0.07550   0.84215   0.27713   0.00000  Uiso   1.00
C145   C     0.12460   0.82705   0.31043   0.00000  Uiso   1.00
C146   C     0.14516   0.76400   0.31107   0.00000  Uiso   1.00
C147   C     0.19561   0.66869   0.32655   0.00000  Uiso   1.00
C148   C     0.05251   0.92407   0.21404   0.00000  Uiso   1.00
C149   C     0.08229   0.97783   0.19430   0.00000  Uiso   1.00
C150   C     0.08351   0.98374   0.14182   0.00000  Uiso   1.00
C151   C     0.09827   0.01561   0.05935   0.00000  Uiso   1.00
C152   C     0.99496   0.82294   0.21215   0.00000  Uiso   1.00
C153   C     0.94679   0.85340   0.24820   0.00000  Uiso   1.00
C154   C     0.88224   0.83868   0.25100   0.00000  Uiso   1.00
C155   C     0.84621   0.87188   0.28651   0.00000  Uiso   1.00
C156   C     0.04793   0.79592   0.24558   0.00000  Uiso   1.00
C157   C     0.06843   0.73287   0.24617   0.00000  Uiso   1.00
C158   C     0.11753   0.71768   0.27946   0.00000  Uiso   1.00
C159   C     0.02494   0.87783   0.18249   0.00000  Uiso   1.00
C160   C     0.02612   0.88365   0.13003   0.00000  Uiso   1.00
C161   C     0.05589   0.93742   0.11021   0.00000  Uiso   1.00
H162   H     0.06719   0.94406   0.29480   0.00000  Uiso   1.00
H163   H     0.95977   0.96864   0.33968   0.00000  Uiso   1.00
H164   H     0.14593   0.86285   0.33484   0.00000  Uiso   1.00
H165   H     0.10363   0.01360   0.21872   0.00000  Uiso   1.00
H166   H     0.82852   0.97549   0.37553   0.00000  Uiso   1.00
H167   H     0.22106   0.75242   0.36531   0.00000  Uiso   1.00
H168   H     0.13186   0.07032   0.12046   0.00000  Uiso   1.00
H169   H     0.97349   0.78694   0.18759   0.00000  Uiso   1.00
H170   H     0.86092   0.80290   0.22658   0.00000  Uiso   1.00
H171   H     0.04708   0.69710   0.22174   0.00000  Uiso   1.00
H172   H     0.00478   0.84786   0.10563   0.00000  Uiso   1.00
H173   H     0.74829   0.84096   0.28374   0.00000  Uiso   1.00
H174   H     0.14083   0.61789   0.27352   0.00000  Uiso   1.00
H175   H     0.05163   0.93579   0.02867   0.00000  Uiso   1.00
O176   O     0.71605   0.92154   0.35723   0.00000  Uiso   1.00
O177   O     0.23105   0.62889   0.34382   0.00000  Uiso   1.00
O178   O     0.11402   0.04597   0.02258   0.00000  Uiso   1.00
N179   N     0.82508   0.94164   0.34857   0.00000  Uiso   1.00
N180   N     0.19207   0.73309   0.33902   0.00000  Uiso   1.00
N181   N     0.10870   0.03029   0.11011   0.00000  Uiso   1.00
N182   N     0.78191   0.86926   0.29917   0.00000  Uiso   1.00
N183   N     0.14890   0.66070   0.28963   0.00000  Uiso   1.00
N184   N     0.06553   0.95790   0.06071   0.00000  Uiso   1.00
C185   C     0.90807   0.45428   0.52024   0.00000  Uiso   1.00
C186   C     0.89964   0.52564   0.52975   0.00000  Uiso   1.00
C187   C     0.93287   0.56159   0.56527   0.00000  Uiso   1.00
C188   C     0.91820   0.62617   0.56812   0.00000  Uiso   1.00
C189   C     0.91213   0.73277   0.58771   0.00000  Uiso   1.00
C190   C     0.84215   0.42450   0.52713   0.00000  Uiso   1.00
C191   C     0.82705   0.37540   0.56043   0.00000  Uiso   1.00
C192   C     0.76400   0.35484   0.56107   0.00000  Uiso   1.00
C193   C     0.66869   0.30439   0.57655   0.00000  Uiso   1.00
C194   C     0.92407   0.44749   0.46404   0.00000  Uiso   1.00
C195   C     0.97783   0.41771   0.44430   0.00000  Uiso   1.00
C196   C     0.98374   0.41649   0.39182   0.00000  Uiso   1.00
C197   C     0.01561   0.40173   0.30935   0.00000  Uiso   1.00
C198   C     0.82294   0.50504   0.46215   0.00000  Uiso   1.00
C199   C     0.85340   0.55321   0.49820   0.00000  Uiso   1.00
C200   C     0.83868   0.61776   0.50100   0.00000  Uiso   1.00
C201   C     0.87188   0.65379   0.53651   0.00000  Uiso   1.00
C202   C     0.79592   0.45207   0.49558   0.00000  Uiso   1.00
C203   C     0.73287   0.43157   0.49617   0.00000  Uiso   1.00
C204   C     0.71768   0.38247   0.52946   0.00000  Uiso   1.00
C205   C     0.87783   0.47506   0.43249   0.00000  Uiso   1.00
C206   C     0.88365   0.47388   0.38003   0.00000  Uiso   1.00
C207   C     0.93742   0.44411   0.36021   0.00000  Uiso   1.00
H208   H     0.94406   0.43281   0.54480   0.00000  Uiso   1.00
H209   H     0.96864   0.54023   0.58968   0.00000  Uiso   1.00
H210   H     0.86285   0.35407   0.58484   0.00000  Uiso   1.00
H211   H     0.01360   0.39637   0.46872   0.00000  Uiso   1.00
H212   H     0.97549   0.67148   0.62553   0.00000  Uiso   1.00
H213   H     0.75242   0.27894   0.61531   0.00000  Uiso   1.00
H214   H     0.07032   0.36814   0.37046   0.00000  Uiso   1.00
H215   H     0.78694   0.52651   0.43759   0.00000  Uiso   1.00
H216   H     0.80290   0.63908   0.47658   0.00000  Uiso   1.00
H217   H     0.69710   0.45292   0.47174   0.00000  Uiso   1.00
H218   H     0.84786   0.49522   0.35563   0.00000  Uiso   1.00
H219   H     0.84096   0.75171   0.53374   0.00000  Uiso   1.00
H220   H     0.61789   0.35917   0.52352   0.00000  Uiso   1.00
H221   H     0.93579   0.44837   0.27867   0.00000  Uiso   1.00
O222   O     0.92154   0.78395   0.60723   0.00000  Uiso   1.00
O223   O     0.62889   0.26895   0.59382   0.00000  Uiso   1.00
O224   O     0.04597   0.38598   0.27258   0.00000  Uiso   1.00
N225   N     0.94164   0.67492   0.59857   0.00000  Uiso   1.00
N226   N     0.73309   0.30793   0.58902   0.00000  Uiso   1.00
N227   N     0.03029   0.39130   0.36011   0.00000  Uiso   1.00
N228   N     0.86926   0.71809   0.54917   0.00000  Uiso   1.00
N229   N     0.66070   0.35110   0.53963   0.00000  Uiso   1.00
N230   N     0.95790   0.43447   0.31071   0.00000  Uiso   1.00
C231   C     0.40807   0.95428   0.02024   0.00000  Uiso   1.00
C232   C     0.39964   0.02564   0.02975   0.00000  Uiso   1.00
C233   C     0.43287   0.06159   0.06527   0.00000  Uiso   1.00
C234   C     0.41820   0.12617   0.06812   0.00000  Uiso   1.00
C235   C     0.41213   0.23277   0.08771   0.00000  Uiso   1.00
C236   C     0.34215   0.92450   0.02713   0.00000  Uiso   1.00
C237   C     0.32705   0.87540   0.06043   0.00000  Uiso   1.00
C238   C     0.26400   0.85484   0.06107   0.00000  Uiso   1.00
C239   C     0.16869   0.80439   0.07655   0.00000  Uiso   1.00
C240   C     0.42407   0.94749   0.96404   0.00000  Uiso   1.00
C241   C     0.47783   0.91771   0.94430   0.00000  Uiso   1.00
C242   C     0.48374   0.91649   0.89182   0.00000  Uiso   1.00
C243   C     0.51561   0.90173   0.80935   0.00000  Uiso   1.00
C244   C     0.32294   0.00504   0.96215   0.00000  Uiso   1.00
C245   C     0.35340   0.05321   0.99820   0.00000  Uiso   1.00
C246   C     0.33868   0.11776   0.00100   0.00000  Uiso   1.00
C247   C     0.37188   0.15379   0.03651   0.00000  Uiso   1.00
C248   C     0.29592   0.95207   0.99558   0.00000  Uiso   1.00
C249   C     0.23287   0.93157   0.99617   0.00000  Uiso   1.00
C250   C     0.21768   0.88247   0.02946   0.00000  Uiso   1.00
C251   C     0.37783   0.97506   0.93249   0.00000  Uiso   1.00
C252   C     0.38365   0.97388   0.88003   0.00000  Uiso   1.00
C253   C     0.43742   0.94411   0.86021   0.00000  Uiso   1.00
H254   H     0.44406   0.93281   0.04480   0.00000  Uiso   1.00
H255   H     0.46864   0.04023   0.08968   0.00000  Uiso   1.00
H256   H     0.36285   0.85407   0.08484   0.00000  Uiso   1.00
H257   H     0.51360   0.89637   0.96872   0.00000  Uiso   1.00
H258   H     0.47549   0.17148   0.12553   0.00000  Uiso   1.00
H259   H     0.25242   0.77894   0.11531   0.00000  Uiso   1.00
H260   H     0.57032   0.86814   0.87046   0.00000  Uiso   1.00
H261   H     0.28694   0.02651   0.93759   0.00000  Uiso   1.00
H262   H     0.30290   0.13908   0.97658   0.00000  Uiso   1.00
H263   H     0.19710   0.95292   0.97174   0.00000  Uiso   1.00
H264   H     0.34786   0.99522   0.85563   0.00000  Uiso   1.00
H265   H     0.34096   0.25171   0.03374   0.00000  Uiso   1.00
H266   H     0.11789   0.85917   0.02352   0.00000  Uiso   1.00
H267   H     0.43579   0.94837   0.77867   0.00000  Uiso   1.00
O268   O     0.42154   0.28395   0.10723   0.00000  Uiso   1.00
O269   O     0.12889   0.76895   0.09382   0.00000  Uiso   1.00
O270   O     0.54597   0.88598   0.77258   0.00000  Uiso   1.00
N271   N     0.44164   0.17492   0.09857   0.00000  Uiso   1.00
N272   N     0.23309   0.80793   0.08902   0.00000  Uiso   1.00
N273   N     0.53029   0.89130   0.86011   0.00000  Uiso   1.00
N274   N     0.36926   0.21809   0.04917   0.00000  Uiso   1.00
N275   N     0.16070   0.85110   0.03963   0.00000  Uiso   1.00
N276   N     0.45790   0.93447   0.81071   0.00000  Uiso   1.00
C277   C     0.59193   0.04572   0.02024   0.00000  Uiso   1.00
C278   C     0.60036   0.97436   0.02975   0.00000  Uiso   1.00
C279   C     0.56713   0.93841   0.06527   0.00000  Uiso   1.00
C280   C     0.58180   0.87383   0.06812   0.00000  Uiso   1.00
C281   C     0.58787   0.76723   0.08771   0.00000  Uiso   1.00
C282   C     0.65785   0.07550   0.02713   0.00000  Uiso   1.00
C283   C     0.67295   0.12460   0.06043   0.00000  Uiso   1.00
C284   C     0.73600   0.14516   0.06107   0.00000  Uiso   1.00
C285   C     0.83131   0.19561   0.07655   0.00000  Uiso   1.00
C286   C     0.57593   0.05251   0.96404   0.00000  Uiso   1.00
C287   C     0.52217   0.08229   0.94430   0.00000  Uiso   1.00
C288   C     0.51626   0.08351   0.89182   0.00000  Uiso   1.00
C289   C     0.48439   0.09827   0.80935   0.00000  Uiso   1.00
C290   C     0.67706   0.99496   0.96215   0.00000  Uiso   1.00
C291   C     0.64660   0.94679   0.99820   0.00000  Uiso   1.00
C292   C     0.66132   0.88224   0.00100   0.00000  Uiso   1.00
C293   C     0.62812   0.84621   0.03651   0.00000  Uiso   1.00
C294   C     0.70408   0.04793   0.99558   0.00000  Uiso   1.00
C295   C     0.76713   0.06843   0.99617   0.00000  Uiso   1.00
C296   C     0.78232   0.11753   0.02946   0.00000  Uiso   1.00
C297   C     0.62217   0.02494   0.93249   0.00000  Uiso   1.00
C298   C     0.61635   0.02612   0.88003   0.00000  Uiso   1.00
C299   C     0.56258   0.05589   0.86021   0.00000  Uiso   1.00
H300   H     0.55594   0.06719   0.04480   0.00000  Uiso   1.00
H301   H     0.53136   0.95977   0.08968   0.00000  Uiso   1.00
H302   H     0.63715   0.14593   0.08484   0.00000  Uiso   1.00
H303   H     0.48640   0.10363   0.96872   0.00000  Uiso   1.00
H304   H     0.52451   0.82852   0.12553   0.00000  Uiso   1.00
H305   H     0.74758   0.22106   0.11531   0.00000  Uiso   1.00
H306   H     0.42968   0.13186   0.87046   0.00000  Uiso   1.00
H307   H     0.71306   0.97349   0.93759   0.00000  Uiso   1.00
H308   H     0.69710   0.86092   0.97658   0.00000  Uiso   1.00
H309   H     0.80290   0.04708   0.97174   0.00000  Uiso   1.00
H310   H     0.65214   0.00478   0.85563   0.00000  Uiso   1.00
H311   H     0.65904   0.74829   0.03374   0.00000  Uiso   1.00
H312   H     0.88211   0.14083   0.02352   0.00000  Uiso   1.00
H313   H     0.56421   0.05163   0.77867   0.00000  Uiso   1.00
O314   O     0.57846   0.71605   0.10723   0.00000  Uiso   1.00
O315   O     0.87111   0.23105   0.09382   0.00000  Uiso   1.00
O316   O     0.45403   0.11402   0.77258   0.00000  Uiso   1.00
N317   N     0.55836   0.82508   0.09857   0.00000  Uiso   1.00
N318   N     0.76691   0.19207   0.08902   0.00000  Uiso   1.00
N319   N     0.46971   0.10870   0.86011   0.00000  Uiso   1.00
N320   N     0.63074   0.78191   0.04917   0.00000  Uiso   1.00
N321   N     0.83930   0.14890   0.03963   0.00000  Uiso   1.00
N322   N     0.54210   0.06553   0.81071   0.00000  Uiso   1.00
C323   C     0.09193   0.54572   0.52024   0.00000  Uiso   1.00
C324   C     0.10036   0.47436   0.52975   0.00000  Uiso   1.00
C325   C     0.06713   0.43841   0.56527   0.00000  Uiso   1.00
C326   C     0.08180   0.37383   0.56812   0.00000  Uiso   1.00
C327   C     0.08787   0.26723   0.58771   0.00000  Uiso   1.00
C328   C     0.15785   0.57550   0.52713   0.00000  Uiso   1.00
C329   C     0.17295   0.62460   0.56043   0.00000  Uiso   1.00
C330   C     0.23600   0.64516   0.56107   0.00000  Uiso   1.00
C331   C     0.33131   0.69561   0.57655   0.00000  Uiso   1.00
C332   C     0.07593   0.55251   0.46404   0.00000  Uiso   1.00
C333   C     0.02217   0.58229   0.44430   0.00000  Uiso   1.00
C334   C     0.01626   0.58351   0.39182   0.00000  Uiso   1.00
C335   C     0.98439   0.59827   0.30935   0.00000  Uiso   1.00
C336   C     0.17706   0.49496   0.46215   0.00000  Uiso   1.00
C337   C     0.14660   0.44679   0.49820   0.00000  Uiso   1.00
C338   C     0.16132   0.38224   0.50100   0.00000  Uiso   1.00
C339   C     0.12812   0.34621   0.53651   0.00000  Uiso   1.00
C340   C     0.20408   0.54793   0.49558   0.00000  Uiso   1.00
C341   C     0.26713   0.56843   0.49617   0.00000  Uiso   1.00
C342   C     0.28232   0.61753   0.52946   0.00000  Uiso   1.00
C343   C     0.12217   0.52494   0.43249   0.00000  Uiso   1.00
C344   C     0.11635   0.52612   0.38003   0.00000  Uiso   1.00
C345   C     0.06258   0.55589   0.36021   0.00000  Uiso   1.00
H346   H     0.05594   0.56719   0.54480   0.00000  Uiso   1.00
H347   H     0.03136   0.45977   0.58968   0.00000  Uiso   1.00
H348   H     0.13715   0.64593   0.58484   0.00000  Uiso   1.00
H349   H     0.98640   0.60363   0.46872   0.00000  Uiso   1.00
H350   H     0.02451   0.32852   0.62553   0.00000  Uiso   1.00
H351   H     0.24758   0.72106   0.61531   0.00000  Uiso   1.00
H352   H     0.92968   0.63186   0.37046   0.00000  Uiso   1.00
H353   H     0.21306   0.47349   0.43759   0.00000  Uiso   1.00
H354   H     0.19710   0.36092   0.47658   0.00000  Uiso   1.00
H355   H     0.30290   0.54708   0.47174   0.00000  Uiso   1.00
H356   H     0.15214   0.50478   0.35563   0.00000  Uiso   1.00
H357   H     0.15904   0.24829   0.53374   0.00000  Uiso   1.00
H358   H     0.38211   0.64083   0.52352   0.00000  Uiso   1.00
H359   H     0.06421   0.55163   0.27867   0.00000  Uiso   1.00
O360   O     0.07846   0.21605   0.60723   0.00000  Uiso   1.00
O361   O     0.37111   0.73105   0.59382   0.00000  Uiso   1.00
O362   O     0.95403   0.61402   0.27258   0.00000  Uiso   1.00
N363   N     0.05836   0.32508   0.59857   0.00000  Uiso   1.00
N364   N     0.26691   0.69207   0.58902   0.00000  Uiso   1.00
N365   N     0.96971   0.60870   0.36011   0.00000  Uiso   1.00
N366   N     0.13074   0.28191   0.54917   0.00000  Uiso   1.00
N367   N     0.33930   0.64890   0.53963   0.00000  Uiso   1.00
N368   N     0.04210   0.56553   0.31071   0.00000  Uiso   1.00
C369   C     0.04572   0.40807   0.97976   0.00000  Uiso   1.00
C370   C     0.97436   0.39964   0.97025   0.00000  Uiso   1.00
C371   C     0.93841   0.43287   0.93473   0.00000  Uiso   1.00
C372   C     0.87383   0.41820   0.93188   0.00000  Uiso   1.00
C373   C     0.76723   0.41213   0.91229   0.00000  Uiso   1.00
C374   C     0.07550   0.34215   0.97287   0.00000  Uiso   1.00
C375   C     0.12460   0.32705   0.93957   0.00000  Uiso   1.00
C376   C     0.14516   0.26400   0.93893   0.00000  Uiso   1.00
C377   C     0.19561   0.16869   0.92345   0.00000  Uiso   1.00
C378   C     0.05251   0.42407   0.03596   0.00000  Uiso   1.00
C379   C     0.08229   0.47783   0.05570   0.00000  Uiso   1.00
C380   C     0.08351   0.48374   0.10818   0.00000  Uiso   1.00
C381   C     0.09827   0.51561   0.19065   0.00000  Uiso   1.00
C382   C     0.99496   0.32294   0.03785   0.00000  Uiso   1.00
C383   C     0.94679   0.35340   0.00180   0.00000  Uiso   1.00
C384   C     0.88224   0.33868   0.99900   0.00000  Uiso   1.00
C385   C     0.84621   0.37188   0.96349   0.00000  Uiso   1.00
C386   C     0.04793   0.29592   0.00442   0.00000  Uiso   1.00
C387   C     0.06843   0.23287   0.00383   0.00000  Uiso   1.00
C388   C     0.11753   0.21768   0.97054   0.00000  Uiso   1.00
C389   C     0.02494   0.37783   0.06751   0.00000  Uiso   1.00
C390   C     0.02612   0.38365   0.11997   0.00000  Uiso   1.00
C391   C     0.05589   0.43742   0.13979   0.00000  Uiso   1.00
H392   H     0.06719   0.44406   0.95520   0.00000  Uiso   1.00
H393   H     0.95977   0.46864   0.91032   0.00000  Uiso   1.00
H394   H     0.14593   0.36285   0.91516   0.00000  Uiso   1.00
H395   H     0.10363   0.51360   0.03128   0.00000  Uiso   1.00
H396   H     0.82852   0.47549   0.87447   0.00000  Uiso   1.00
H397   H     0.22106   0.25242   0.88469   0.00000  Uiso   1.00
H398   H     0.13186   0.57032   0.12954   0.00000  Uiso   1.00
H399   H     0.97349   0.28694   0.06241   0.00000  Uiso   1.00
H400   H     0.86092   0.30290   0.02342   0.00000  Uiso   1.00
H401   H     0.04708   0.19710   0.02826   0.00000  Uiso   1.00
H402   H     0.00478   0.34786   0.14437   0.00000  Uiso   1.00
H403   H     0.74829   0.34096   0.96626   0.00000  Uiso   1.00
H404   H     0.14083   0.11789   0.97648   0.00000  Uiso   1.00
H405   H     0.05163   0.43579   0.22133   0.00000  Uiso   1.00
O406   O     0.71605   0.42154   0.89277   0.00000  Uiso   1.00
O407   O     0.23105   0.12889   0.90618   0.00000  Uiso   1.00
O408   O     0.11402   0.54597   0.22742   0.00000  Uiso   1.00
N409   N     0.82508   0.44164   0.90143   0.00000  Uiso   1.00
N410   N     0.19207   0.23309   0.91098   0.00000  Uiso   1.00
N411   N     0.10870   0.53029   0.13989   0.00000  Uiso   1.00
N412   N     0.78191   0.36926   0.95083   0.00000  Uiso   1.00
N413   N     0.14890   0.16070   0.96037   0.00000  Uiso   1.00
N414   N     0.06553   0.45790   0.18929   0.00000  Uiso   1.00
C415   C     0.54572   0.90807   0.47976   0.00000  Uiso   1.00
C416   C     0.47436   0.89964   0.47025   0.00000  Uiso   1.00
C417   C     0.43841   0.93287   0.43473   0.00000  Uiso   1.00
C418   C     0.37383   0.91820   0.43188   0.00000  Uiso   1.00
C419   C     0.26723   0.91213   0.41229   0.00000  Uiso   1.00
C420   C     0.57550   0.84215   0.47287   0.00000  Uiso   1.00
C421   C     0.62460   0.82705   0.43957   0.00000  Uiso   1.00
C422   C     0.64516   0.76400   0.43893   0.00000  Uiso   1.00
C423   C     0.69561   0.66869   0.42345   0.00000  Uiso   1.00
C424   C     0.55251   0.92407   0.53596   0.00000  Uiso   1.00
C425   C     0.58229   0.97783   0.55570   0.00000  Uiso   1.00
C426   C     0.58351   0.98374   0.60818   0.00000  Uiso   1.00
C427   C     0.59827   0.01561   0.69065   0.00000  Uiso   1.00
C428   C     0.49496   0.82294   0.53785   0.00000  Uiso   1.00
C429   C     0.44679   0.85340   0.50180   0.00000  Uiso   1.00
C430   C     0.38224   0.83868   0.49900   0.00000  Uiso   1.00
C431   C     0.34621   0.87188   0.46349   0.00000  Uiso   1.00
C432   C     0.54793   0.79592   0.50442   0.00000  Uiso   1.00
C433   C     0.56843   0.73287   0.50383   0.00000  Uiso   1.00
C434   C     0.61753   0.71768   0.47054   0.00000  Uiso   1.00
C435   C     0.52494   0.87783   0.56751   0.00000  Uiso   1.00
C436   C     0.52612   0.88365   0.61997   0.00000  Uiso   1.00
C437   C     0.55589   0.93742   0.63979   0.00000  Uiso   1.00
H438   H     0.56719   0.94406   0.45520   0.00000  Uiso   1.00
H439   H     0.45977   0.96864   0.41032   0.00000  Uiso   1.00
H440   H     0.64593   0.86285   0.41516   0.00000  Uiso   1.00
H441   H     0.60363   0.01360   0.53128   0.00000  Uiso   1.00
H442   H     0.32852   0.97549   0.37447   0.00000  Uiso   1.00
H443   H     0.72106   0.75242   0.38469   0.00000  Uiso   1.00
H444   H     0.63186   0.07032   0.62954   0.00000  Uiso   1.00
H445   H     0.47349   0.78694   0.56241   0.00000  Uiso   1.00
H446   H     0.36092   0.80290   0.52342   0.00000  Uiso   1.00
H447   H     0.54708   0.69710   0.52826   0.00000  Uiso   1.00
H448   H     0.50478   0.84786   0.64437   0.00000  Uiso   1.00
H449   H     0.24829   0.84096   0.46626   0.00000  Uiso   1.00
H450   H     0.64083   0.61789   0.47648   0.00000  Uiso   1.00
H451   H     0.55163   0.93579   0.72133   0.00000  Uiso   1.00
O452   O     0.21605   0.92154   0.39277   0.00000  Uiso   1.00
O453   O     0.73105   0.62889   0.40618   0.00000  Uiso   1.00
O454   O     0.61402   0.04597   0.72742   0.00000  Uiso   1.00
N455   N     0.32508   0.94164   0.40143   0.00000  Uiso   1.00
N456   N     0.69207   0.73309   0.41098   0.00000  Uiso   1.00
N457   N     0.60870   0.03029   0.63989   0.00000  Uiso   1.00
N458   N     0.28191   0.86926   0.45083   0.00000  Uiso   1.00
N459   N     0.64890   0.66070   0.46037   0.00000  Uiso   1.00
N460   N     0.56553   0.95790   0.68929   0.00000  Uiso   1.00
C461   C     0.45428   0.09193   0.47976   0.00000  Uiso   1.00
C462   C     0.52564   0.10036   0.47025   0.00000  Uiso   1.00
C463   C     0.56159   0.06713   0.43473   0.00000  Uiso   1.00
C464   C     0.62617   0.08180   0.43188   0.00000  Uiso   1.00
C465   C     0.73277   0.08787   0.41229   0.00000  Uiso   1.00
C466   C     0.42450   0.15785   0.47287   0.00000  Uiso   1.00
C467   C     0.37540   0.17295   0.43957   0.00000  Uiso   1.00
C468   C     0.35484   0.23600   0.43893   0.00000  Uiso   1.00
C469   C     0.30439   0.33131   0.42345   0.00000  Uiso   1.00
C470   C     0.44749   0.07593   0.53596   0.00000  Uiso   1.00
C471   C     0.41771   0.02217   0.55570   0.00000  Uiso   1.00
C472   C     0.41649   0.01626   0.60818   0.00000  Uiso   1.00
C473   C     0.40173   0.98439   0.69065   0.00000  Uiso   1.00
C474   C     0.50504   0.17706   0.53785   0.00000  Uiso   1.00
C475   C     0.55321   0.14660   0.50180   0.00000  Uiso   1.00
C476   C     0.61776   0.16132   0.49900   0.00000  Uiso   1.00
C477   C     0.65379   0.12812   0.46349   0.00000  Uiso   1.00
C478   C     0.45207   0.20408   0.50442   0.00000  Uiso   1.00
C479   C     0.43157   0.26713   0.50383   0.00000  Uiso   1.00
C480   C     0.38247   0.28232   0.47054   0.00000  Uiso   1.00
C481   C     0.47506   0.12217   0.56751   0.00000  Uiso   1.00
C482   C     0.47388   0.11635   0.61997   0.00000  Uiso   1.00
C483   C     0.44411   0.06258   0.63979   0.00000  Uiso   1.00
H484   H     0.43281   0.05594   0.45520   0.00000  Uiso   1.00
H485   H     0.54023   0.03136   0.41032   0.00000  Uiso   1.00
H486   H     0.35407   0.13715   0.41516   0.00000  Uiso   1.00
H487   H     0.39637   0.98640   0.53128   0.00000  Uiso   1.00
H488   H     0.67148   0.02451   0.37447   0.00000  Uiso   1.00
H489   H     0.27894   0.24758   0.38469   0.00000  Uiso   1.00
H490   H     0.36814   0.92968   0.62954   0.00000  Uiso   1.00
H491   H     0.52651   0.21306   0.56241   0.00000  Uiso   1.00
H492   H     0.63908   0.19710   0.52342   0.00000  Uiso   1.00
H493   H     0.45292   0.30290   0.52826   0.00000  Uiso   1.00
H494   H     0.49522   0.15214   0.64437   0.00000  Uiso   1.00
H495   H     0.75171   0.15904   0.46626   0.00000  Uiso   1.00
H496   H     0.35917   0.38211   0.47648   0.00000  Uiso   1.00
H497   H     0.44837   0.06421   0.72133   0.00000  Uiso   1.00
O498   O     0.78395   0.07846   0.39277   0.00000  Uiso   1.00
O499   O     0.26895   0.37111   0.40618   0.00000  Uiso   1.00
O500   O     0.38598   0.95403   0.72742   0.00000  Uiso   1.00
N501   N     0.67492   0.05836   0.40143   0.00000  Uiso   1.00
N502   N     0.30793   0.26691   0.41098   0.00000  Uiso   1.00
N503   N     0.39130   0.96971   0.63989   0.00000  Uiso   1.00
N504   N     0.71809   0.13074   0.45083   0.00000  Uiso   1.00
N505   N     0.35110   0.33930   0.46037   0.00000  Uiso   1.00
N506   N     0.43447   0.04210   0.68929   0.00000  Uiso   1.00
C507   C     0.95428   0.59193   0.97976   0.00000  Uiso   1.00
C508   C     0.02564   0.60036   0.97025   0.00000  Uiso   1.00
C509   C     0.06159   0.56713   0.93473   0.00000  Uiso   1.00
C510   C     0.12617   0.58180   0.93188   0.00000  Uiso   1.00
C511   C     0.23277   0.58787   0.91229   0.00000  Uiso   1.00
C512   C     0.92450   0.65785   0.97287   0.00000  Uiso   1.00
C513   C     0.87540   0.67295   0.93957   0.00000  Uiso   1.00
C514   C     0.85484   0.73600   0.93893   0.00000  Uiso   1.00
C515   C     0.80439   0.83131   0.92345   0.00000  Uiso   1.00
C516   C     0.94749   0.57593   0.03596   0.00000  Uiso   1.00
C517   C     0.91771   0.52217   0.05570   0.00000  Uiso   1.00
C518   C     0.91649   0.51626   0.10818   0.00000  Uiso   1.00
C519   C     0.90173   0.48439   0.19065   0.00000  Uiso   1.00
C520   C     0.00504   0.67706   0.03785   0.00000  Uiso   1.00
C521   C     0.05321   0.64660   0.00180   0.00000  Uiso   1.00
C522   C     0.11776   0.66132   0.99900   0.00000  Uiso   1.00
C523   C     0.15379   0.62812   0.96349   0.00000  Uiso   1.00
C524   C     0.95207   0.70408   0.00442   0.00000  Uiso   1.00
C525   C     0.93157   0.76713   0.00383   0.00000  Uiso   1.00
C526   C     0.88247   0.78232   0.97054   0.00000  Uiso   1.00
C527   C     0.97506   0.62217   0.06751   0.00000  Uiso   1.00
C528   C     0.97388   0.61635   0.11997   0.00000  Uiso   1.00
C529   C     0.94411   0.56258   0.13979   0.00000  Uiso   1.00
H530   H     0.93281   0.55594   0.95520   0.00000  Uiso   1.00
H531   H     0.04023   0.53136   0.91032   0.00000  Uiso   1.00
H532   H     0.85407   0.63715   0.91516   0.00000  Uiso   1.00
H533   H     0.89637   0.48640   0.03128   0.00000  Uiso   1.00
H534   H     0.17148   0.52451   0.87447   0.00000  Uiso   1.00
H535   H     0.77894   0.74758   0.88469   0.00000  Uiso   1.00
H536   H     0.86814   0.42968   0.12954   0.00000  Uiso   1.00
H537   H     0.02651   0.71306   0.06241   0.00000  Uiso   1.00
H538   H     0.13908   0.69710   0.02342   0.00000  Uiso   1.00
H539   H     0.95292   0.80290   0.02826   0.00000  Uiso   1.00
H540   H     0.99522   0.65214   0.14437   0.00000  Uiso   1.00
H541   H     0.25171   0.65904   0.96626   0.00000  Uiso   1.00
H542   H     0.85917   0.88211   0.97648   0.00000  Uiso   1.00
H543   H     0.94837   0.56421   0.22133   0.00000  Uiso   1.00
O544   O     0.28395   0.57846   0.89277   0.00000  Uiso   1.00
O545   O     0.76895   0.87111   0.90618   0.00000  Uiso   1.00
O546   O     0.88598   0.45403   0.22742   0.00000  Uiso   1.00
N547   N     0.17492   0.55836   0.90143   0.00000  Uiso   1.00
N548   N     0.80793   0.76691   0.91098   0.00000  Uiso   1.00
N549   N     0.89130   0.46971   0.13989   0.00000  Uiso   1.00
N550   N     0.21809   0.63074   0.95083   0.00000  Uiso   1.00
N551   N     0.85110   0.83930   0.96037   0.00000  Uiso   1.00
N552   N     0.93447   0.54210   0.18929   0.00000  Uiso   1.00
C553   C     0.09193   0.04572   0.72976   0.00000  Uiso   1.00
C554   C     0.10036   0.97436   0.72025   0.00000  Uiso   1.00
C555   C     0.06713   0.93841   0.68473   0.00000  Uiso   1.00
C556   C     0.08180   0.87383   0.68188   0.00000  Uiso   1.00
C557   C     0.08787   0.76723   0.66229   0.00000  Uiso   1.00
C558   C     0.15785   0.07550   0.72287   0.00000  Uiso   1.00
C559   C     0.17295   0.12460   0.68957   0.00000  Uiso   1.00
C560   C     0.23600   0.14516   0.68893   0.00000  Uiso   1.00
C561   C     0.33131   0.19561   0.67345   0.00000  Uiso   1.00
C562   C     0.07593   0.05251   0.78596   0.00000  Uiso   1.00
C563   C     0.02217   0.08229   0.80570   0.00000  Uiso   1.00
C564   C     0.01626   0.08351   0.85818   0.00000  Uiso   1.00
C565   C     0.98439   0.09827   0.94065   0.00000  Uiso   1.00
C566   C     0.17706   0.99496   0.78785   0.00000  Uiso   1.00
C567   C     0.14660   0.94679   0.75180   0.00000  Uiso   1.00
C568   C     0.16132   0.88224   0.74900   0.00000  Uiso   1.00
C569   C     0.12812   0.84621   0.71349   0.00000  Uiso   1.00
C570   C     0.20408   0.04793   0.75442   0.00000  Uiso   1.00
C571   C     0.26713   0.06843   0.75383   0.00000  Uiso   1.00
C572   C     0.28232   0.11753   0.72054   0.00000  Uiso   1.00
C573   C     0.12217   0.02494   0.81751   0.00000  Uiso   1.00
C574   C     0.11635   0.02612   0.86997   0.00000  Uiso   1.00
C575   C     0.06258   0.05589   0.88979   0.00000  Uiso   1.00
H576   H     0.05594   0.06719   0.70520   0.00000  Uiso   1.00
H577   H     0.03136   0.95977   0.66032   0.00000  Uiso   1.00
H578   H     0.13715   0.14593   0.66516   0.00000  Uiso   1.00
H579   H     0.98640   0.10363   0.78128   0.00000  Uiso   1.00
H580   H     0.02451   0.82852   0.62447   0.00000  Uiso   1.00
H581   H     0.24758   0.22106   0.63469   0.00000  Uiso   1.00
H582   H     0.92968   0.13186   0.87954   0.00000  Uiso   1.00
H583   H     0.21306   0.97349   0.81241   0.00000  Uiso   1.00
H584   H     0.19710   0.86092   0.77342   0.00000  Uiso   1.00
H585   H     0.30290   0.04708   0.77826   0.00000  Uiso   1.00
H586   H     0.15214   0.00478   0.89437   0.00000  Uiso   1.00
H587   H     0.15904   0.74829   0.71626   0.00000  Uiso   1.00
H588   H     0.38211   0.14083   0.72648   0.00000  Uiso   1.00
H589   H     0.06421   0.05163   0.97133   0.00000  Uiso   1.00
O590   O     0.07846   0.71605   0.64277   0.00000  Uiso   1.00
O591   O     0.37111   0.23105   0.65618   0.00000  Uiso   1.00
O592   O     0.95403   0.11402   0.97742   0.00000  Uiso   1.00
N593   N     0.05836   0.82508   0.65143   0.00000  Uiso   1.00
N594   N     0.26691   0.19207   0.66098   0.00000  Uiso   1.00
N595   N     0.96971   0.10870   0.88989   0.00000  Uiso   1.00
N596   N     0.13074   0.78191   0.70083   0.00000  Uiso   1.00
N597   N     0.33930   0.14890   0.71037   0.00000  Uiso   1.00
N598   N     0.04210   0.06553   0.93929   0.00000  Uiso   1.00
C599   C     0.59193   0.54572   0.22976   0.00000  Uiso   1.00
C600   C     0.60036   0.47436   0.22025   0.00000  Uiso   1.00
C601   C     0.56713   0.43841   0.18473   0.00000  Uiso   1.00
C602   C     0.58180   0.37383   0.18188   0.00000  Uiso   1.00
C603   C     0.58787   0.26723   0.16229   0.00000  Uiso   1.00
C604   C     0.65785   0.57550   0.22287   0.00000  Uiso   1.00
C605   C     0.67295   0.62460   0.18957   0.00000  Uiso   1.00
C606   C     0.73600   0.64516   0.18893   0.00000  Uiso   1.00
C607   C     0.83131   0.69561   0.17345   0.00000  Uiso   1.00
C608   C     0.57593   0.55251   0.28596   0.00000  Uiso   1.00
C609   C     0.52217   0.58229   0.30570   0.00000  Uiso   1.00
C610   C     0.51626   0.58351   0.35818   0.00000  Uiso   1.00
C611   C     0.48439   0.59827   0.44065   0.00000  Uiso   1.00
C612   C     0.67706   0.49496   0.28785   0.00000  Uiso   1.00
C613   C     0.64660   0.44679   0.25180   0.00000  Uiso   1.00
C614   C     0.66132   0.38224   0.24900   0.00000  Uiso   1.00
C615   C     0.62812   0.34621   0.21349   0.00000  Uiso   1.00
C616   C     0.70408   0.54793   0.25442   0.00000  Uiso   1.00
C617   C     0.76713   0.56843   0.25383   0.00000  Uiso   1.00
C618   C     0.78232   0.61753   0.22054   0.00000  Uiso   1.00
C619   C     0.62217   0.52494   0.31751   0.00000  Uiso   1.00
C620   C     0.61635   0.52612   0.36997   0.00000  Uiso   1.00
C621   C     0.56258   0.55589   0.38979   0.00000  Uiso   1.00
H622   H     0.55594   0.56719   0.20520   0.00000  Uiso   1.00
H623   H     0.53136   0.45977   0.16032   0.00000  Uiso   1.00
H624   H     0.63715   0.64593   0.16516   0.00000  Uiso   1.00
H625   H     0.48640   0.60363   0.28128   0.00000  Uiso   1.00
H626   H     0.52451   0.32852   0.12447   0.00000  Uiso   1.00
H627   H     0.74758   0.72106   0.13469   0.00000  Uiso   1.00
H628   H     0.42968   0.63186   0.37954   0.00000  Uiso   1.00
H629   H     0.71306   0.47349   0.31241   0.00000  Uiso   1.00
H630   H     0.69710   0.36092   0.27342   0.00000  Uiso   1.00
H631   H     0.80290   0.54708   0.27826   0.00000  Uiso   1.00
H632   H     0.65214   0.50478   0.39437   0.00000  Uiso   1.00
H633   H     0.65904   0.24829   0.21626   0.00000  Uiso   1.00
H634   H     0.88211   0.64083   0.22648   0.00000  Uiso   1.00
H635   H     0.56421   0.55163   0.47133   0.00000  Uiso   1.00
O636   O     0.57846   0.21605   0.14277   0.00000  Uiso   1.00
O637   O     0.87111   0.73105   0.15618   0.00000  Uiso   1.00
O638   O     0.45403   0.61402   0.47742   0.00000  Uiso   1.00
N639   N     0.55836   0.32508   0.15143   0.00000  Uiso   1.00
N640   N     0.76691   0.69207   0.16098   0.00000  Uiso   1.00
N641   N     0.46971   0.60870   0.38989   0.00000  Uiso   1.00
N642   N     0.63074   0.28191   0.20083   0.00000  Uiso   1.00
N643   N     0.83930   0.64890   0.21037   0.00000  Uiso   1.00
N644   N     0.54210   0.56553   0.43929   0.00000  Uiso   1.00
C645   C     0.40807   0.45428   0.22976   0.00000  Uiso   1.00
C646   C     0.39964   0.52564   0.22025   0.00000  Uiso   1.00
C647   C     0.43287   0.56159   0.18473   0.00000  Uiso   1.00
C648   C     0.41820   0.62617   0.18188   0.00000  Uiso   1.00
C649   C     0.41213   0.73277   0.16229   0.00000  Uiso   1.00
C650   C     0.34215   0.42450   0.22287   0.00000  Uiso   1.00
C651   C     0.32705   0.37540   0.18957   0.00000  Uiso   1.00
C652   C     0.26400   0.35484   0.18893   0.00000  Uiso   1.00
C653   C     0.16869   0.30439   0.17345   0.00000  Uiso   1.00
C654   C     0.42407   0.44749   0.28596   0.00000  Uiso   1.00
C655   C     0.47783   0.41771   0.30570   0.00000  Uiso   1.00
C656   C     0.48374   0.41649   0.35818   0.00000  Uiso   1.00
C657   C     0.51561   0.40173   0.44065   0.00000  Uiso   1.00
C658   C     0.32294   0.50504   0.28785   0.00000  Uiso   1.00
C659   C     0.35340   0.55321   0.25180   0.00000  Uiso   1.00
C660   C     0.33868   0.61776   0.24900   0.00000  Uiso   1.00
C661   C     0.37188   0.65379   0.21349   0.00000  Uiso   1.00
C662   C     0.29592   0.45207   0.25442   0.00000  Uiso   1.00
C663   C     0.23287   0.43157   0.25383   0.00000  Uiso   1.00
C664   C     0.21768   0.38247   0.22054   0.00000  Uiso   1.00
C665   C     0.37783   0.47506   0.31751   0.00000  Uiso   1.00
C666   C     0.38365   0.47388   0.36997   0.00000  Uiso   1.00
C667   C     0.43742   0.44411   0.38979   0.00000  Uiso   1.00
H668   H     0.44406   0.43281   0.20520   0.00000  Uiso   1.00
H669   H     0.46864   0.54023   0.16032   0.00000  Uiso   1.00
H670   H     0.36285   0.35407   0.16516   0.00000  Uiso   1.00
H671   H     0.51360   0.39637   0.28128   0.00000  Uiso   1.00
H672   H     0.47549   0.67148   0.12447   0.00000  Uiso   1.00
H673   H     0.25242   0.27894   0.13469   0.00000  Uiso   1.00
H674   H     0.57032   0.36814   0.37954   0.00000  Uiso   1.00
H675   H     0.28694   0.52651   0.31241   0.00000  Uiso   1.00
H676   H     0.30290   0.63908   0.27342   0.00000  Uiso   1.00
H677   H     0.19710   0.45292   0.27826   0.00000  Uiso   1.00
H678   H     0.34786   0.49522   0.39437   0.00000  Uiso   1.00
H679   H     0.34096   0.75171   0.21626   0.00000  Uiso   1.00
H680   H     0.11789   0.35917   0.22648   0.00000  Uiso   1.00
H681   H     0.43579   0.44837   0.47133   0.00000  Uiso   1.00
O682   O     0.42154   0.78395   0.14277   0.00000  Uiso   1.00
O683   O     0.12889   0.26895   0.15618   0.00000  Uiso   1.00
O684   O     0.54597   0.38598   0.47742   0.00000  Uiso   1.00
N685   N     0.44164   0.67492   0.15143   0.00000  Uiso   1.00
N686   N     0.23309   0.30793   0.16098   0.00000  Uiso   1.00
N687   N     0.53029   0.39130   0.38989   0.00000  Uiso   1.00
N688   N     0.36926   0.71809   0.20083   0.00000  Uiso   1.00
N689   N     0.16070   0.35110   0.21037   0.00000  Uiso   1.00
N690   N     0.45790   0.43447   0.43929   0.00000  Uiso   1.00
C691   C     0.90807   0.95428   0.72976   0.00000  Uiso   1.00
C692   C     0.89964   0.02564   0.72025   0.00000  Uiso   1.00
C693   C     0.93287   0.06159   0.68473   0.00000  Uiso   1.00
C694   C     0.91820   0.12617   0.68188   0.00000  Uiso   1.00
C695   C     0.91213   0.23277   0.66229   0.00000  Uiso   1.00
C696   C     0.84215   0.92450   0.72287   0.00000  Uiso   1.00
C697   C     0.82705   0.87540   0.68957   0.00000  Uiso   1.00
C698   C     0.76400   0.85484   0.68893   0.00000  Uiso   1.00
C699   C     0.66869   0.80439   0.67345   0.00000  Uiso   1.00
C700   C     0.92407   0.94749   0.78596   0.00000  Uiso   1.00
C701   C     0.97783   0.91771   0.80570   0.00000  Uiso   1.00
C702   C     0.98374   0.91649   0.85818   0.00000  Uiso   1.00
C703   C     0.01561   0.90173   0.94065   0.00000  Uiso   1.00
C704   C     0.82294   0.00504   0.78785   0.00000  Uiso   1.00
C705   C     0.85340   0.05321   0.75180   0.00000  Uiso   1.00
C706   C     0.83868   0.11776   0.74900   0.00000  Uiso   1.00
C707   C     0.87188   0.15379   0.71349   0.00000  Uiso   1.00
C708   C     0.79592   0.95207   0.75442   0.00000  Uiso   1.00
C709   C     0.73287   0.93157   0.75383   0.00000  Uiso   1.00
C710   C     0.71768   0.88247   0.72054   0.00000  Uiso   1.00
C711   C     0.87783   0.97506   0.81751   0.00000  Uiso   1.00
C712   C     0.88365   0.97388   0.86997   0.00000  Uiso   1.00
C713   C     0.93742   0.94411   0.88979   0.00000  Uiso   1.00
H714   H     0.94406   0.93281   0.70520   0.00000  Uiso   1.00
H715   H     0.96864   0.04023   0.66032   0.00000  Uiso   1.00
H716   H     0.86285   0.85407   0.66516   0.00000  Uiso   1.00
H717   H     0.01360   0.89637   0.78128   0.00000  Uiso   1.00
H718   H     0.97549   0.17148   0.62447   0.00000  Uiso   1.00
H719   H     0.75242   0.77894   0.63469   0.00000  Uiso   1.00
H720   H     0.07032   0.86814   0.87954   0.00000  Uiso   1.00
H721   H     0.78694   0.02651   0.81241   0.00000  Uiso   1.00
H722   H     0.80290   0.13908   0.77342   0.00000  Uiso   1.00
H723   H     0.69710   0.95292   0.77826   0.00000  Uiso   1.00
H724   H     0.84786   0.99522   0.89437   0.00000  Uiso   1.00
H725   H     0.84096   0.25171   0.71626   0.00000  Uiso   1.00
H726   H     0.61789   0.85917   0.72648   0.00000  Uiso   1.00
H727   H     0.93579   0.94837   0.97133   0.00000  Uiso   1.00
O728   O     0.92154   0.28395   0.64277   0.00000  Uiso   1.00
O729   O     0.62889   0.76895   0.65618   0.00000  Uiso   1.00
O730   O     0.04597   0.88598   0.97742   0.00000  Uiso   1.00
N731   N     0.94164   0.17492   0.65143   0.00000  Uiso   1.00
N732   N     0.73309   0.80793   0.66098   0.00000  Uiso   1.00
N733   N     0.03029   0.89130   0.88989   0.00000  Uiso   1.00
N734   N     0.86926   0.21809   0.70083   0.00000  Uiso   1.00
N735   N     0.66070   0.85110   0.71037   0.00000  Uiso   1.00
N736   N     0.95790   0.93447   0.93929   0.00000  Uiso   1.00
