data_job_02553
_audit_creation_date              2018-12-19
_audit_creation_method            'Materials Studio'
_symmetry_space_group_name_H-M    'P1'
_symmetry_Int_Tables_number       1
_symmetry_cell_setting            triclinic
loop_
_symmetry_equiv_pos_as_xyz
  x,y,z
_cell_length_a                    19.2133
_cell_length_b                    19.2133
_cell_length_c                    30.2181
_cell_angle_alpha                 90.0000
_cell_angle_beta                  90.0000
_cell_angle_gamma                 90.0000
loop_
_atom_site_label
_atom_site_type_symbol
_atom_site_fract_x
_atom_site_fract_y
_atom_site_fract_z
_atom_site_U_iso_or_equiv
_atom_site_adp_type
_atom_site_occupancy
C1     C     0.16766   0.74791   0.34425   0.00000  Uiso   1.00
C2     C     0.15906   0.82166   0.36208   0.00000  Uiso   1.00
C3     C     0.12952   0.83948   0.40243   0.00000  Uiso   1.00
C4     C     0.12645   0.90986   0.41268   0.00000  Uiso   1.00
C5     C     0.10917   0.01667   0.44477   0.00000  Uiso   1.00
C6     C     0.13114   0.74684   0.29946   0.00000  Uiso   1.00
C7     C     0.07813   0.70175   0.28715   0.00000  Uiso   1.00
C8     C     0.05156   0.70914   0.24468   0.00000  Uiso   1.00
C9     C     0.99096   0.69977   0.17953   0.00000  Uiso   1.00
C10    C     0.24505   0.73914   0.33453   0.00000  Uiso   1.00
C11    C     0.28781   0.68757   0.35171   0.00000  Uiso   1.00
C12    C     0.35714   0.68847   0.33876   0.00000  Uiso   1.00
C13    C     0.47341   0.66714   0.32808   0.00000  Uiso   1.00
C14    C     0.21475   0.84118   0.29071   0.00000  Uiso   1.00
C15    C     0.18463   0.87232   0.33300   0.00000  Uiso   1.00
C16    C     0.18161   0.94268   0.34319   0.00000  Uiso   1.00
C17    C     0.15207   0.96061   0.38355   0.00000  Uiso   1.00
C18    C     0.15671   0.79750   0.27037   0.00000  Uiso   1.00
C19    C     0.13022   0.80495   0.22791   0.00000  Uiso   1.00
C20    C     0.07718   0.75990   0.21554   0.00000  Uiso   1.00
C21    C     0.27062   0.78981   0.30545   0.00000  Uiso   1.00
C22    C     0.33990   0.79078   0.29247   0.00000  Uiso   1.00
C23    C     0.38276   0.73922   0.30962   0.00000  Uiso   1.00
H24    H     0.14775   0.70846   0.36689   0.00000  Uiso   1.00
H25    H     0.10973   0.80026   0.42492   0.00000  Uiso   1.00
H26    H     0.05835   0.66255   0.30966   0.00000  Uiso   1.00
H27    H     0.26800   0.64837   0.37421   0.00000  Uiso   1.00
H28    H     0.07883   0.92438   0.47643   0.00000  Uiso   1.00
H29    H     0.97051   0.63400   0.23338   0.00000  Uiso   1.00
H30    H     0.41260   0.60410   0.36950   0.00000  Uiso   1.00
H31    H     0.23466   0.88063   0.26807   0.00000  Uiso   1.00
H32    H     0.20141   0.98188   0.32068   0.00000  Uiso   1.00
H33    H     0.15002   0.84417   0.20542   0.00000  Uiso   1.00
H34    H     0.35967   0.82999   0.26997   0.00000  Uiso   1.00
H35    H     0.15323   0.07179   0.39182   0.00000  Uiso   1.00
H36    H     0.04492   0.78140   0.14877   0.00000  Uiso   1.00
H37    H     0.48700   0.75151   0.28489   0.00000  Uiso   1.00
O38    O     0.09257   0.06159   0.47051   0.00000  Uiso   1.00
O39    O     0.95047   0.68060   0.15164   0.00000  Uiso   1.00
O40    O     0.53048   0.64138   0.33022   0.00000  Uiso   1.00
N41    N     0.10092   0.94518   0.44930   0.00000  Uiso   1.00
N42    N     0.99964   0.67369   0.22207   0.00000  Uiso   1.00
N43    N     0.41295   0.64573   0.34932   0.00000  Uiso   1.00
N44    N     0.14095   0.02450   0.40377   0.00000  Uiso   1.00
N45    N     0.03968   0.75301   0.17654   0.00000  Uiso   1.00
N46    N     0.45299   0.72505   0.30379   0.00000  Uiso   1.00
C47    C     0.66766   0.24791   0.84425   0.00000  Uiso   1.00
C48    C     0.65906   0.32166   0.86208   0.00000  Uiso   1.00
C49    C     0.62952   0.33948   0.90243   0.00000  Uiso   1.00
C50    C     0.62645   0.40986   0.91268   0.00000  Uiso   1.00
C51    C     0.60917   0.51667   0.94477   0.00000  Uiso   1.00
C52    C     0.63114   0.24684   0.79946   0.00000  Uiso   1.00
C53    C     0.57813   0.20175   0.78715   0.00000  Uiso   1.00
C54    C     0.55156   0.20914   0.74468   0.00000  Uiso   1.00
C55    C     0.49096   0.19977   0.67953   0.00000  Uiso   1.00
C56    C     0.74505   0.23914   0.83453   0.00000  Uiso   1.00
C57    C     0.78781   0.18757   0.85171   0.00000  Uiso   1.00
C58    C     0.85714   0.18847   0.83876   0.00000  Uiso   1.00
C59    C     0.97341   0.16714   0.82808   0.00000  Uiso   1.00
C60    C     0.71475   0.34118   0.79071   0.00000  Uiso   1.00
C61    C     0.68463   0.37232   0.83300   0.00000  Uiso   1.00
C62    C     0.68161   0.44268   0.84319   0.00000  Uiso   1.00
C63    C     0.65207   0.46061   0.88355   0.00000  Uiso   1.00
C64    C     0.65671   0.29750   0.77037   0.00000  Uiso   1.00
C65    C     0.63022   0.30495   0.72791   0.00000  Uiso   1.00
C66    C     0.57718   0.25990   0.71554   0.00000  Uiso   1.00
C67    C     0.77062   0.28981   0.80545   0.00000  Uiso   1.00
C68    C     0.83990   0.29078   0.79247   0.00000  Uiso   1.00
C69    C     0.88276   0.23922   0.80962   0.00000  Uiso   1.00
H70    H     0.64775   0.20846   0.86689   0.00000  Uiso   1.00
H71    H     0.60973   0.30026   0.92492   0.00000  Uiso   1.00
H72    H     0.55835   0.16255   0.80966   0.00000  Uiso   1.00
H73    H     0.76800   0.14837   0.87421   0.00000  Uiso   1.00
H74    H     0.57883   0.42438   0.97643   0.00000  Uiso   1.00
H75    H     0.47051   0.13400   0.73338   0.00000  Uiso   1.00
H76    H     0.91260   0.10410   0.86950   0.00000  Uiso   1.00
H77    H     0.73466   0.38063   0.76807   0.00000  Uiso   1.00
H78    H     0.70141   0.48188   0.82068   0.00000  Uiso   1.00
H79    H     0.65002   0.34417   0.70542   0.00000  Uiso   1.00
H80    H     0.85967   0.32999   0.76997   0.00000  Uiso   1.00
H81    H     0.65323   0.57179   0.89182   0.00000  Uiso   1.00
H82    H     0.54492   0.28140   0.64877   0.00000  Uiso   1.00
H83    H     0.98700   0.25151   0.78489   0.00000  Uiso   1.00
O84    O     0.59257   0.56159   0.97051   0.00000  Uiso   1.00
O85    O     0.45047   0.18060   0.65164   0.00000  Uiso   1.00
O86    O     0.03048   0.14138   0.83022   0.00000  Uiso   1.00
N87    N     0.60092   0.44518   0.94930   0.00000  Uiso   1.00
N88    N     0.49964   0.17369   0.72207   0.00000  Uiso   1.00
N89    N     0.91295   0.14573   0.84932   0.00000  Uiso   1.00
N90    N     0.64095   0.52450   0.90377   0.00000  Uiso   1.00
N91    N     0.53968   0.25301   0.67654   0.00000  Uiso   1.00
N92    N     0.95299   0.22505   0.80379   0.00000  Uiso   1.00
C93    C     0.33234   0.75209   0.84425   0.00000  Uiso   1.00
C94    C     0.34094   0.67834   0.86208   0.00000  Uiso   1.00
C95    C     0.37048   0.66052   0.90243   0.00000  Uiso   1.00
C96    C     0.37355   0.59014   0.91268   0.00000  Uiso   1.00
C97    C     0.39083   0.48333   0.94477   0.00000  Uiso   1.00
C98    C     0.36886   0.75316   0.79946   0.00000  Uiso   1.00
C99    C     0.42187   0.79825   0.78715   0.00000  Uiso   1.00
C100   C     0.44844   0.79086   0.74468   0.00000  Uiso   1.00
C101   C     0.50904   0.80023   0.67953   0.00000  Uiso   1.00
C102   C     0.25495   0.76086   0.83453   0.00000  Uiso   1.00
C103   C     0.21219   0.81243   0.85171   0.00000  Uiso   1.00
C104   C     0.14286   0.81153   0.83876   0.00000  Uiso   1.00
C105   C     0.02659   0.83286   0.82808   0.00000  Uiso   1.00
C106   C     0.28525   0.65882   0.79071   0.00000  Uiso   1.00
C107   C     0.31537   0.62768   0.83300   0.00000  Uiso   1.00
C108   C     0.31839   0.55732   0.84319   0.00000  Uiso   1.00
C109   C     0.34793   0.53939   0.88355   0.00000  Uiso   1.00
C110   C     0.34329   0.70250   0.77037   0.00000  Uiso   1.00
C111   C     0.36978   0.69505   0.72791   0.00000  Uiso   1.00
C112   C     0.42282   0.74010   0.71554   0.00000  Uiso   1.00
C113   C     0.22938   0.71019   0.80545   0.00000  Uiso   1.00
C114   C     0.16010   0.70922   0.79247   0.00000  Uiso   1.00
C115   C     0.11724   0.76078   0.80962   0.00000  Uiso   1.00
H116   H     0.35225   0.79154   0.86689   0.00000  Uiso   1.00
H117   H     0.39027   0.69974   0.92492   0.00000  Uiso   1.00
H118   H     0.44165   0.83745   0.80966   0.00000  Uiso   1.00
H119   H     0.23200   0.85163   0.87421   0.00000  Uiso   1.00
H120   H     0.42117   0.57562   0.97643   0.00000  Uiso   1.00
H121   H     0.52949   0.86600   0.73338   0.00000  Uiso   1.00
H122   H     0.08740   0.89590   0.86950   0.00000  Uiso   1.00
H123   H     0.26534   0.61937   0.76807   0.00000  Uiso   1.00
H124   H     0.29859   0.51812   0.82068   0.00000  Uiso   1.00
H125   H     0.34998   0.65583   0.70542   0.00000  Uiso   1.00
H126   H     0.14033   0.67001   0.76997   0.00000  Uiso   1.00
H127   H     0.34677   0.42821   0.89182   0.00000  Uiso   1.00
H128   H     0.45508   0.71860   0.64877   0.00000  Uiso   1.00
H129   H     0.01300   0.74849   0.78489   0.00000  Uiso   1.00
O130   O     0.40743   0.43841   0.97051   0.00000  Uiso   1.00
O131   O     0.54953   0.81940   0.65164   0.00000  Uiso   1.00
O132   O     0.96952   0.85862   0.83022   0.00000  Uiso   1.00
N133   N     0.39908   0.55482   0.94930   0.00000  Uiso   1.00
N134   N     0.50036   0.82631   0.72207   0.00000  Uiso   1.00
N135   N     0.08705   0.85427   0.84932   0.00000  Uiso   1.00
N136   N     0.35905   0.47550   0.90377   0.00000  Uiso   1.00
N137   N     0.46032   0.74699   0.67654   0.00000  Uiso   1.00
N138   N     0.04701   0.77495   0.80379   0.00000  Uiso   1.00
C139   C     0.83234   0.25209   0.34425   0.00000  Uiso   1.00
C140   C     0.84094   0.17834   0.36208   0.00000  Uiso   1.00
C141   C     0.87048   0.16052   0.40243   0.00000  Uiso   1.00
C142   C     0.87355   0.09014   0.41268   0.00000  Uiso   1.00
C143   C     0.89083   0.98333   0.44477   0.00000  Uiso   1.00
C144   C     0.86886   0.25316   0.29946   0.00000  Uiso   1.00
C145   C     0.92187   0.29825   0.28715   0.00000  Uiso   1.00
C146   C     0.94844   0.29086   0.24468   0.00000  Uiso   1.00
C147   C     0.00904   0.30023   0.17953   0.00000  Uiso   1.00
C148   C     0.75495   0.26086   0.33453   0.00000  Uiso   1.00
C149   C     0.71219   0.31243   0.35171   0.00000  Uiso   1.00
C150   C     0.64286   0.31153   0.33876   0.00000  Uiso   1.00
C151   C     0.52659   0.33286   0.32808   0.00000  Uiso   1.00
C152   C     0.78525   0.15882   0.29071   0.00000  Uiso   1.00
C153   C     0.81537   0.12768   0.33300   0.00000  Uiso   1.00
C154   C     0.81839   0.05732   0.34319   0.00000  Uiso   1.00
C155   C     0.84793   0.03939   0.38355   0.00000  Uiso   1.00
C156   C     0.84329   0.20250   0.27037   0.00000  Uiso   1.00
C157   C     0.86978   0.19505   0.22791   0.00000  Uiso   1.00
C158   C     0.92282   0.24010   0.21554   0.00000  Uiso   1.00
C159   C     0.72938   0.21019   0.30545   0.00000  Uiso   1.00
C160   C     0.66010   0.20922   0.29247   0.00000  Uiso   1.00
C161   C     0.61724   0.26078   0.30962   0.00000  Uiso   1.00
H162   H     0.85225   0.29154   0.36689   0.00000  Uiso   1.00
H163   H     0.89027   0.19974   0.42492   0.00000  Uiso   1.00
H164   H     0.94165   0.33745   0.30966   0.00000  Uiso   1.00
H165   H     0.73200   0.35163   0.37421   0.00000  Uiso   1.00
H166   H     0.92117   0.07562   0.47643   0.00000  Uiso   1.00
H167   H     0.02949   0.36600   0.23338   0.00000  Uiso   1.00
H168   H     0.58740   0.39590   0.36950   0.00000  Uiso   1.00
H169   H     0.76534   0.11937   0.26807   0.00000  Uiso   1.00
H170   H     0.79859   0.01812   0.32068   0.00000  Uiso   1.00
H171   H     0.84998   0.15583   0.20542   0.00000  Uiso   1.00
H172   H     0.64033   0.17001   0.26997   0.00000  Uiso   1.00
H173   H     0.84677   0.92821   0.39182   0.00000  Uiso   1.00
H174   H     0.95508   0.21860   0.14877   0.00000  Uiso   1.00
H175   H     0.51300   0.24849   0.28489   0.00000  Uiso   1.00
O176   O     0.90743   0.93841   0.47051   0.00000  Uiso   1.00
O177   O     0.04953   0.31940   0.15164   0.00000  Uiso   1.00
O178   O     0.46952   0.35862   0.33022   0.00000  Uiso   1.00
N179   N     0.89908   0.05482   0.44930   0.00000  Uiso   1.00
N180   N     0.00036   0.32631   0.22207   0.00000  Uiso   1.00
N181   N     0.58705   0.35427   0.34932   0.00000  Uiso   1.00
N182   N     0.85905   0.97550   0.40377   0.00000  Uiso   1.00
N183   N     0.96032   0.24699   0.17654   0.00000  Uiso   1.00
N184   N     0.54701   0.27495   0.30379   0.00000  Uiso   1.00
C185   C     0.25209   0.66766   0.59425   0.00000  Uiso   1.00
C186   C     0.17834   0.65906   0.61208   0.00000  Uiso   1.00
C187   C     0.16052   0.62952   0.65243   0.00000  Uiso   1.00
C188   C     0.09014   0.62645   0.66268   0.00000  Uiso   1.00
C189   C     0.98333   0.60917   0.69477   0.00000  Uiso   1.00
C190   C     0.25316   0.63114   0.54946   0.00000  Uiso   1.00
C191   C     0.29825   0.57813   0.53715   0.00000  Uiso   1.00
C192   C     0.29086   0.55156   0.49468   0.00000  Uiso   1.00
C193   C     0.30023   0.49096   0.42953   0.00000  Uiso   1.00
C194   C     0.26086   0.74505   0.58453   0.00000  Uiso   1.00
C195   C     0.31243   0.78781   0.60171   0.00000  Uiso   1.00
C196   C     0.31153   0.85714   0.58876   0.00000  Uiso   1.00
C197   C     0.33286   0.97341   0.57808   0.00000  Uiso   1.00
C198   C     0.15882   0.71475   0.54071   0.00000  Uiso   1.00
C199   C     0.12768   0.68463   0.58300   0.00000  Uiso   1.00
C200   C     0.05732   0.68161   0.59319   0.00000  Uiso   1.00
C201   C     0.03939   0.65207   0.63355   0.00000  Uiso   1.00
C202   C     0.20250   0.65671   0.52037   0.00000  Uiso   1.00
C203   C     0.19505   0.63022   0.47791   0.00000  Uiso   1.00
C204   C     0.24010   0.57718   0.46554   0.00000  Uiso   1.00
C205   C     0.21019   0.77062   0.55545   0.00000  Uiso   1.00
C206   C     0.20922   0.83990   0.54247   0.00000  Uiso   1.00
C207   C     0.26078   0.88276   0.55962   0.00000  Uiso   1.00
H208   H     0.29154   0.64775   0.61689   0.00000  Uiso   1.00
H209   H     0.19974   0.60973   0.67492   0.00000  Uiso   1.00
H210   H     0.33745   0.55835   0.55966   0.00000  Uiso   1.00
H211   H     0.35163   0.76800   0.62421   0.00000  Uiso   1.00
H212   H     0.07562   0.57883   0.72643   0.00000  Uiso   1.00
H213   H     0.36600   0.47051   0.48338   0.00000  Uiso   1.00
H214   H     0.39590   0.91260   0.61950   0.00000  Uiso   1.00
H215   H     0.11937   0.73466   0.51807   0.00000  Uiso   1.00
H216   H     0.01812   0.70141   0.57068   0.00000  Uiso   1.00
H217   H     0.15583   0.65002   0.45542   0.00000  Uiso   1.00
H218   H     0.17001   0.85967   0.51997   0.00000  Uiso   1.00
H219   H     0.92821   0.65323   0.64182   0.00000  Uiso   1.00
H220   H     0.21860   0.54492   0.39877   0.00000  Uiso   1.00
H221   H     0.24849   0.98700   0.53489   0.00000  Uiso   1.00
O222   O     0.93841   0.59257   0.72051   0.00000  Uiso   1.00
O223   O     0.31940   0.45047   0.40164   0.00000  Uiso   1.00
O224   O     0.35862   0.03048   0.58022   0.00000  Uiso   1.00
N225   N     0.05482   0.60092   0.69930   0.00000  Uiso   1.00
N226   N     0.32631   0.49964   0.47207   0.00000  Uiso   1.00
N227   N     0.35427   0.91295   0.59932   0.00000  Uiso   1.00
N228   N     0.97550   0.64095   0.65377   0.00000  Uiso   1.00
N229   N     0.24699   0.53968   0.42654   0.00000  Uiso   1.00
N230   N     0.27495   0.95299   0.55379   0.00000  Uiso   1.00
C231   C     0.75209   0.16766   0.09425   0.00000  Uiso   1.00
C232   C     0.67834   0.15906   0.11208   0.00000  Uiso   1.00
C233   C     0.66052   0.12952   0.15243   0.00000  Uiso   1.00
C234   C     0.59014   0.12645   0.16268   0.00000  Uiso   1.00
C235   C     0.48333   0.10917   0.19477   0.00000  Uiso   1.00
C236   C     0.75316   0.13114   0.04946   0.00000  Uiso   1.00
C237   C     0.79825   0.07813   0.03715   0.00000  Uiso   1.00
C238   C     0.79086   0.05156   0.99468   0.00000  Uiso   1.00
C239   C     0.80023   0.99096   0.92953   0.00000  Uiso   1.00
C240   C     0.76086   0.24505   0.08453   0.00000  Uiso   1.00
C241   C     0.81243   0.28781   0.10171   0.00000  Uiso   1.00
C242   C     0.81153   0.35714   0.08876   0.00000  Uiso   1.00
C243   C     0.83286   0.47341   0.07808   0.00000  Uiso   1.00
C244   C     0.65882   0.21475   0.04071   0.00000  Uiso   1.00
C245   C     0.62768   0.18463   0.08300   0.00000  Uiso   1.00
C246   C     0.55732   0.18161   0.09319   0.00000  Uiso   1.00
C247   C     0.53939   0.15207   0.13355   0.00000  Uiso   1.00
C248   C     0.70250   0.15671   0.02037   0.00000  Uiso   1.00
C249   C     0.69505   0.13022   0.97791   0.00000  Uiso   1.00
C250   C     0.74010   0.07718   0.96554   0.00000  Uiso   1.00
C251   C     0.71019   0.27062   0.05545   0.00000  Uiso   1.00
C252   C     0.70922   0.33990   0.04247   0.00000  Uiso   1.00
C253   C     0.76078   0.38276   0.05962   0.00000  Uiso   1.00
H254   H     0.79154   0.14775   0.11689   0.00000  Uiso   1.00
H255   H     0.69974   0.10973   0.17492   0.00000  Uiso   1.00
H256   H     0.83745   0.05835   0.05966   0.00000  Uiso   1.00
H257   H     0.85163   0.26800   0.12421   0.00000  Uiso   1.00
H258   H     0.57562   0.07883   0.22643   0.00000  Uiso   1.00
H259   H     0.86600   0.97051   0.98338   0.00000  Uiso   1.00
H260   H     0.89590   0.41260   0.11950   0.00000  Uiso   1.00
H261   H     0.61937   0.23466   0.01807   0.00000  Uiso   1.00
H262   H     0.51812   0.20141   0.07068   0.00000  Uiso   1.00
H263   H     0.65583   0.15002   0.95542   0.00000  Uiso   1.00
H264   H     0.67001   0.35967   0.01997   0.00000  Uiso   1.00
H265   H     0.42821   0.15323   0.14182   0.00000  Uiso   1.00
H266   H     0.71860   0.04492   0.89877   0.00000  Uiso   1.00
H267   H     0.74849   0.48700   0.03489   0.00000  Uiso   1.00
O268   O     0.43841   0.09257   0.22051   0.00000  Uiso   1.00
O269   O     0.81940   0.95047   0.90164   0.00000  Uiso   1.00
O270   O     0.85862   0.53048   0.08022   0.00000  Uiso   1.00
N271   N     0.55482   0.10092   0.19930   0.00000  Uiso   1.00
N272   N     0.82631   0.99964   0.97207   0.00000  Uiso   1.00
N273   N     0.85427   0.41295   0.09932   0.00000  Uiso   1.00
N274   N     0.47550   0.14095   0.15377   0.00000  Uiso   1.00
N275   N     0.74699   0.03968   0.92654   0.00000  Uiso   1.00
N276   N     0.77495   0.45299   0.05379   0.00000  Uiso   1.00
C277   C     0.24791   0.83234   0.09425   0.00000  Uiso   1.00
C278   C     0.32166   0.84094   0.11208   0.00000  Uiso   1.00
C279   C     0.33948   0.87048   0.15243   0.00000  Uiso   1.00
C280   C     0.40986   0.87355   0.16268   0.00000  Uiso   1.00
C281   C     0.51667   0.89083   0.19477   0.00000  Uiso   1.00
C282   C     0.24684   0.86886   0.04946   0.00000  Uiso   1.00
C283   C     0.20175   0.92187   0.03715   0.00000  Uiso   1.00
C284   C     0.20914   0.94844   0.99468   0.00000  Uiso   1.00
C285   C     0.19977   0.00904   0.92953   0.00000  Uiso   1.00
C286   C     0.23914   0.75495   0.08453   0.00000  Uiso   1.00
C287   C     0.18757   0.71219   0.10171   0.00000  Uiso   1.00
C288   C     0.18847   0.64286   0.08876   0.00000  Uiso   1.00
C289   C     0.16714   0.52659   0.07808   0.00000  Uiso   1.00
C290   C     0.34118   0.78525   0.04071   0.00000  Uiso   1.00
C291   C     0.37232   0.81537   0.08300   0.00000  Uiso   1.00
C292   C     0.44268   0.81839   0.09319   0.00000  Uiso   1.00
C293   C     0.46061   0.84793   0.13355   0.00000  Uiso   1.00
C294   C     0.29750   0.84329   0.02037   0.00000  Uiso   1.00
C295   C     0.30495   0.86978   0.97791   0.00000  Uiso   1.00
C296   C     0.25990   0.92282   0.96554   0.00000  Uiso   1.00
C297   C     0.28981   0.72938   0.05545   0.00000  Uiso   1.00
C298   C     0.29078   0.66010   0.04247   0.00000  Uiso   1.00
C299   C     0.23922   0.61724   0.05962   0.00000  Uiso   1.00
H300   H     0.20846   0.85225   0.11689   0.00000  Uiso   1.00
H301   H     0.30026   0.89027   0.17492   0.00000  Uiso   1.00
H302   H     0.16255   0.94165   0.05966   0.00000  Uiso   1.00
H303   H     0.14837   0.73200   0.12421   0.00000  Uiso   1.00
H304   H     0.42438   0.92117   0.22643   0.00000  Uiso   1.00
H305   H     0.13400   0.02949   0.98338   0.00000  Uiso   1.00
H306   H     0.10410   0.58740   0.11950   0.00000  Uiso   1.00
H307   H     0.38063   0.76534   0.01807   0.00000  Uiso   1.00
H308   H     0.48188   0.79859   0.07068   0.00000  Uiso   1.00
H309   H     0.34417   0.84998   0.95542   0.00000  Uiso   1.00
H310   H     0.32999   0.64033   0.01997   0.00000  Uiso   1.00
H311   H     0.57179   0.84677   0.14182   0.00000  Uiso   1.00
H312   H     0.28140   0.95508   0.89877   0.00000  Uiso   1.00
H313   H     0.25151   0.51300   0.03489   0.00000  Uiso   1.00
O314   O     0.56159   0.90743   0.22051   0.00000  Uiso   1.00
O315   O     0.18060   0.04953   0.90164   0.00000  Uiso   1.00
O316   O     0.14138   0.46952   0.08022   0.00000  Uiso   1.00
N317   N     0.44518   0.89908   0.19930   0.00000  Uiso   1.00
N318   N     0.17369   0.00036   0.97207   0.00000  Uiso   1.00
N319   N     0.14573   0.58705   0.09932   0.00000  Uiso   1.00
N320   N     0.52450   0.85905   0.15377   0.00000  Uiso   1.00
N321   N     0.25301   0.96032   0.92654   0.00000  Uiso   1.00
N322   N     0.22505   0.54701   0.05379   0.00000  Uiso   1.00
C323   C     0.74791   0.33234   0.59425   0.00000  Uiso   1.00
C324   C     0.82166   0.34094   0.61208   0.00000  Uiso   1.00
C325   C     0.83948   0.37048   0.65243   0.00000  Uiso   1.00
C326   C     0.90986   0.37355   0.66268   0.00000  Uiso   1.00
C327   C     0.01667   0.39083   0.69477   0.00000  Uiso   1.00
C328   C     0.74684   0.36886   0.54946   0.00000  Uiso   1.00
C329   C     0.70175   0.42187   0.53715   0.00000  Uiso   1.00
C330   C     0.70914   0.44844   0.49468   0.00000  Uiso   1.00
C331   C     0.69977   0.50904   0.42953   0.00000  Uiso   1.00
C332   C     0.73914   0.25495   0.58453   0.00000  Uiso   1.00
C333   C     0.68757   0.21219   0.60171   0.00000  Uiso   1.00
C334   C     0.68847   0.14286   0.58876   0.00000  Uiso   1.00
C335   C     0.66714   0.02659   0.57808   0.00000  Uiso   1.00
C336   C     0.84118   0.28525   0.54071   0.00000  Uiso   1.00
C337   C     0.87232   0.31537   0.58300   0.00000  Uiso   1.00
C338   C     0.94268   0.31839   0.59319   0.00000  Uiso   1.00
C339   C     0.96061   0.34793   0.63355   0.00000  Uiso   1.00
C340   C     0.79750   0.34329   0.52037   0.00000  Uiso   1.00
C341   C     0.80495   0.36978   0.47791   0.00000  Uiso   1.00
C342   C     0.75990   0.42282   0.46554   0.00000  Uiso   1.00
C343   C     0.78981   0.22938   0.55545   0.00000  Uiso   1.00
C344   C     0.79078   0.16010   0.54247   0.00000  Uiso   1.00
C345   C     0.73922   0.11724   0.55962   0.00000  Uiso   1.00
H346   H     0.70846   0.35225   0.61689   0.00000  Uiso   1.00
H347   H     0.80026   0.39027   0.67492   0.00000  Uiso   1.00
H348   H     0.66255   0.44165   0.55966   0.00000  Uiso   1.00
H349   H     0.64837   0.23200   0.62421   0.00000  Uiso   1.00
H350   H     0.92438   0.42117   0.72643   0.00000  Uiso   1.00
H351   H     0.63400   0.52949   0.48338   0.00000  Uiso   1.00
H352   H     0.60410   0.08740   0.61950   0.00000  Uiso   1.00
H353   H     0.88063   0.26534   0.51807   0.00000  Uiso   1.00
H354   H     0.98188   0.29859   0.57068   0.00000  Uiso   1.00
H355   H     0.84417   0.34998   0.45542   0.00000  Uiso   1.00
H356   H     0.82999   0.14033   0.51997   0.00000  Uiso   1.00
H357   H     0.07179   0.34677   0.64182   0.00000  Uiso   1.00
H358   H     0.78140   0.45508   0.39877   0.00000  Uiso   1.00
H359   H     0.75151   0.01300   0.53489   0.00000  Uiso   1.00
O360   O     0.06159   0.40743   0.72051   0.00000  Uiso   1.00
O361   O     0.68060   0.54953   0.40164   0.00000  Uiso   1.00
O362   O     0.64138   0.96952   0.58022   0.00000  Uiso   1.00
N363   N     0.94518   0.39908   0.69930   0.00000  Uiso   1.00
N364   N     0.67369   0.50036   0.47207   0.00000  Uiso   1.00
N365   N     0.64573   0.08705   0.59932   0.00000  Uiso   1.00
N366   N     0.02450   0.35905   0.65377   0.00000  Uiso   1.00
N367   N     0.75301   0.46032   0.42654   0.00000  Uiso   1.00
N368   N     0.72505   0.04701   0.55379   0.00000  Uiso   1.00
C369   C     0.83234   0.75209   0.90575   0.00000  Uiso   1.00
C370   C     0.84094   0.67834   0.88792   0.00000  Uiso   1.00
C371   C     0.87048   0.66052   0.84757   0.00000  Uiso   1.00
C372   C     0.87355   0.59014   0.83732   0.00000  Uiso   1.00
C373   C     0.89083   0.48333   0.80523   0.00000  Uiso   1.00
C374   C     0.86886   0.75316   0.95054   0.00000  Uiso   1.00
C375   C     0.92187   0.79825   0.96285   0.00000  Uiso   1.00
C376   C     0.94844   0.79086   0.00532   0.00000  Uiso   1.00
C377   C     0.00904   0.80023   0.07047   0.00000  Uiso   1.00
C378   C     0.75495   0.76086   0.91547   0.00000  Uiso   1.00
C379   C     0.71219   0.81243   0.89829   0.00000  Uiso   1.00
C380   C     0.64286   0.81153   0.91124   0.00000  Uiso   1.00
C381   C     0.52659   0.83286   0.92192   0.00000  Uiso   1.00
C382   C     0.78525   0.65882   0.95929   0.00000  Uiso   1.00
C383   C     0.81537   0.62768   0.91700   0.00000  Uiso   1.00
C384   C     0.81839   0.55732   0.90681   0.00000  Uiso   1.00
C385   C     0.84793   0.53939   0.86645   0.00000  Uiso   1.00
C386   C     0.84329   0.70250   0.97963   0.00000  Uiso   1.00
C387   C     0.86978   0.69505   0.02209   0.00000  Uiso   1.00
C388   C     0.92282   0.74010   0.03446   0.00000  Uiso   1.00
C389   C     0.72938   0.71019   0.94455   0.00000  Uiso   1.00
C390   C     0.66010   0.70922   0.95753   0.00000  Uiso   1.00
C391   C     0.61724   0.76078   0.94038   0.00000  Uiso   1.00
H392   H     0.85225   0.79154   0.88311   0.00000  Uiso   1.00
H393   H     0.89027   0.69974   0.82508   0.00000  Uiso   1.00
H394   H     0.94165   0.83745   0.94034   0.00000  Uiso   1.00
H395   H     0.73200   0.85163   0.87579   0.00000  Uiso   1.00
H396   H     0.92117   0.57562   0.77357   0.00000  Uiso   1.00
H397   H     0.02949   0.86600   0.01662   0.00000  Uiso   1.00
H398   H     0.58740   0.89590   0.88050   0.00000  Uiso   1.00
H399   H     0.76534   0.61937   0.98193   0.00000  Uiso   1.00
H400   H     0.79859   0.51812   0.92932   0.00000  Uiso   1.00
H401   H     0.84998   0.65583   0.04458   0.00000  Uiso   1.00
H402   H     0.64033   0.67001   0.98003   0.00000  Uiso   1.00
H403   H     0.84677   0.42821   0.85818   0.00000  Uiso   1.00
H404   H     0.95508   0.71860   0.10123   0.00000  Uiso   1.00
H405   H     0.51300   0.74849   0.96511   0.00000  Uiso   1.00
O406   O     0.90743   0.43841   0.77949   0.00000  Uiso   1.00
O407   O     0.04953   0.81940   0.09836   0.00000  Uiso   1.00
O408   O     0.46952   0.85862   0.91978   0.00000  Uiso   1.00
N409   N     0.89908   0.55482   0.80070   0.00000  Uiso   1.00
N410   N     0.00036   0.82631   0.02793   0.00000  Uiso   1.00
N411   N     0.58705   0.85427   0.90068   0.00000  Uiso   1.00
N412   N     0.85905   0.47550   0.84623   0.00000  Uiso   1.00
N413   N     0.96032   0.74699   0.07346   0.00000  Uiso   1.00
N414   N     0.54701   0.77495   0.94621   0.00000  Uiso   1.00
C415   C     0.33234   0.25209   0.40575   0.00000  Uiso   1.00
C416   C     0.34094   0.17834   0.38792   0.00000  Uiso   1.00
C417   C     0.37048   0.16052   0.34757   0.00000  Uiso   1.00
C418   C     0.37355   0.09014   0.33732   0.00000  Uiso   1.00
C419   C     0.39083   0.98333   0.30523   0.00000  Uiso   1.00
C420   C     0.36886   0.25316   0.45054   0.00000  Uiso   1.00
C421   C     0.42187   0.29825   0.46285   0.00000  Uiso   1.00
C422   C     0.44844   0.29086   0.50532   0.00000  Uiso   1.00
C423   C     0.50904   0.30023   0.57047   0.00000  Uiso   1.00
C424   C     0.25495   0.26086   0.41547   0.00000  Uiso   1.00
C425   C     0.21219   0.31243   0.39829   0.00000  Uiso   1.00
C426   C     0.14286   0.31153   0.41124   0.00000  Uiso   1.00
C427   C     0.02659   0.33286   0.42192   0.00000  Uiso   1.00
C428   C     0.28525   0.15882   0.45929   0.00000  Uiso   1.00
C429   C     0.31537   0.12768   0.41700   0.00000  Uiso   1.00
C430   C     0.31839   0.05732   0.40681   0.00000  Uiso   1.00
C431   C     0.34793   0.03939   0.36645   0.00000  Uiso   1.00
C432   C     0.34329   0.20250   0.47963   0.00000  Uiso   1.00
C433   C     0.36978   0.19505   0.52209   0.00000  Uiso   1.00
C434   C     0.42282   0.24010   0.53446   0.00000  Uiso   1.00
C435   C     0.22938   0.21019   0.44455   0.00000  Uiso   1.00
C436   C     0.16010   0.20922   0.45753   0.00000  Uiso   1.00
C437   C     0.11724   0.26078   0.44038   0.00000  Uiso   1.00
H438   H     0.35225   0.29154   0.38311   0.00000  Uiso   1.00
H439   H     0.39027   0.19974   0.32508   0.00000  Uiso   1.00
H440   H     0.44165   0.33745   0.44034   0.00000  Uiso   1.00
H441   H     0.23200   0.35163   0.37579   0.00000  Uiso   1.00
H442   H     0.42117   0.07562   0.27357   0.00000  Uiso   1.00
H443   H     0.52949   0.36600   0.51662   0.00000  Uiso   1.00
H444   H     0.08740   0.39590   0.38050   0.00000  Uiso   1.00
H445   H     0.26534   0.11937   0.48193   0.00000  Uiso   1.00
H446   H     0.29859   0.01812   0.42932   0.00000  Uiso   1.00
H447   H     0.34998   0.15583   0.54458   0.00000  Uiso   1.00
H448   H     0.14033   0.17001   0.48003   0.00000  Uiso   1.00
H449   H     0.34677   0.92821   0.35818   0.00000  Uiso   1.00
H450   H     0.45508   0.21860   0.60123   0.00000  Uiso   1.00
H451   H     0.01300   0.24849   0.46511   0.00000  Uiso   1.00
O452   O     0.40743   0.93841   0.27949   0.00000  Uiso   1.00
O453   O     0.54953   0.31940   0.59836   0.00000  Uiso   1.00
O454   O     0.96952   0.35862   0.41978   0.00000  Uiso   1.00
N455   N     0.39908   0.05482   0.30070   0.00000  Uiso   1.00
N456   N     0.50036   0.32631   0.52793   0.00000  Uiso   1.00
N457   N     0.08705   0.35427   0.40068   0.00000  Uiso   1.00
N458   N     0.35905   0.97550   0.34623   0.00000  Uiso   1.00
N459   N     0.46032   0.24699   0.57346   0.00000  Uiso   1.00
N460   N     0.04701   0.27495   0.44621   0.00000  Uiso   1.00
C461   C     0.66766   0.74791   0.40575   0.00000  Uiso   1.00
C462   C     0.65906   0.82166   0.38792   0.00000  Uiso   1.00
C463   C     0.62952   0.83948   0.34757   0.00000  Uiso   1.00
C464   C     0.62645   0.90986   0.33732   0.00000  Uiso   1.00
C465   C     0.60917   0.01667   0.30523   0.00000  Uiso   1.00
C466   C     0.63114   0.74684   0.45054   0.00000  Uiso   1.00
C467   C     0.57813   0.70175   0.46285   0.00000  Uiso   1.00
C468   C     0.55156   0.70914   0.50532   0.00000  Uiso   1.00
C469   C     0.49096   0.69977   0.57047   0.00000  Uiso   1.00
C470   C     0.74505   0.73914   0.41547   0.00000  Uiso   1.00
C471   C     0.78781   0.68757   0.39829   0.00000  Uiso   1.00
C472   C     0.85714   0.68847   0.41124   0.00000  Uiso   1.00
C473   C     0.97341   0.66714   0.42192   0.00000  Uiso   1.00
C474   C     0.71475   0.84118   0.45929   0.00000  Uiso   1.00
C475   C     0.68463   0.87232   0.41700   0.00000  Uiso   1.00
C476   C     0.68161   0.94268   0.40681   0.00000  Uiso   1.00
C477   C     0.65207   0.96061   0.36645   0.00000  Uiso   1.00
C478   C     0.65671   0.79750   0.47963   0.00000  Uiso   1.00
C479   C     0.63022   0.80495   0.52209   0.00000  Uiso   1.00
C480   C     0.57718   0.75990   0.53446   0.00000  Uiso   1.00
C481   C     0.77062   0.78981   0.44455   0.00000  Uiso   1.00
C482   C     0.83990   0.79078   0.45753   0.00000  Uiso   1.00
C483   C     0.88276   0.73922   0.44038   0.00000  Uiso   1.00
H484   H     0.64775   0.70846   0.38311   0.00000  Uiso   1.00
H485   H     0.60973   0.80026   0.32508   0.00000  Uiso   1.00
H486   H     0.55835   0.66255   0.44034   0.00000  Uiso   1.00
H487   H     0.76800   0.64837   0.37579   0.00000  Uiso   1.00
H488   H     0.57883   0.92438   0.27357   0.00000  Uiso   1.00
H489   H     0.47051   0.63400   0.51662   0.00000  Uiso   1.00
H490   H     0.91260   0.60410   0.38050   0.00000  Uiso   1.00
H491   H     0.73466   0.88063   0.48193   0.00000  Uiso   1.00
H492   H     0.70141   0.98188   0.42932   0.00000  Uiso   1.00
H493   H     0.65002   0.84417   0.54458   0.00000  Uiso   1.00
H494   H     0.85967   0.82999   0.48003   0.00000  Uiso   1.00
H495   H     0.65323   0.07179   0.35818   0.00000  Uiso   1.00
H496   H     0.54492   0.78140   0.60123   0.00000  Uiso   1.00
H497   H     0.98700   0.75151   0.46511   0.00000  Uiso   1.00
O498   O     0.59257   0.06159   0.27949   0.00000  Uiso   1.00
O499   O     0.45047   0.68060   0.59836   0.00000  Uiso   1.00
O500   O     0.03048   0.64138   0.41978   0.00000  Uiso   1.00
N501   N     0.60092   0.94518   0.30070   0.00000  Uiso   1.00
N502   N     0.49964   0.67369   0.52793   0.00000  Uiso   1.00
N503   N     0.91295   0.64573   0.40068   0.00000  Uiso   1.00
N504   N     0.64095   0.02450   0.34623   0.00000  Uiso   1.00
N505   N     0.53968   0.75301   0.57346   0.00000  Uiso   1.00
N506   N     0.95299   0.72505   0.44621   0.00000  Uiso   1.00
C507   C     0.16766   0.24791   0.90575   0.00000  Uiso   1.00
C508   C     0.15906   0.32166   0.88792   0.00000  Uiso   1.00
C509   C     0.12952   0.33948   0.84757   0.00000  Uiso   1.00
C510   C     0.12645   0.40986   0.83732   0.00000  Uiso   1.00
C511   C     0.10917   0.51667   0.80523   0.00000  Uiso   1.00
C512   C     0.13114   0.24684   0.95054   0.00000  Uiso   1.00
C513   C     0.07813   0.20175   0.96285   0.00000  Uiso   1.00
C514   C     0.05156   0.20914   0.00532   0.00000  Uiso   1.00
C515   C     0.99096   0.19977   0.07047   0.00000  Uiso   1.00
C516   C     0.24505   0.23914   0.91547   0.00000  Uiso   1.00
C517   C     0.28781   0.18757   0.89829   0.00000  Uiso   1.00
C518   C     0.35714   0.18847   0.91124   0.00000  Uiso   1.00
C519   C     0.47341   0.16714   0.92192   0.00000  Uiso   1.00
C520   C     0.21475   0.34118   0.95929   0.00000  Uiso   1.00
C521   C     0.18463   0.37232   0.91700   0.00000  Uiso   1.00
C522   C     0.18161   0.44268   0.90681   0.00000  Uiso   1.00
C523   C     0.15207   0.46061   0.86645   0.00000  Uiso   1.00
C524   C     0.15671   0.29750   0.97963   0.00000  Uiso   1.00
C525   C     0.13022   0.30495   0.02209   0.00000  Uiso   1.00
C526   C     0.07718   0.25990   0.03446   0.00000  Uiso   1.00
C527   C     0.27062   0.28981   0.94455   0.00000  Uiso   1.00
C528   C     0.33990   0.29078   0.95753   0.00000  Uiso   1.00
C529   C     0.38276   0.23922   0.94038   0.00000  Uiso   1.00
H530   H     0.14775   0.20846   0.88311   0.00000  Uiso   1.00
H531   H     0.10973   0.30026   0.82508   0.00000  Uiso   1.00
H532   H     0.05835   0.16255   0.94034   0.00000  Uiso   1.00
H533   H     0.26800   0.14837   0.87579   0.00000  Uiso   1.00
H534   H     0.07883   0.42438   0.77357   0.00000  Uiso   1.00
H535   H     0.97051   0.13400   0.01662   0.00000  Uiso   1.00
H536   H     0.41260   0.10410   0.88050   0.00000  Uiso   1.00
H537   H     0.23466   0.38063   0.98193   0.00000  Uiso   1.00
H538   H     0.20141   0.48188   0.92932   0.00000  Uiso   1.00
H539   H     0.15002   0.34417   0.04458   0.00000  Uiso   1.00
H540   H     0.35967   0.32999   0.98003   0.00000  Uiso   1.00
H541   H     0.15323   0.57179   0.85818   0.00000  Uiso   1.00
H542   H     0.04492   0.28140   0.10123   0.00000  Uiso   1.00
H543   H     0.48700   0.25151   0.96511   0.00000  Uiso   1.00
O544   O     0.09257   0.56159   0.77949   0.00000  Uiso   1.00
O545   O     0.95047   0.18060   0.09836   0.00000  Uiso   1.00
O546   O     0.53048   0.14138   0.91978   0.00000  Uiso   1.00
N547   N     0.10092   0.44518   0.80070   0.00000  Uiso   1.00
N548   N     0.99964   0.17369   0.02793   0.00000  Uiso   1.00
N549   N     0.41295   0.14573   0.90068   0.00000  Uiso   1.00
N550   N     0.14095   0.52450   0.84623   0.00000  Uiso   1.00
N551   N     0.03968   0.25301   0.07346   0.00000  Uiso   1.00
N552   N     0.45299   0.22505   0.94621   0.00000  Uiso   1.00
C553   C     0.74791   0.83234   0.65575   0.00000  Uiso   1.00
C554   C     0.82166   0.84094   0.63792   0.00000  Uiso   1.00
C555   C     0.83948   0.87048   0.59757   0.00000  Uiso   1.00
C556   C     0.90986   0.87355   0.58732   0.00000  Uiso   1.00
C557   C     0.01667   0.89083   0.55523   0.00000  Uiso   1.00
C558   C     0.74684   0.86886   0.70054   0.00000  Uiso   1.00
C559   C     0.70175   0.92187   0.71285   0.00000  Uiso   1.00
C560   C     0.70914   0.94844   0.75532   0.00000  Uiso   1.00
C561   C     0.69977   0.00904   0.82047   0.00000  Uiso   1.00
C562   C     0.73914   0.75495   0.66547   0.00000  Uiso   1.00
C563   C     0.68757   0.71219   0.64829   0.00000  Uiso   1.00
C564   C     0.68847   0.64286   0.66124   0.00000  Uiso   1.00
C565   C     0.66714   0.52659   0.67192   0.00000  Uiso   1.00
C566   C     0.84118   0.78525   0.70929   0.00000  Uiso   1.00
C567   C     0.87232   0.81537   0.66700   0.00000  Uiso   1.00
C568   C     0.94268   0.81839   0.65681   0.00000  Uiso   1.00
C569   C     0.96061   0.84793   0.61645   0.00000  Uiso   1.00
C570   C     0.79750   0.84329   0.72963   0.00000  Uiso   1.00
C571   C     0.80495   0.86978   0.77209   0.00000  Uiso   1.00
C572   C     0.75990   0.92282   0.78446   0.00000  Uiso   1.00
C573   C     0.78981   0.72938   0.69455   0.00000  Uiso   1.00
C574   C     0.79078   0.66010   0.70753   0.00000  Uiso   1.00
C575   C     0.73922   0.61724   0.69038   0.00000  Uiso   1.00
H576   H     0.70846   0.85225   0.63311   0.00000  Uiso   1.00
H577   H     0.80026   0.89027   0.57508   0.00000  Uiso   1.00
H578   H     0.66255   0.94165   0.69034   0.00000  Uiso   1.00
H579   H     0.64837   0.73200   0.62579   0.00000  Uiso   1.00
H580   H     0.92438   0.92117   0.52357   0.00000  Uiso   1.00
H581   H     0.63400   0.02949   0.76662   0.00000  Uiso   1.00
H582   H     0.60410   0.58740   0.63050   0.00000  Uiso   1.00
H583   H     0.88063   0.76534   0.73193   0.00000  Uiso   1.00
H584   H     0.98188   0.79859   0.67932   0.00000  Uiso   1.00
H585   H     0.84417   0.84998   0.79458   0.00000  Uiso   1.00
H586   H     0.82999   0.64033   0.73003   0.00000  Uiso   1.00
H587   H     0.07179   0.84677   0.60818   0.00000  Uiso   1.00
H588   H     0.78140   0.95508   0.85123   0.00000  Uiso   1.00
H589   H     0.75151   0.51300   0.71511   0.00000  Uiso   1.00
O590   O     0.06159   0.90743   0.52949   0.00000  Uiso   1.00
O591   O     0.68060   0.04953   0.84836   0.00000  Uiso   1.00
O592   O     0.64138   0.46952   0.66978   0.00000  Uiso   1.00
N593   N     0.94518   0.89908   0.55070   0.00000  Uiso   1.00
N594   N     0.67369   0.00036   0.77793   0.00000  Uiso   1.00
N595   N     0.64573   0.58705   0.65068   0.00000  Uiso   1.00
N596   N     0.02450   0.85905   0.59623   0.00000  Uiso   1.00
N597   N     0.75301   0.96032   0.82346   0.00000  Uiso   1.00
N598   N     0.72505   0.54701   0.69621   0.00000  Uiso   1.00
C599   C     0.24791   0.33234   0.15575   0.00000  Uiso   1.00
C600   C     0.32166   0.34094   0.13792   0.00000  Uiso   1.00
C601   C     0.33948   0.37048   0.09757   0.00000  Uiso   1.00
C602   C     0.40986   0.37355   0.08732   0.00000  Uiso   1.00
C603   C     0.51667   0.39083   0.05523   0.00000  Uiso   1.00
C604   C     0.24684   0.36886   0.20054   0.00000  Uiso   1.00
C605   C     0.20175   0.42187   0.21285   0.00000  Uiso   1.00
C606   C     0.20914   0.44844   0.25532   0.00000  Uiso   1.00
C607   C     0.19977   0.50904   0.32047   0.00000  Uiso   1.00
C608   C     0.23914   0.25495   0.16547   0.00000  Uiso   1.00
C609   C     0.18757   0.21219   0.14829   0.00000  Uiso   1.00
C610   C     0.18847   0.14286   0.16124   0.00000  Uiso   1.00
C611   C     0.16714   0.02659   0.17192   0.00000  Uiso   1.00
C612   C     0.34118   0.28525   0.20929   0.00000  Uiso   1.00
C613   C     0.37232   0.31537   0.16700   0.00000  Uiso   1.00
C614   C     0.44268   0.31839   0.15681   0.00000  Uiso   1.00
C615   C     0.46061   0.34793   0.11645   0.00000  Uiso   1.00
C616   C     0.29750   0.34329   0.22963   0.00000  Uiso   1.00
C617   C     0.30495   0.36978   0.27209   0.00000  Uiso   1.00
C618   C     0.25990   0.42282   0.28446   0.00000  Uiso   1.00
C619   C     0.28981   0.22938   0.19455   0.00000  Uiso   1.00
C620   C     0.29078   0.16010   0.20753   0.00000  Uiso   1.00
C621   C     0.23922   0.11724   0.19038   0.00000  Uiso   1.00
H622   H     0.20846   0.35225   0.13311   0.00000  Uiso   1.00
H623   H     0.30026   0.39027   0.07508   0.00000  Uiso   1.00
H624   H     0.16255   0.44165   0.19034   0.00000  Uiso   1.00
H625   H     0.14837   0.23200   0.12579   0.00000  Uiso   1.00
H626   H     0.42438   0.42117   0.02357   0.00000  Uiso   1.00
H627   H     0.13400   0.52949   0.26662   0.00000  Uiso   1.00
H628   H     0.10410   0.08740   0.13050   0.00000  Uiso   1.00
H629   H     0.38063   0.26534   0.23193   0.00000  Uiso   1.00
H630   H     0.48188   0.29859   0.17932   0.00000  Uiso   1.00
H631   H     0.34417   0.34998   0.29458   0.00000  Uiso   1.00
H632   H     0.32999   0.14033   0.23003   0.00000  Uiso   1.00
H633   H     0.57179   0.34677   0.10818   0.00000  Uiso   1.00
H634   H     0.28140   0.45508   0.35123   0.00000  Uiso   1.00
H635   H     0.25151   0.01300   0.21511   0.00000  Uiso   1.00
O636   O     0.56159   0.40743   0.02949   0.00000  Uiso   1.00
O637   O     0.18060   0.54953   0.34836   0.00000  Uiso   1.00
O638   O     0.14138   0.96952   0.16978   0.00000  Uiso   1.00
N639   N     0.44518   0.39908   0.05070   0.00000  Uiso   1.00
N640   N     0.17369   0.50036   0.27793   0.00000  Uiso   1.00
N641   N     0.14573   0.08705   0.15068   0.00000  Uiso   1.00
N642   N     0.52450   0.35905   0.09623   0.00000  Uiso   1.00
N643   N     0.25301   0.46032   0.32346   0.00000  Uiso   1.00
N644   N     0.22505   0.04701   0.19621   0.00000  Uiso   1.00
C645   C     0.75209   0.66766   0.15575   0.00000  Uiso   1.00
C646   C     0.67834   0.65906   0.13792   0.00000  Uiso   1.00
C647   C     0.66052   0.62952   0.09757   0.00000  Uiso   1.00
C648   C     0.59014   0.62645   0.08732   0.00000  Uiso   1.00
C649   C     0.48333   0.60917   0.05523   0.00000  Uiso   1.00
C650   C     0.75316   0.63114   0.20054   0.00000  Uiso   1.00
C651   C     0.79825   0.57813   0.21285   0.00000  Uiso   1.00
C652   C     0.79086   0.55156   0.25532   0.00000  Uiso   1.00
C653   C     0.80023   0.49096   0.32047   0.00000  Uiso   1.00
C654   C     0.76086   0.74505   0.16547   0.00000  Uiso   1.00
C655   C     0.81243   0.78781   0.14829   0.00000  Uiso   1.00
C656   C     0.81153   0.85714   0.16124   0.00000  Uiso   1.00
C657   C     0.83286   0.97341   0.17192   0.00000  Uiso   1.00
C658   C     0.65882   0.71475   0.20929   0.00000  Uiso   1.00
C659   C     0.62768   0.68463   0.16700   0.00000  Uiso   1.00
C660   C     0.55732   0.68161   0.15681   0.00000  Uiso   1.00
C661   C     0.53939   0.65207   0.11645   0.00000  Uiso   1.00
C662   C     0.70250   0.65671   0.22963   0.00000  Uiso   1.00
C663   C     0.69505   0.63022   0.27209   0.00000  Uiso   1.00
C664   C     0.74010   0.57718   0.28446   0.00000  Uiso   1.00
C665   C     0.71019   0.77062   0.19455   0.00000  Uiso   1.00
C666   C     0.70922   0.83990   0.20753   0.00000  Uiso   1.00
C667   C     0.76078   0.88276   0.19038   0.00000  Uiso   1.00
H668   H     0.79154   0.64775   0.13311   0.00000  Uiso   1.00
H669   H     0.69974   0.60973   0.07508   0.00000  Uiso   1.00
H670   H     0.83745   0.55835   0.19034   0.00000  Uiso   1.00
H671   H     0.85163   0.76800   0.12579   0.00000  Uiso   1.00
H672   H     0.57562   0.57883   0.02357   0.00000  Uiso   1.00
H673   H     0.86600   0.47051   0.26662   0.00000  Uiso   1.00
H674   H     0.89590   0.91260   0.13050   0.00000  Uiso   1.00
H675   H     0.61937   0.73466   0.23193   0.00000  Uiso   1.00
H676   H     0.51812   0.70141   0.17932   0.00000  Uiso   1.00
H677   H     0.65583   0.65002   0.29458   0.00000  Uiso   1.00
H678   H     0.67001   0.85967   0.23003   0.00000  Uiso   1.00
H679   H     0.42821   0.65323   0.10818   0.00000  Uiso   1.00
H680   H     0.71860   0.54492   0.35123   0.00000  Uiso   1.00
H681   H     0.74849   0.98700   0.21511   0.00000  Uiso   1.00
O682   O     0.43841   0.59257   0.02949   0.00000  Uiso   1.00
O683   O     0.81940   0.45047   0.34836   0.00000  Uiso   1.00
O684   O     0.85862   0.03048   0.16978   0.00000  Uiso   1.00
N685   N     0.55482   0.60092   0.05070   0.00000  Uiso   1.00
N686   N     0.82631   0.49964   0.27793   0.00000  Uiso   1.00
N687   N     0.85427   0.91295   0.15068   0.00000  Uiso   1.00
N688   N     0.47550   0.64095   0.09623   0.00000  Uiso   1.00
N689   N     0.74699   0.53968   0.32346   0.00000  Uiso   1.00
N690   N     0.77495   0.95299   0.19621   0.00000  Uiso   1.00
C691   C     0.25209   0.16766   0.65575   0.00000  Uiso   1.00
C692   C     0.17834   0.15906   0.63792   0.00000  Uiso   1.00
C693   C     0.16052   0.12952   0.59757   0.00000  Uiso   1.00
C694   C     0.09014   0.12645   0.58732   0.00000  Uiso   1.00
C695   C     0.98333   0.10917   0.55523   0.00000  Uiso   1.00
C696   C     0.25316   0.13114   0.70054   0.00000  Uiso   1.00
C697   C     0.29825   0.07813   0.71285   0.00000  Uiso   1.00
C698   C     0.29086   0.05156   0.75532   0.00000  Uiso   1.00
C699   C     0.30023   0.99096   0.82047   0.00000  Uiso   1.00
C700   C     0.26086   0.24505   0.66547   0.00000  Uiso   1.00
C701   C     0.31243   0.28781   0.64829   0.00000  Uiso   1.00
C702   C     0.31153   0.35714   0.66124   0.00000  Uiso   1.00
C703   C     0.33286   0.47341   0.67192   0.00000  Uiso   1.00
C704   C     0.15882   0.21475   0.70929   0.00000  Uiso   1.00
C705   C     0.12768   0.18463   0.66700   0.00000  Uiso   1.00
C706   C     0.05732   0.18161   0.65681   0.00000  Uiso   1.00
C707   C     0.03939   0.15207   0.61645   0.00000  Uiso   1.00
C708   C     0.20250   0.15671   0.72963   0.00000  Uiso   1.00
C709   C     0.19505   0.13022   0.77209   0.00000  Uiso   1.00
C710   C     0.24010   0.07718   0.78446   0.00000  Uiso   1.00
C711   C     0.21019   0.27062   0.69455   0.00000  Uiso   1.00
C712   C     0.20922   0.33990   0.70753   0.00000  Uiso   1.00
C713   C     0.26078   0.38276   0.69038   0.00000  Uiso   1.00
H714   H     0.29154   0.14775   0.63311   0.00000  Uiso   1.00
H715   H     0.19974   0.10973   0.57508   0.00000  Uiso   1.00
H716   H     0.33745   0.05835   0.69034   0.00000  Uiso   1.00
H717   H     0.35163   0.26800   0.62579   0.00000  Uiso   1.00
H718   H     0.07562   0.07883   0.52357   0.00000  Uiso   1.00
H719   H     0.36600   0.97051   0.76662   0.00000  Uiso   1.00
H720   H     0.39590   0.41260   0.63050   0.00000  Uiso   1.00
H721   H     0.11937   0.23466   0.73193   0.00000  Uiso   1.00
H722   H     0.01812   0.20141   0.67932   0.00000  Uiso   1.00
H723   H     0.15583   0.15002   0.79458   0.00000  Uiso   1.00
H724   H     0.17001   0.35967   0.73003   0.00000  Uiso   1.00
H725   H     0.92821   0.15323   0.60818   0.00000  Uiso   1.00
H726   H     0.21860   0.04492   0.85123   0.00000  Uiso   1.00
H727   H     0.24849   0.48700   0.71511   0.00000  Uiso   1.00
O728   O     0.93841   0.09257   0.52949   0.00000  Uiso   1.00
O729   O     0.31940   0.95047   0.84836   0.00000  Uiso   1.00
O730   O     0.35862   0.53048   0.66978   0.00000  Uiso   1.00
N731   N     0.05482   0.10092   0.55070   0.00000  Uiso   1.00
N732   N     0.32631   0.99964   0.77793   0.00000  Uiso   1.00
N733   N     0.35427   0.41295   0.65068   0.00000  Uiso   1.00
N734   N     0.97550   0.14095   0.59623   0.00000  Uiso   1.00
N735   N     0.24699   0.03968   0.82346   0.00000  Uiso   1.00
N736   N     0.27495   0.45299   0.69621   0.00000  Uiso   1.00
