data_job_00942
_audit_creation_date              2018-12-19
_audit_creation_method            'Materials Studio'
_symmetry_space_group_name_H-M    'P1'
_symmetry_Int_Tables_number       1
_symmetry_cell_setting            triclinic
loop_
_symmetry_equiv_pos_as_xyz
  x,y,z
_cell_length_a                    14.7020
_cell_length_b                    30.1409
_cell_length_c                    22.8955
_cell_angle_alpha                 90.0000
_cell_angle_beta                  90.0000
_cell_angle_gamma                 90.0000
loop_
_atom_site_label
_atom_site_type_symbol
_atom_site_fract_x
_atom_site_fract_y
_atom_site_fract_z
_atom_site_U_iso_or_equiv
_atom_site_adp_type
_atom_site_occupancy
C1     C     0.60206   0.38517   0.25873   0.00000  Uiso   1.00
C2     C     0.70515   0.39045   0.25634   0.00000  Uiso   1.00
C3     C     0.75433   0.42567   0.27929   0.00000  Uiso   1.00
C4     C     0.84815   0.42434   0.27259   0.00000  Uiso   1.00
C5     C     0.00168   0.43791   0.27321   0.00000  Uiso   1.00
C6     C     0.57081   0.37994   0.19560   0.00000  Uiso   1.00
C7     C     0.50703   0.40633   0.16748   0.00000  Uiso   1.00
C8     C     0.48775   0.39615   0.10965   0.00000  Uiso   1.00
C9     C     0.43266   0.39339   0.01597   0.00000  Uiso   1.00
C10    C     0.58446   0.34059   0.28813   0.00000  Uiso   1.00
C11    C     0.53214   0.33389   0.33781   0.00000  Uiso   1.00
C12    C     0.52435   0.29058   0.35787   0.00000  Uiso   1.00
C13    C     0.49046   0.22673   0.40786   0.00000  Uiso   1.00
C14    C     0.68122   0.32018   0.20602   0.00000  Uiso   1.00
C15    C     0.74814   0.35515   0.22771   0.00000  Uiso   1.00
C16    C     0.84191   0.35377   0.22097   0.00000  Uiso   1.00
C17    C     0.89122   0.38898   0.24391   0.00000  Uiso   1.00
C18    C     0.61380   0.34464   0.16697   0.00000  Uiso   1.00
C19    C     0.59461   0.33443   0.10916   0.00000  Uiso   1.00
C20    C     0.53082   0.36079   0.08096   0.00000  Uiso   1.00
C21    C     0.62746   0.30529   0.25950   0.00000  Uiso   1.00
C22    C     0.61973   0.26199   0.27948   0.00000  Uiso   1.00
C23    C     0.56742   0.25522   0.32918   0.00000  Uiso   1.00
H24    H     0.56858   0.41265   0.28102   0.00000  Uiso   1.00
H25    H     0.72103   0.45298   0.30144   0.00000  Uiso   1.00
H26    H     0.47376   0.43364   0.18965   0.00000  Uiso   1.00
H27    H     0.49888   0.36121   0.35995   0.00000  Uiso   1.00
H28    H     0.90901   0.48213   0.31144   0.00000  Uiso   1.00
H29    H     0.38761   0.44134   0.07573   0.00000  Uiso   1.00
H30    H     0.44057   0.28861   0.43483   0.00000  Uiso   1.00
H31    H     0.71469   0.29270   0.18373   0.00000  Uiso   1.00
H32    H     0.87516   0.32645   0.19881   0.00000  Uiso   1.00
H33    H     0.62789   0.30711   0.08702   0.00000  Uiso   1.00
H34    H     0.65301   0.23468   0.25732   0.00000  Uiso   1.00
H35    H     0.03411   0.37943   0.22814   0.00000  Uiso   1.00
H36    H     0.51270   0.33864   0.99243   0.00000  Uiso   1.00
H37    H     0.56567   0.18592   0.35153   0.00000  Uiso   1.00
O38    O     0.07448   0.45515   0.28145   0.00000  Uiso   1.00
O39    O     0.39041   0.40163   0.97221   0.00000  Uiso   1.00
O40    O     0.45990   0.20126   0.44335   0.00000  Uiso   1.00
N41    N     0.91643   0.45333   0.28978   0.00000  Uiso   1.00
N42    N     0.42896   0.41519   0.06940   0.00000  Uiso   1.00
N43    N     0.47846   0.27241   0.40512   0.00000  Uiso   1.00
N44    N     0.98374   0.39807   0.24495   0.00000  Uiso   1.00
N45    N     0.49627   0.35993   0.02457   0.00000  Uiso   1.00
N46    N     0.54577   0.21715   0.36030   0.00000  Uiso   1.00
C47    C     0.60206   0.88517   0.75873   0.00000  Uiso   1.00
C48    C     0.70515   0.89045   0.75634   0.00000  Uiso   1.00
C49    C     0.75433   0.92567   0.77929   0.00000  Uiso   1.00
C50    C     0.84815   0.92434   0.77259   0.00000  Uiso   1.00
C51    C     0.00168   0.93791   0.77321   0.00000  Uiso   1.00
C52    C     0.57081   0.87994   0.69560   0.00000  Uiso   1.00
C53    C     0.50703   0.90633   0.66748   0.00000  Uiso   1.00
C54    C     0.48775   0.89615   0.60965   0.00000  Uiso   1.00
C55    C     0.43266   0.89339   0.51597   0.00000  Uiso   1.00
C56    C     0.58446   0.84059   0.78813   0.00000  Uiso   1.00
C57    C     0.53214   0.83389   0.83781   0.00000  Uiso   1.00
C58    C     0.52435   0.79058   0.85787   0.00000  Uiso   1.00
C59    C     0.49046   0.72673   0.90786   0.00000  Uiso   1.00
C60    C     0.68122   0.82018   0.70602   0.00000  Uiso   1.00
C61    C     0.74814   0.85515   0.72771   0.00000  Uiso   1.00
C62    C     0.84191   0.85377   0.72097   0.00000  Uiso   1.00
C63    C     0.89122   0.88898   0.74391   0.00000  Uiso   1.00
C64    C     0.61380   0.84464   0.66697   0.00000  Uiso   1.00
C65    C     0.59461   0.83443   0.60916   0.00000  Uiso   1.00
C66    C     0.53082   0.86079   0.58096   0.00000  Uiso   1.00
C67    C     0.62746   0.80529   0.75950   0.00000  Uiso   1.00
C68    C     0.61973   0.76199   0.77948   0.00000  Uiso   1.00
C69    C     0.56742   0.75522   0.82918   0.00000  Uiso   1.00
H70    H     0.56858   0.91265   0.78102   0.00000  Uiso   1.00
H71    H     0.72103   0.95298   0.80144   0.00000  Uiso   1.00
H72    H     0.47376   0.93364   0.68965   0.00000  Uiso   1.00
H73    H     0.49888   0.86121   0.85995   0.00000  Uiso   1.00
H74    H     0.90901   0.98213   0.81144   0.00000  Uiso   1.00
H75    H     0.38761   0.94134   0.57573   0.00000  Uiso   1.00
H76    H     0.44057   0.78861   0.93483   0.00000  Uiso   1.00
H77    H     0.71469   0.79270   0.68373   0.00000  Uiso   1.00
H78    H     0.87516   0.82645   0.69881   0.00000  Uiso   1.00
H79    H     0.62789   0.80711   0.58702   0.00000  Uiso   1.00
H80    H     0.65301   0.73468   0.75732   0.00000  Uiso   1.00
H81    H     0.03411   0.87943   0.72814   0.00000  Uiso   1.00
H82    H     0.51270   0.83864   0.49243   0.00000  Uiso   1.00
H83    H     0.56567   0.68592   0.85153   0.00000  Uiso   1.00
O84    O     0.07448   0.95515   0.78145   0.00000  Uiso   1.00
O85    O     0.39041   0.90163   0.47221   0.00000  Uiso   1.00
O86    O     0.45990   0.70126   0.94335   0.00000  Uiso   1.00
N87    N     0.91643   0.95333   0.78978   0.00000  Uiso   1.00
N88    N     0.42896   0.91519   0.56940   0.00000  Uiso   1.00
N89    N     0.47846   0.77241   0.90512   0.00000  Uiso   1.00
N90    N     0.98374   0.89807   0.74495   0.00000  Uiso   1.00
N91    N     0.49627   0.85993   0.52457   0.00000  Uiso   1.00
N92    N     0.54577   0.71715   0.86030   0.00000  Uiso   1.00
C93    C     0.10206   0.38517   0.75873   0.00000  Uiso   1.00
C94    C     0.20515   0.39045   0.75634   0.00000  Uiso   1.00
C95    C     0.25433   0.42567   0.77929   0.00000  Uiso   1.00
C96    C     0.34815   0.42434   0.77259   0.00000  Uiso   1.00
C97    C     0.50168   0.43791   0.77321   0.00000  Uiso   1.00
C98    C     0.07081   0.37994   0.69560   0.00000  Uiso   1.00
C99    C     0.00703   0.40633   0.66748   0.00000  Uiso   1.00
C100   C     0.98775   0.39615   0.60965   0.00000  Uiso   1.00
C101   C     0.93266   0.39339   0.51597   0.00000  Uiso   1.00
C102   C     0.08446   0.34059   0.78813   0.00000  Uiso   1.00
C103   C     0.03214   0.33389   0.83781   0.00000  Uiso   1.00
C104   C     0.02435   0.29058   0.85787   0.00000  Uiso   1.00
C105   C     0.99046   0.22673   0.90786   0.00000  Uiso   1.00
C106   C     0.18122   0.32018   0.70602   0.00000  Uiso   1.00
C107   C     0.24814   0.35515   0.72771   0.00000  Uiso   1.00
C108   C     0.34191   0.35377   0.72097   0.00000  Uiso   1.00
C109   C     0.39122   0.38898   0.74391   0.00000  Uiso   1.00
C110   C     0.11380   0.34464   0.66697   0.00000  Uiso   1.00
C111   C     0.09461   0.33443   0.60916   0.00000  Uiso   1.00
C112   C     0.03082   0.36079   0.58096   0.00000  Uiso   1.00
C113   C     0.12746   0.30529   0.75950   0.00000  Uiso   1.00
C114   C     0.11973   0.26199   0.77948   0.00000  Uiso   1.00
C115   C     0.06742   0.25522   0.82918   0.00000  Uiso   1.00
H116   H     0.06858   0.41265   0.78102   0.00000  Uiso   1.00
H117   H     0.22103   0.45298   0.80144   0.00000  Uiso   1.00
H118   H     0.97376   0.43364   0.68965   0.00000  Uiso   1.00
H119   H     0.99888   0.36121   0.85995   0.00000  Uiso   1.00
H120   H     0.40901   0.48213   0.81144   0.00000  Uiso   1.00
H121   H     0.88761   0.44134   0.57573   0.00000  Uiso   1.00
H122   H     0.94057   0.28861   0.93483   0.00000  Uiso   1.00
H123   H     0.21469   0.29270   0.68373   0.00000  Uiso   1.00
H124   H     0.37516   0.32645   0.69881   0.00000  Uiso   1.00
H125   H     0.12789   0.30711   0.58702   0.00000  Uiso   1.00
H126   H     0.15301   0.23468   0.75732   0.00000  Uiso   1.00
H127   H     0.53411   0.37943   0.72814   0.00000  Uiso   1.00
H128   H     0.01270   0.33864   0.49243   0.00000  Uiso   1.00
H129   H     0.06567   0.18592   0.85153   0.00000  Uiso   1.00
O130   O     0.57448   0.45515   0.78145   0.00000  Uiso   1.00
O131   O     0.89041   0.40163   0.47221   0.00000  Uiso   1.00
O132   O     0.95990   0.20126   0.94335   0.00000  Uiso   1.00
N133   N     0.41643   0.45333   0.78978   0.00000  Uiso   1.00
N134   N     0.92896   0.41519   0.56940   0.00000  Uiso   1.00
N135   N     0.97846   0.27241   0.90512   0.00000  Uiso   1.00
N136   N     0.48374   0.39807   0.74495   0.00000  Uiso   1.00
N137   N     0.99627   0.35993   0.52457   0.00000  Uiso   1.00
N138   N     0.04577   0.21715   0.86030   0.00000  Uiso   1.00
C139   C     0.10206   0.88517   0.25873   0.00000  Uiso   1.00
C140   C     0.20515   0.89045   0.25634   0.00000  Uiso   1.00
C141   C     0.25433   0.92567   0.27929   0.00000  Uiso   1.00
C142   C     0.34815   0.92434   0.27259   0.00000  Uiso   1.00
C143   C     0.50168   0.93791   0.27321   0.00000  Uiso   1.00
C144   C     0.07081   0.87994   0.19560   0.00000  Uiso   1.00
C145   C     0.00703   0.90633   0.16748   0.00000  Uiso   1.00
C146   C     0.98775   0.89615   0.10965   0.00000  Uiso   1.00
C147   C     0.93266   0.89339   0.01597   0.00000  Uiso   1.00
C148   C     0.08446   0.84059   0.28813   0.00000  Uiso   1.00
C149   C     0.03214   0.83389   0.33781   0.00000  Uiso   1.00
C150   C     0.02435   0.79058   0.35787   0.00000  Uiso   1.00
C151   C     0.99046   0.72673   0.40786   0.00000  Uiso   1.00
C152   C     0.18122   0.82018   0.20602   0.00000  Uiso   1.00
C153   C     0.24814   0.85515   0.22771   0.00000  Uiso   1.00
C154   C     0.34191   0.85377   0.22097   0.00000  Uiso   1.00
C155   C     0.39122   0.88898   0.24391   0.00000  Uiso   1.00
C156   C     0.11380   0.84464   0.16697   0.00000  Uiso   1.00
C157   C     0.09461   0.83443   0.10916   0.00000  Uiso   1.00
C158   C     0.03082   0.86079   0.08096   0.00000  Uiso   1.00
C159   C     0.12746   0.80529   0.25950   0.00000  Uiso   1.00
C160   C     0.11973   0.76199   0.27948   0.00000  Uiso   1.00
C161   C     0.06742   0.75522   0.32918   0.00000  Uiso   1.00
H162   H     0.06858   0.91265   0.28102   0.00000  Uiso   1.00
H163   H     0.22103   0.95298   0.30144   0.00000  Uiso   1.00
H164   H     0.97376   0.93364   0.18965   0.00000  Uiso   1.00
H165   H     0.99888   0.86121   0.35995   0.00000  Uiso   1.00
H166   H     0.40901   0.98213   0.31144   0.00000  Uiso   1.00
H167   H     0.88761   0.94134   0.07573   0.00000  Uiso   1.00
H168   H     0.94057   0.78861   0.43483   0.00000  Uiso   1.00
H169   H     0.21469   0.79270   0.18373   0.00000  Uiso   1.00
H170   H     0.37516   0.82645   0.19881   0.00000  Uiso   1.00
H171   H     0.12789   0.80711   0.08702   0.00000  Uiso   1.00
H172   H     0.15301   0.73468   0.25732   0.00000  Uiso   1.00
H173   H     0.53411   0.87943   0.22814   0.00000  Uiso   1.00
H174   H     0.01270   0.83864   0.99243   0.00000  Uiso   1.00
H175   H     0.06567   0.68592   0.35153   0.00000  Uiso   1.00
O176   O     0.57448   0.95515   0.28145   0.00000  Uiso   1.00
O177   O     0.89041   0.90163   0.97221   0.00000  Uiso   1.00
O178   O     0.95990   0.70126   0.44335   0.00000  Uiso   1.00
N179   N     0.41643   0.95333   0.28978   0.00000  Uiso   1.00
N180   N     0.92896   0.91519   0.06940   0.00000  Uiso   1.00
N181   N     0.97846   0.77241   0.40512   0.00000  Uiso   1.00
N182   N     0.48374   0.89807   0.24495   0.00000  Uiso   1.00
N183   N     0.99627   0.85993   0.02457   0.00000  Uiso   1.00
N184   N     0.04577   0.71715   0.36030   0.00000  Uiso   1.00
C185   C     0.39794   0.61483   0.25873   0.00000  Uiso   1.00
C186   C     0.29485   0.60955   0.25634   0.00000  Uiso   1.00
C187   C     0.24567   0.57433   0.27929   0.00000  Uiso   1.00
C188   C     0.15185   0.57566   0.27259   0.00000  Uiso   1.00
C189   C     0.99832   0.56209   0.27321   0.00000  Uiso   1.00
C190   C     0.42919   0.62006   0.19560   0.00000  Uiso   1.00
C191   C     0.49297   0.59367   0.16748   0.00000  Uiso   1.00
C192   C     0.51225   0.60385   0.10965   0.00000  Uiso   1.00
C193   C     0.56734   0.60661   0.01597   0.00000  Uiso   1.00
C194   C     0.41554   0.65941   0.28813   0.00000  Uiso   1.00
C195   C     0.46786   0.66611   0.33781   0.00000  Uiso   1.00
C196   C     0.47565   0.70942   0.35787   0.00000  Uiso   1.00
C197   C     0.50954   0.77327   0.40786   0.00000  Uiso   1.00
C198   C     0.31878   0.67982   0.20602   0.00000  Uiso   1.00
C199   C     0.25186   0.64485   0.22771   0.00000  Uiso   1.00
C200   C     0.15809   0.64623   0.22097   0.00000  Uiso   1.00
C201   C     0.10878   0.61102   0.24391   0.00000  Uiso   1.00
C202   C     0.38620   0.65536   0.16697   0.00000  Uiso   1.00
C203   C     0.40539   0.66557   0.10916   0.00000  Uiso   1.00
C204   C     0.46918   0.63921   0.08096   0.00000  Uiso   1.00
C205   C     0.37254   0.69471   0.25950   0.00000  Uiso   1.00
C206   C     0.38027   0.73801   0.27948   0.00000  Uiso   1.00
C207   C     0.43258   0.74478   0.32918   0.00000  Uiso   1.00
H208   H     0.43142   0.58735   0.28102   0.00000  Uiso   1.00
H209   H     0.27897   0.54702   0.30144   0.00000  Uiso   1.00
H210   H     0.52624   0.56636   0.18965   0.00000  Uiso   1.00
H211   H     0.50112   0.63879   0.35995   0.00000  Uiso   1.00
H212   H     0.09099   0.51787   0.31144   0.00000  Uiso   1.00
H213   H     0.61239   0.55866   0.07573   0.00000  Uiso   1.00
H214   H     0.55943   0.71139   0.43483   0.00000  Uiso   1.00
H215   H     0.28531   0.70730   0.18373   0.00000  Uiso   1.00
H216   H     0.12484   0.67355   0.19881   0.00000  Uiso   1.00
H217   H     0.37211   0.69289   0.08702   0.00000  Uiso   1.00
H218   H     0.34699   0.76532   0.25732   0.00000  Uiso   1.00
H219   H     0.96589   0.62057   0.22814   0.00000  Uiso   1.00
H220   H     0.48730   0.66136   0.99243   0.00000  Uiso   1.00
H221   H     0.43433   0.81408   0.35153   0.00000  Uiso   1.00
O222   O     0.92552   0.54485   0.28145   0.00000  Uiso   1.00
O223   O     0.60959   0.59837   0.97221   0.00000  Uiso   1.00
O224   O     0.54010   0.79874   0.44335   0.00000  Uiso   1.00
N225   N     0.08357   0.54667   0.28978   0.00000  Uiso   1.00
N226   N     0.57104   0.58481   0.06940   0.00000  Uiso   1.00
N227   N     0.52154   0.72759   0.40512   0.00000  Uiso   1.00
N228   N     0.01626   0.60193   0.24495   0.00000  Uiso   1.00
N229   N     0.50373   0.64007   0.02457   0.00000  Uiso   1.00
N230   N     0.45423   0.78285   0.36030   0.00000  Uiso   1.00
C231   C     0.39794   0.11483   0.75873   0.00000  Uiso   1.00
C232   C     0.29485   0.10955   0.75634   0.00000  Uiso   1.00
C233   C     0.24567   0.07433   0.77929   0.00000  Uiso   1.00
C234   C     0.15185   0.07566   0.77259   0.00000  Uiso   1.00
C235   C     0.99832   0.06209   0.77321   0.00000  Uiso   1.00
C236   C     0.42919   0.12006   0.69560   0.00000  Uiso   1.00
C237   C     0.49297   0.09367   0.66748   0.00000  Uiso   1.00
C238   C     0.51225   0.10385   0.60965   0.00000  Uiso   1.00
C239   C     0.56734   0.10661   0.51597   0.00000  Uiso   1.00
C240   C     0.41554   0.15941   0.78813   0.00000  Uiso   1.00
C241   C     0.46786   0.16611   0.83781   0.00000  Uiso   1.00
C242   C     0.47565   0.20942   0.85787   0.00000  Uiso   1.00
C243   C     0.50954   0.27327   0.90786   0.00000  Uiso   1.00
C244   C     0.31878   0.17982   0.70602   0.00000  Uiso   1.00
C245   C     0.25186   0.14485   0.72771   0.00000  Uiso   1.00
C246   C     0.15809   0.14623   0.72097   0.00000  Uiso   1.00
C247   C     0.10878   0.11102   0.74391   0.00000  Uiso   1.00
C248   C     0.38620   0.15536   0.66697   0.00000  Uiso   1.00
C249   C     0.40539   0.16557   0.60916   0.00000  Uiso   1.00
C250   C     0.46918   0.13921   0.58096   0.00000  Uiso   1.00
C251   C     0.37254   0.19471   0.75950   0.00000  Uiso   1.00
C252   C     0.38027   0.23801   0.77948   0.00000  Uiso   1.00
C253   C     0.43258   0.24478   0.82918   0.00000  Uiso   1.00
H254   H     0.43142   0.08735   0.78102   0.00000  Uiso   1.00
H255   H     0.27897   0.04702   0.80144   0.00000  Uiso   1.00
H256   H     0.52624   0.06636   0.68965   0.00000  Uiso   1.00
H257   H     0.50112   0.13879   0.85995   0.00000  Uiso   1.00
H258   H     0.09099   0.01787   0.81144   0.00000  Uiso   1.00
H259   H     0.61239   0.05866   0.57573   0.00000  Uiso   1.00
H260   H     0.55943   0.21139   0.93483   0.00000  Uiso   1.00
H261   H     0.28531   0.20730   0.68373   0.00000  Uiso   1.00
H262   H     0.12484   0.17355   0.69881   0.00000  Uiso   1.00
H263   H     0.37211   0.19289   0.58702   0.00000  Uiso   1.00
H264   H     0.34699   0.26532   0.75732   0.00000  Uiso   1.00
H265   H     0.96589   0.12057   0.72814   0.00000  Uiso   1.00
H266   H     0.48730   0.16136   0.49243   0.00000  Uiso   1.00
H267   H     0.43433   0.31408   0.85153   0.00000  Uiso   1.00
O268   O     0.92552   0.04485   0.78145   0.00000  Uiso   1.00
O269   O     0.60959   0.09837   0.47221   0.00000  Uiso   1.00
O270   O     0.54010   0.29874   0.94335   0.00000  Uiso   1.00
N271   N     0.08357   0.04667   0.78978   0.00000  Uiso   1.00
N272   N     0.57104   0.08481   0.56940   0.00000  Uiso   1.00
N273   N     0.52154   0.22759   0.90512   0.00000  Uiso   1.00
N274   N     0.01626   0.10193   0.74495   0.00000  Uiso   1.00
N275   N     0.50373   0.14007   0.52457   0.00000  Uiso   1.00
N276   N     0.45423   0.28285   0.86030   0.00000  Uiso   1.00
C277   C     0.89794   0.61483   0.75873   0.00000  Uiso   1.00
C278   C     0.79485   0.60955   0.75634   0.00000  Uiso   1.00
C279   C     0.74567   0.57433   0.77929   0.00000  Uiso   1.00
C280   C     0.65185   0.57566   0.77259   0.00000  Uiso   1.00
C281   C     0.49832   0.56209   0.77321   0.00000  Uiso   1.00
C282   C     0.92919   0.62006   0.69560   0.00000  Uiso   1.00
C283   C     0.99297   0.59367   0.66748   0.00000  Uiso   1.00
C284   C     0.01225   0.60385   0.60965   0.00000  Uiso   1.00
C285   C     0.06734   0.60661   0.51597   0.00000  Uiso   1.00
C286   C     0.91554   0.65941   0.78813   0.00000  Uiso   1.00
C287   C     0.96786   0.66611   0.83781   0.00000  Uiso   1.00
C288   C     0.97565   0.70942   0.85787   0.00000  Uiso   1.00
C289   C     0.00954   0.77327   0.90786   0.00000  Uiso   1.00
C290   C     0.81878   0.67982   0.70602   0.00000  Uiso   1.00
C291   C     0.75186   0.64485   0.72771   0.00000  Uiso   1.00
C292   C     0.65809   0.64623   0.72097   0.00000  Uiso   1.00
C293   C     0.60878   0.61102   0.74391   0.00000  Uiso   1.00
C294   C     0.88620   0.65536   0.66697   0.00000  Uiso   1.00
C295   C     0.90539   0.66557   0.60916   0.00000  Uiso   1.00
C296   C     0.96918   0.63921   0.58096   0.00000  Uiso   1.00
C297   C     0.87254   0.69471   0.75950   0.00000  Uiso   1.00
C298   C     0.88027   0.73801   0.77948   0.00000  Uiso   1.00
C299   C     0.93258   0.74478   0.82918   0.00000  Uiso   1.00
H300   H     0.93142   0.58735   0.78102   0.00000  Uiso   1.00
H301   H     0.77897   0.54702   0.80144   0.00000  Uiso   1.00
H302   H     0.02624   0.56636   0.68965   0.00000  Uiso   1.00
H303   H     0.00112   0.63879   0.85995   0.00000  Uiso   1.00
H304   H     0.59099   0.51787   0.81144   0.00000  Uiso   1.00
H305   H     0.11239   0.55866   0.57573   0.00000  Uiso   1.00
H306   H     0.05943   0.71139   0.93483   0.00000  Uiso   1.00
H307   H     0.78531   0.70730   0.68373   0.00000  Uiso   1.00
H308   H     0.62484   0.67355   0.69881   0.00000  Uiso   1.00
H309   H     0.87211   0.69289   0.58702   0.00000  Uiso   1.00
H310   H     0.84699   0.76532   0.75732   0.00000  Uiso   1.00
H311   H     0.46589   0.62057   0.72814   0.00000  Uiso   1.00
H312   H     0.98730   0.66136   0.49243   0.00000  Uiso   1.00
H313   H     0.93433   0.81408   0.85153   0.00000  Uiso   1.00
O314   O     0.42552   0.54485   0.78145   0.00000  Uiso   1.00
O315   O     0.10959   0.59837   0.47221   0.00000  Uiso   1.00
O316   O     0.04010   0.79874   0.94335   0.00000  Uiso   1.00
N317   N     0.58357   0.54667   0.78978   0.00000  Uiso   1.00
N318   N     0.07104   0.58481   0.56940   0.00000  Uiso   1.00
N319   N     0.02154   0.72759   0.90512   0.00000  Uiso   1.00
N320   N     0.51626   0.60193   0.74495   0.00000  Uiso   1.00
N321   N     0.00373   0.64007   0.52457   0.00000  Uiso   1.00
N322   N     0.95423   0.78285   0.86030   0.00000  Uiso   1.00
C323   C     0.89794   0.11483   0.25873   0.00000  Uiso   1.00
C324   C     0.79485   0.10955   0.25634   0.00000  Uiso   1.00
C325   C     0.74567   0.07433   0.27929   0.00000  Uiso   1.00
C326   C     0.65185   0.07566   0.27259   0.00000  Uiso   1.00
C327   C     0.49832   0.06209   0.27321   0.00000  Uiso   1.00
C328   C     0.92919   0.12006   0.19560   0.00000  Uiso   1.00
C329   C     0.99297   0.09367   0.16748   0.00000  Uiso   1.00
C330   C     0.01225   0.10385   0.10965   0.00000  Uiso   1.00
C331   C     0.06734   0.10661   0.01597   0.00000  Uiso   1.00
C332   C     0.91554   0.15941   0.28813   0.00000  Uiso   1.00
C333   C     0.96786   0.16611   0.33781   0.00000  Uiso   1.00
C334   C     0.97565   0.20942   0.35787   0.00000  Uiso   1.00
C335   C     0.00954   0.27327   0.40786   0.00000  Uiso   1.00
C336   C     0.81878   0.17982   0.20602   0.00000  Uiso   1.00
C337   C     0.75186   0.14485   0.22771   0.00000  Uiso   1.00
C338   C     0.65809   0.14623   0.22097   0.00000  Uiso   1.00
C339   C     0.60878   0.11102   0.24391   0.00000  Uiso   1.00
C340   C     0.88620   0.15536   0.16697   0.00000  Uiso   1.00
C341   C     0.90539   0.16557   0.10916   0.00000  Uiso   1.00
C342   C     0.96918   0.13921   0.08096   0.00000  Uiso   1.00
C343   C     0.87254   0.19471   0.25950   0.00000  Uiso   1.00
C344   C     0.88027   0.23801   0.27948   0.00000  Uiso   1.00
C345   C     0.93258   0.24478   0.32918   0.00000  Uiso   1.00
H346   H     0.93142   0.08735   0.28102   0.00000  Uiso   1.00
H347   H     0.77897   0.04702   0.30144   0.00000  Uiso   1.00
H348   H     0.02624   0.06636   0.18965   0.00000  Uiso   1.00
H349   H     0.00112   0.13879   0.35995   0.00000  Uiso   1.00
H350   H     0.59099   0.01787   0.31144   0.00000  Uiso   1.00
H351   H     0.11239   0.05866   0.07573   0.00000  Uiso   1.00
H352   H     0.05943   0.21139   0.43483   0.00000  Uiso   1.00
H353   H     0.78531   0.20730   0.18373   0.00000  Uiso   1.00
H354   H     0.62484   0.17355   0.19881   0.00000  Uiso   1.00
H355   H     0.87211   0.19289   0.08702   0.00000  Uiso   1.00
H356   H     0.84699   0.26532   0.25732   0.00000  Uiso   1.00
H357   H     0.46589   0.12057   0.22814   0.00000  Uiso   1.00
H358   H     0.98730   0.16136   0.99243   0.00000  Uiso   1.00
H359   H     0.93433   0.31408   0.35153   0.00000  Uiso   1.00
O360   O     0.42552   0.04485   0.28145   0.00000  Uiso   1.00
O361   O     0.10959   0.09837   0.97221   0.00000  Uiso   1.00
O362   O     0.04010   0.29874   0.44335   0.00000  Uiso   1.00
N363   N     0.58357   0.04667   0.28978   0.00000  Uiso   1.00
N364   N     0.07104   0.08481   0.06940   0.00000  Uiso   1.00
N365   N     0.02154   0.22759   0.40512   0.00000  Uiso   1.00
N366   N     0.51626   0.10193   0.24495   0.00000  Uiso   1.00
N367   N     0.00373   0.14007   0.02457   0.00000  Uiso   1.00
N368   N     0.95423   0.28285   0.36030   0.00000  Uiso   1.00
C369   C     0.85206   0.86483   0.50873   0.00000  Uiso   1.00
C370   C     0.95515   0.85955   0.50634   0.00000  Uiso   1.00
C371   C     0.00433   0.82433   0.52929   0.00000  Uiso   1.00
C372   C     0.09815   0.82566   0.52259   0.00000  Uiso   1.00
C373   C     0.25168   0.81209   0.52321   0.00000  Uiso   1.00
C374   C     0.82081   0.87006   0.44560   0.00000  Uiso   1.00
C375   C     0.75703   0.84367   0.41748   0.00000  Uiso   1.00
C376   C     0.73775   0.85385   0.35965   0.00000  Uiso   1.00
C377   C     0.68266   0.85661   0.26597   0.00000  Uiso   1.00
C378   C     0.83446   0.90941   0.53813   0.00000  Uiso   1.00
C379   C     0.78214   0.91611   0.58781   0.00000  Uiso   1.00
C380   C     0.77435   0.95942   0.60787   0.00000  Uiso   1.00
C381   C     0.74046   0.02327   0.65786   0.00000  Uiso   1.00
C382   C     0.93122   0.92982   0.45602   0.00000  Uiso   1.00
C383   C     0.99814   0.89485   0.47771   0.00000  Uiso   1.00
C384   C     0.09191   0.89623   0.47097   0.00000  Uiso   1.00
C385   C     0.14122   0.86102   0.49391   0.00000  Uiso   1.00
C386   C     0.86380   0.90536   0.41697   0.00000  Uiso   1.00
C387   C     0.84461   0.91557   0.35916   0.00000  Uiso   1.00
C388   C     0.78082   0.88921   0.33096   0.00000  Uiso   1.00
C389   C     0.87746   0.94471   0.50950   0.00000  Uiso   1.00
C390   C     0.86973   0.98801   0.52948   0.00000  Uiso   1.00
C391   C     0.81742   0.99478   0.57918   0.00000  Uiso   1.00
H392   H     0.81858   0.83735   0.53102   0.00000  Uiso   1.00
H393   H     0.97103   0.79702   0.55144   0.00000  Uiso   1.00
H394   H     0.72376   0.81636   0.43965   0.00000  Uiso   1.00
H395   H     0.74888   0.88879   0.60995   0.00000  Uiso   1.00
H396   H     0.15901   0.76787   0.56144   0.00000  Uiso   1.00
H397   H     0.63761   0.80866   0.32573   0.00000  Uiso   1.00
H398   H     0.69057   0.96139   0.68483   0.00000  Uiso   1.00
H399   H     0.96469   0.95730   0.43373   0.00000  Uiso   1.00
H400   H     0.12516   0.92355   0.44881   0.00000  Uiso   1.00
H401   H     0.87789   0.94289   0.33702   0.00000  Uiso   1.00
H402   H     0.90301   0.01532   0.50732   0.00000  Uiso   1.00
H403   H     0.28411   0.87057   0.47814   0.00000  Uiso   1.00
H404   H     0.76270   0.91136   0.24243   0.00000  Uiso   1.00
H405   H     0.81567   0.06408   0.60153   0.00000  Uiso   1.00
O406   O     0.32448   0.79485   0.53145   0.00000  Uiso   1.00
O407   O     0.64041   0.84837   0.22221   0.00000  Uiso   1.00
O408   O     0.70990   0.04874   0.69335   0.00000  Uiso   1.00
N409   N     0.16643   0.79667   0.53978   0.00000  Uiso   1.00
N410   N     0.67896   0.83481   0.31940   0.00000  Uiso   1.00
N411   N     0.72846   0.97759   0.65512   0.00000  Uiso   1.00
N412   N     0.23374   0.85193   0.49495   0.00000  Uiso   1.00
N413   N     0.74627   0.89007   0.27457   0.00000  Uiso   1.00
N414   N     0.79577   0.03285   0.61030   0.00000  Uiso   1.00
C415   C     0.85206   0.36483   0.00873   0.00000  Uiso   1.00
C416   C     0.95515   0.35955   0.00634   0.00000  Uiso   1.00
C417   C     0.00433   0.32433   0.02929   0.00000  Uiso   1.00
C418   C     0.09815   0.32566   0.02259   0.00000  Uiso   1.00
C419   C     0.25168   0.31209   0.02321   0.00000  Uiso   1.00
C420   C     0.82081   0.37006   0.94560   0.00000  Uiso   1.00
C421   C     0.75703   0.34367   0.91748   0.00000  Uiso   1.00
C422   C     0.73775   0.35385   0.85965   0.00000  Uiso   1.00
C423   C     0.68266   0.35661   0.76597   0.00000  Uiso   1.00
C424   C     0.83446   0.40941   0.03813   0.00000  Uiso   1.00
C425   C     0.78214   0.41611   0.08781   0.00000  Uiso   1.00
C426   C     0.77435   0.45942   0.10787   0.00000  Uiso   1.00
C427   C     0.74046   0.52327   0.15786   0.00000  Uiso   1.00
C428   C     0.93122   0.42982   0.95602   0.00000  Uiso   1.00
C429   C     0.99814   0.39485   0.97771   0.00000  Uiso   1.00
C430   C     0.09191   0.39623   0.97097   0.00000  Uiso   1.00
C431   C     0.14122   0.36102   0.99391   0.00000  Uiso   1.00
C432   C     0.86380   0.40536   0.91697   0.00000  Uiso   1.00
C433   C     0.84461   0.41557   0.85916   0.00000  Uiso   1.00
C434   C     0.78082   0.38921   0.83096   0.00000  Uiso   1.00
C435   C     0.87746   0.44471   0.00950   0.00000  Uiso   1.00
C436   C     0.86973   0.48801   0.02948   0.00000  Uiso   1.00
C437   C     0.81742   0.49478   0.07918   0.00000  Uiso   1.00
H438   H     0.81858   0.33735   0.03102   0.00000  Uiso   1.00
H439   H     0.97103   0.29702   0.05144   0.00000  Uiso   1.00
H440   H     0.72376   0.31636   0.93965   0.00000  Uiso   1.00
H441   H     0.74888   0.38879   0.10995   0.00000  Uiso   1.00
H442   H     0.15901   0.26787   0.06144   0.00000  Uiso   1.00
H443   H     0.63761   0.30866   0.82573   0.00000  Uiso   1.00
H444   H     0.69057   0.46139   0.18483   0.00000  Uiso   1.00
H445   H     0.96469   0.45730   0.93373   0.00000  Uiso   1.00
H446   H     0.12516   0.42355   0.94881   0.00000  Uiso   1.00
H447   H     0.87789   0.44289   0.83702   0.00000  Uiso   1.00
H448   H     0.90301   0.51532   0.00732   0.00000  Uiso   1.00
H449   H     0.28411   0.37057   0.97814   0.00000  Uiso   1.00
H450   H     0.76270   0.41136   0.74243   0.00000  Uiso   1.00
H451   H     0.81567   0.56408   0.10153   0.00000  Uiso   1.00
O452   O     0.32448   0.29485   0.03145   0.00000  Uiso   1.00
O453   O     0.64041   0.34837   0.72221   0.00000  Uiso   1.00
O454   O     0.70990   0.54874   0.19335   0.00000  Uiso   1.00
N455   N     0.16643   0.29667   0.03978   0.00000  Uiso   1.00
N456   N     0.67896   0.33481   0.81940   0.00000  Uiso   1.00
N457   N     0.72846   0.47759   0.15512   0.00000  Uiso   1.00
N458   N     0.23374   0.35193   0.99495   0.00000  Uiso   1.00
N459   N     0.74627   0.39007   0.77457   0.00000  Uiso   1.00
N460   N     0.79577   0.53285   0.11030   0.00000  Uiso   1.00
C461   C     0.35206   0.86483   0.00873   0.00000  Uiso   1.00
C462   C     0.45515   0.85955   0.00634   0.00000  Uiso   1.00
C463   C     0.50433   0.82433   0.02929   0.00000  Uiso   1.00
C464   C     0.59815   0.82566   0.02259   0.00000  Uiso   1.00
C465   C     0.75168   0.81209   0.02321   0.00000  Uiso   1.00
C466   C     0.32081   0.87006   0.94560   0.00000  Uiso   1.00
C467   C     0.25703   0.84367   0.91748   0.00000  Uiso   1.00
C468   C     0.23775   0.85385   0.85965   0.00000  Uiso   1.00
C469   C     0.18266   0.85661   0.76597   0.00000  Uiso   1.00
C470   C     0.33446   0.90941   0.03813   0.00000  Uiso   1.00
C471   C     0.28214   0.91611   0.08781   0.00000  Uiso   1.00
C472   C     0.27435   0.95942   0.10787   0.00000  Uiso   1.00
C473   C     0.24046   0.02327   0.15786   0.00000  Uiso   1.00
C474   C     0.43122   0.92982   0.95602   0.00000  Uiso   1.00
C475   C     0.49814   0.89485   0.97771   0.00000  Uiso   1.00
C476   C     0.59191   0.89623   0.97097   0.00000  Uiso   1.00
C477   C     0.64122   0.86102   0.99391   0.00000  Uiso   1.00
C478   C     0.36380   0.90536   0.91697   0.00000  Uiso   1.00
C479   C     0.34461   0.91557   0.85916   0.00000  Uiso   1.00
C480   C     0.28082   0.88921   0.83096   0.00000  Uiso   1.00
C481   C     0.37746   0.94471   0.00950   0.00000  Uiso   1.00
C482   C     0.36973   0.98801   0.02948   0.00000  Uiso   1.00
C483   C     0.31742   0.99478   0.07918   0.00000  Uiso   1.00
H484   H     0.31858   0.83735   0.03102   0.00000  Uiso   1.00
H485   H     0.47103   0.79702   0.05144   0.00000  Uiso   1.00
H486   H     0.22376   0.81636   0.93965   0.00000  Uiso   1.00
H487   H     0.24888   0.88879   0.10995   0.00000  Uiso   1.00
H488   H     0.65901   0.76787   0.06144   0.00000  Uiso   1.00
H489   H     0.13761   0.80866   0.82573   0.00000  Uiso   1.00
H490   H     0.19057   0.96139   0.18483   0.00000  Uiso   1.00
H491   H     0.46469   0.95730   0.93373   0.00000  Uiso   1.00
H492   H     0.62516   0.92355   0.94881   0.00000  Uiso   1.00
H493   H     0.37789   0.94289   0.83702   0.00000  Uiso   1.00
H494   H     0.40301   0.01532   0.00732   0.00000  Uiso   1.00
H495   H     0.78411   0.87057   0.97814   0.00000  Uiso   1.00
H496   H     0.26270   0.91136   0.74243   0.00000  Uiso   1.00
H497   H     0.31567   0.06408   0.10153   0.00000  Uiso   1.00
O498   O     0.82448   0.79485   0.03145   0.00000  Uiso   1.00
O499   O     0.14041   0.84837   0.72221   0.00000  Uiso   1.00
O500   O     0.20990   0.04874   0.19335   0.00000  Uiso   1.00
N501   N     0.66643   0.79667   0.03978   0.00000  Uiso   1.00
N502   N     0.17896   0.83481   0.81940   0.00000  Uiso   1.00
N503   N     0.22846   0.97759   0.15512   0.00000  Uiso   1.00
N504   N     0.73374   0.85193   0.99495   0.00000  Uiso   1.00
N505   N     0.24627   0.89007   0.77457   0.00000  Uiso   1.00
N506   N     0.29577   0.03285   0.11030   0.00000  Uiso   1.00
C507   C     0.35206   0.36483   0.50873   0.00000  Uiso   1.00
C508   C     0.45515   0.35955   0.50634   0.00000  Uiso   1.00
C509   C     0.50433   0.32433   0.52929   0.00000  Uiso   1.00
C510   C     0.59815   0.32566   0.52259   0.00000  Uiso   1.00
C511   C     0.75168   0.31209   0.52321   0.00000  Uiso   1.00
C512   C     0.32081   0.37006   0.44560   0.00000  Uiso   1.00
C513   C     0.25703   0.34367   0.41748   0.00000  Uiso   1.00
C514   C     0.23775   0.35385   0.35965   0.00000  Uiso   1.00
C515   C     0.18266   0.35661   0.26597   0.00000  Uiso   1.00
C516   C     0.33446   0.40941   0.53813   0.00000  Uiso   1.00
C517   C     0.28214   0.41611   0.58781   0.00000  Uiso   1.00
C518   C     0.27435   0.45942   0.60787   0.00000  Uiso   1.00
C519   C     0.24046   0.52327   0.65786   0.00000  Uiso   1.00
C520   C     0.43122   0.42982   0.45602   0.00000  Uiso   1.00
C521   C     0.49814   0.39485   0.47771   0.00000  Uiso   1.00
C522   C     0.59191   0.39623   0.47097   0.00000  Uiso   1.00
C523   C     0.64122   0.36102   0.49391   0.00000  Uiso   1.00
C524   C     0.36380   0.40536   0.41697   0.00000  Uiso   1.00
C525   C     0.34461   0.41557   0.35916   0.00000  Uiso   1.00
C526   C     0.28082   0.38921   0.33096   0.00000  Uiso   1.00
C527   C     0.37746   0.44471   0.50950   0.00000  Uiso   1.00
C528   C     0.36973   0.48801   0.52948   0.00000  Uiso   1.00
C529   C     0.31742   0.49478   0.57918   0.00000  Uiso   1.00
H530   H     0.31858   0.33735   0.53102   0.00000  Uiso   1.00
H531   H     0.47103   0.29702   0.55144   0.00000  Uiso   1.00
H532   H     0.22376   0.31636   0.43965   0.00000  Uiso   1.00
H533   H     0.24888   0.38879   0.60995   0.00000  Uiso   1.00
H534   H     0.65901   0.26787   0.56144   0.00000  Uiso   1.00
H535   H     0.13761   0.30866   0.32573   0.00000  Uiso   1.00
H536   H     0.19057   0.46139   0.68483   0.00000  Uiso   1.00
H537   H     0.46469   0.45730   0.43373   0.00000  Uiso   1.00
H538   H     0.62516   0.42355   0.44881   0.00000  Uiso   1.00
H539   H     0.37789   0.44289   0.33702   0.00000  Uiso   1.00
H540   H     0.40301   0.51532   0.50732   0.00000  Uiso   1.00
H541   H     0.78411   0.37057   0.47814   0.00000  Uiso   1.00
H542   H     0.26270   0.41136   0.24243   0.00000  Uiso   1.00
H543   H     0.31567   0.56408   0.60153   0.00000  Uiso   1.00
O544   O     0.82448   0.29485   0.53145   0.00000  Uiso   1.00
O545   O     0.14041   0.34837   0.22221   0.00000  Uiso   1.00
O546   O     0.20990   0.54874   0.69335   0.00000  Uiso   1.00
N547   N     0.66643   0.29667   0.53978   0.00000  Uiso   1.00
N548   N     0.17896   0.33481   0.31940   0.00000  Uiso   1.00
N549   N     0.22846   0.47759   0.65512   0.00000  Uiso   1.00
N550   N     0.73374   0.35193   0.49495   0.00000  Uiso   1.00
N551   N     0.24627   0.39007   0.27457   0.00000  Uiso   1.00
N552   N     0.29577   0.53285   0.61030   0.00000  Uiso   1.00
C553   C     0.64794   0.63517   0.50873   0.00000  Uiso   1.00
C554   C     0.54485   0.64045   0.50634   0.00000  Uiso   1.00
C555   C     0.49567   0.67567   0.52929   0.00000  Uiso   1.00
C556   C     0.40185   0.67434   0.52259   0.00000  Uiso   1.00
C557   C     0.24832   0.68791   0.52321   0.00000  Uiso   1.00
C558   C     0.67919   0.62994   0.44560   0.00000  Uiso   1.00
C559   C     0.74297   0.65633   0.41748   0.00000  Uiso   1.00
C560   C     0.76225   0.64615   0.35965   0.00000  Uiso   1.00
C561   C     0.81734   0.64339   0.26597   0.00000  Uiso   1.00
C562   C     0.66554   0.59059   0.53813   0.00000  Uiso   1.00
C563   C     0.71786   0.58389   0.58781   0.00000  Uiso   1.00
C564   C     0.72565   0.54058   0.60787   0.00000  Uiso   1.00
C565   C     0.75954   0.47673   0.65786   0.00000  Uiso   1.00
C566   C     0.56878   0.57018   0.45602   0.00000  Uiso   1.00
C567   C     0.50186   0.60515   0.47771   0.00000  Uiso   1.00
C568   C     0.40809   0.60377   0.47097   0.00000  Uiso   1.00
C569   C     0.35878   0.63898   0.49391   0.00000  Uiso   1.00
C570   C     0.63620   0.59464   0.41697   0.00000  Uiso   1.00
C571   C     0.65539   0.58443   0.35916   0.00000  Uiso   1.00
C572   C     0.71918   0.61079   0.33096   0.00000  Uiso   1.00
C573   C     0.62254   0.55529   0.50950   0.00000  Uiso   1.00
C574   C     0.63027   0.51199   0.52948   0.00000  Uiso   1.00
C575   C     0.68258   0.50522   0.57918   0.00000  Uiso   1.00
H576   H     0.68142   0.66265   0.53102   0.00000  Uiso   1.00
H577   H     0.52897   0.70298   0.55144   0.00000  Uiso   1.00
H578   H     0.77624   0.68364   0.43965   0.00000  Uiso   1.00
H579   H     0.75112   0.61121   0.60995   0.00000  Uiso   1.00
H580   H     0.34099   0.73213   0.56144   0.00000  Uiso   1.00
H581   H     0.86239   0.69134   0.32573   0.00000  Uiso   1.00
H582   H     0.80943   0.53861   0.68483   0.00000  Uiso   1.00
H583   H     0.53531   0.54270   0.43373   0.00000  Uiso   1.00
H584   H     0.37484   0.57645   0.44881   0.00000  Uiso   1.00
H585   H     0.62211   0.55711   0.33702   0.00000  Uiso   1.00
H586   H     0.59699   0.48468   0.50732   0.00000  Uiso   1.00
H587   H     0.21589   0.62943   0.47814   0.00000  Uiso   1.00
H588   H     0.73730   0.58864   0.24243   0.00000  Uiso   1.00
H589   H     0.68433   0.43592   0.60153   0.00000  Uiso   1.00
O590   O     0.17552   0.70515   0.53145   0.00000  Uiso   1.00
O591   O     0.85959   0.65163   0.22221   0.00000  Uiso   1.00
O592   O     0.79010   0.45126   0.69335   0.00000  Uiso   1.00
N593   N     0.33357   0.70333   0.53978   0.00000  Uiso   1.00
N594   N     0.82104   0.66519   0.31940   0.00000  Uiso   1.00
N595   N     0.77154   0.52241   0.65512   0.00000  Uiso   1.00
N596   N     0.26626   0.64807   0.49495   0.00000  Uiso   1.00
N597   N     0.75373   0.60993   0.27457   0.00000  Uiso   1.00
N598   N     0.70423   0.46715   0.61030   0.00000  Uiso   1.00
C599   C     0.64794   0.13517   0.00873   0.00000  Uiso   1.00
C600   C     0.54485   0.14045   0.00634   0.00000  Uiso   1.00
C601   C     0.49567   0.17567   0.02929   0.00000  Uiso   1.00
C602   C     0.40185   0.17434   0.02259   0.00000  Uiso   1.00
C603   C     0.24832   0.18791   0.02321   0.00000  Uiso   1.00
C604   C     0.67919   0.12994   0.94560   0.00000  Uiso   1.00
C605   C     0.74297   0.15633   0.91748   0.00000  Uiso   1.00
C606   C     0.76225   0.14615   0.85965   0.00000  Uiso   1.00
C607   C     0.81734   0.14339   0.76597   0.00000  Uiso   1.00
C608   C     0.66554   0.09059   0.03813   0.00000  Uiso   1.00
C609   C     0.71786   0.08389   0.08781   0.00000  Uiso   1.00
C610   C     0.72565   0.04058   0.10787   0.00000  Uiso   1.00
C611   C     0.75954   0.97673   0.15786   0.00000  Uiso   1.00
C612   C     0.56878   0.07018   0.95602   0.00000  Uiso   1.00
C613   C     0.50186   0.10515   0.97771   0.00000  Uiso   1.00
C614   C     0.40809   0.10377   0.97097   0.00000  Uiso   1.00
C615   C     0.35878   0.13898   0.99391   0.00000  Uiso   1.00
C616   C     0.63620   0.09464   0.91697   0.00000  Uiso   1.00
C617   C     0.65539   0.08443   0.85916   0.00000  Uiso   1.00
C618   C     0.71918   0.11079   0.83096   0.00000  Uiso   1.00
C619   C     0.62254   0.05529   0.00950   0.00000  Uiso   1.00
C620   C     0.63027   0.01199   0.02948   0.00000  Uiso   1.00
C621   C     0.68258   0.00522   0.07918   0.00000  Uiso   1.00
H622   H     0.68142   0.16265   0.03102   0.00000  Uiso   1.00
H623   H     0.52897   0.20298   0.05144   0.00000  Uiso   1.00
H624   H     0.77624   0.18364   0.93965   0.00000  Uiso   1.00
H625   H     0.75112   0.11121   0.10995   0.00000  Uiso   1.00
H626   H     0.34099   0.23213   0.06144   0.00000  Uiso   1.00
H627   H     0.86239   0.19134   0.82573   0.00000  Uiso   1.00
H628   H     0.80943   0.03861   0.18483   0.00000  Uiso   1.00
H629   H     0.53531   0.04270   0.93373   0.00000  Uiso   1.00
H630   H     0.37484   0.07645   0.94881   0.00000  Uiso   1.00
H631   H     0.62211   0.05711   0.83702   0.00000  Uiso   1.00
H632   H     0.59699   0.98468   0.00732   0.00000  Uiso   1.00
H633   H     0.21589   0.12943   0.97814   0.00000  Uiso   1.00
H634   H     0.73730   0.08864   0.74243   0.00000  Uiso   1.00
H635   H     0.68433   0.93592   0.10153   0.00000  Uiso   1.00
O636   O     0.17552   0.20515   0.03145   0.00000  Uiso   1.00
O637   O     0.85959   0.15163   0.72221   0.00000  Uiso   1.00
O638   O     0.79010   0.95126   0.19335   0.00000  Uiso   1.00
N639   N     0.33357   0.20333   0.03978   0.00000  Uiso   1.00
N640   N     0.82104   0.16519   0.81940   0.00000  Uiso   1.00
N641   N     0.77154   0.02241   0.15512   0.00000  Uiso   1.00
N642   N     0.26626   0.14807   0.99495   0.00000  Uiso   1.00
N643   N     0.75373   0.10993   0.77457   0.00000  Uiso   1.00
N644   N     0.70423   0.96715   0.11030   0.00000  Uiso   1.00
C645   C     0.14794   0.63517   0.00873   0.00000  Uiso   1.00
C646   C     0.04485   0.64045   0.00634   0.00000  Uiso   1.00
C647   C     0.99567   0.67567   0.02929   0.00000  Uiso   1.00
C648   C     0.90185   0.67434   0.02259   0.00000  Uiso   1.00
C649   C     0.74832   0.68791   0.02321   0.00000  Uiso   1.00
C650   C     0.17919   0.62994   0.94560   0.00000  Uiso   1.00
C651   C     0.24297   0.65633   0.91748   0.00000  Uiso   1.00
C652   C     0.26225   0.64615   0.85965   0.00000  Uiso   1.00
C653   C     0.31734   0.64339   0.76597   0.00000  Uiso   1.00
C654   C     0.16554   0.59059   0.03813   0.00000  Uiso   1.00
C655   C     0.21786   0.58389   0.08781   0.00000  Uiso   1.00
C656   C     0.22565   0.54058   0.10787   0.00000  Uiso   1.00
C657   C     0.25954   0.47673   0.15786   0.00000  Uiso   1.00
C658   C     0.06878   0.57018   0.95602   0.00000  Uiso   1.00
C659   C     0.00186   0.60515   0.97771   0.00000  Uiso   1.00
C660   C     0.90809   0.60377   0.97097   0.00000  Uiso   1.00
C661   C     0.85878   0.63898   0.99391   0.00000  Uiso   1.00
C662   C     0.13620   0.59464   0.91697   0.00000  Uiso   1.00
C663   C     0.15539   0.58443   0.85916   0.00000  Uiso   1.00
C664   C     0.21918   0.61079   0.83096   0.00000  Uiso   1.00
C665   C     0.12254   0.55529   0.00950   0.00000  Uiso   1.00
C666   C     0.13027   0.51199   0.02948   0.00000  Uiso   1.00
C667   C     0.18258   0.50522   0.07918   0.00000  Uiso   1.00
H668   H     0.18142   0.66265   0.03102   0.00000  Uiso   1.00
H669   H     0.02897   0.70298   0.05144   0.00000  Uiso   1.00
H670   H     0.27624   0.68364   0.93965   0.00000  Uiso   1.00
H671   H     0.25112   0.61121   0.10995   0.00000  Uiso   1.00
H672   H     0.84099   0.73213   0.06144   0.00000  Uiso   1.00
H673   H     0.36239   0.69134   0.82573   0.00000  Uiso   1.00
H674   H     0.30943   0.53861   0.18483   0.00000  Uiso   1.00
H675   H     0.03531   0.54270   0.93373   0.00000  Uiso   1.00
H676   H     0.87484   0.57645   0.94881   0.00000  Uiso   1.00
H677   H     0.12211   0.55711   0.83702   0.00000  Uiso   1.00
H678   H     0.09699   0.48468   0.00732   0.00000  Uiso   1.00
H679   H     0.71589   0.62943   0.97814   0.00000  Uiso   1.00
H680   H     0.23730   0.58864   0.74243   0.00000  Uiso   1.00
H681   H     0.18433   0.43592   0.10153   0.00000  Uiso   1.00
O682   O     0.67552   0.70515   0.03145   0.00000  Uiso   1.00
O683   O     0.35959   0.65163   0.72221   0.00000  Uiso   1.00
O684   O     0.29010   0.45126   0.19335   0.00000  Uiso   1.00
N685   N     0.83357   0.70333   0.03978   0.00000  Uiso   1.00
N686   N     0.32104   0.66519   0.81940   0.00000  Uiso   1.00
N687   N     0.27154   0.52241   0.15512   0.00000  Uiso   1.00
N688   N     0.76626   0.64807   0.99495   0.00000  Uiso   1.00
N689   N     0.25373   0.60993   0.77457   0.00000  Uiso   1.00
N690   N     0.20423   0.46715   0.11030   0.00000  Uiso   1.00
C691   C     0.14794   0.13517   0.50873   0.00000  Uiso   1.00
C692   C     0.04485   0.14045   0.50634   0.00000  Uiso   1.00
C693   C     0.99567   0.17567   0.52929   0.00000  Uiso   1.00
C694   C     0.90185   0.17434   0.52259   0.00000  Uiso   1.00
C695   C     0.74832   0.18791   0.52321   0.00000  Uiso   1.00
C696   C     0.17919   0.12994   0.44560   0.00000  Uiso   1.00
C697   C     0.24297   0.15633   0.41748   0.00000  Uiso   1.00
C698   C     0.26225   0.14615   0.35965   0.00000  Uiso   1.00
C699   C     0.31734   0.14339   0.26597   0.00000  Uiso   1.00
C700   C     0.16554   0.09059   0.53813   0.00000  Uiso   1.00
C701   C     0.21786   0.08389   0.58781   0.00000  Uiso   1.00
C702   C     0.22565   0.04058   0.60787   0.00000  Uiso   1.00
C703   C     0.25954   0.97673   0.65786   0.00000  Uiso   1.00
C704   C     0.06878   0.07018   0.45602   0.00000  Uiso   1.00
C705   C     0.00186   0.10515   0.47771   0.00000  Uiso   1.00
C706   C     0.90809   0.10377   0.47097   0.00000  Uiso   1.00
C707   C     0.85878   0.13898   0.49391   0.00000  Uiso   1.00
C708   C     0.13620   0.09464   0.41697   0.00000  Uiso   1.00
C709   C     0.15539   0.08443   0.35916   0.00000  Uiso   1.00
C710   C     0.21918   0.11079   0.33096   0.00000  Uiso   1.00
C711   C     0.12254   0.05529   0.50950   0.00000  Uiso   1.00
C712   C     0.13027   0.01199   0.52948   0.00000  Uiso   1.00
C713   C     0.18258   0.00522   0.57918   0.00000  Uiso   1.00
H714   H     0.18142   0.16265   0.53102   0.00000  Uiso   1.00
H715   H     0.02897   0.20298   0.55144   0.00000  Uiso   1.00
H716   H     0.27624   0.18364   0.43965   0.00000  Uiso   1.00
H717   H     0.25112   0.11121   0.60995   0.00000  Uiso   1.00
H718   H     0.84099   0.23213   0.56144   0.00000  Uiso   1.00
H719   H     0.36239   0.19134   0.32573   0.00000  Uiso   1.00
H720   H     0.30943   0.03861   0.68483   0.00000  Uiso   1.00
H721   H     0.03531   0.04270   0.43373   0.00000  Uiso   1.00
H722   H     0.87484   0.07645   0.44881   0.00000  Uiso   1.00
H723   H     0.12211   0.05711   0.33702   0.00000  Uiso   1.00
H724   H     0.09699   0.98468   0.50732   0.00000  Uiso   1.00
H725   H     0.71589   0.12943   0.47814   0.00000  Uiso   1.00
H726   H     0.23730   0.08864   0.24243   0.00000  Uiso   1.00
H727   H     0.18433   0.93592   0.60153   0.00000  Uiso   1.00
O728   O     0.67552   0.20515   0.53145   0.00000  Uiso   1.00
O729   O     0.35959   0.15163   0.22221   0.00000  Uiso   1.00
O730   O     0.29010   0.95126   0.69335   0.00000  Uiso   1.00
N731   N     0.83357   0.20333   0.53978   0.00000  Uiso   1.00
N732   N     0.32104   0.16519   0.31940   0.00000  Uiso   1.00
N733   N     0.27154   0.02241   0.65512   0.00000  Uiso   1.00
N734   N     0.76626   0.14807   0.49495   0.00000  Uiso   1.00
N735   N     0.25373   0.10993   0.27457   0.00000  Uiso   1.00
N736   N     0.20423   0.96715   0.61030   0.00000  Uiso   1.00
