data_job_02437
_audit_creation_date              2018-12-19
_audit_creation_method            'Materials Studio'
_symmetry_space_group_name_H-M    'P1'
_symmetry_Int_Tables_number       1
_symmetry_cell_setting            triclinic
loop_
_symmetry_equiv_pos_as_xyz
  x,y,z
_cell_length_a                    37.7911
_cell_length_b                    40.8977
_cell_length_c                    6.9916
_cell_angle_alpha                 90.0000
_cell_angle_beta                  90.0000
_cell_angle_gamma                 90.0000
loop_
_atom_site_label
_atom_site_type_symbol
_atom_site_fract_x
_atom_site_fract_y
_atom_site_fract_z
_atom_site_U_iso_or_equiv
_atom_site_adp_type
_atom_site_occupancy
C1     C     0.20277   0.60772   0.54548   0.00000  Uiso   1.00
C2     C     0.17616   0.62512   0.41694   0.00000  Uiso   1.00
C3     C     0.14565   0.64088   0.47779   0.00000  Uiso   1.00
C4     C     0.12477   0.65532   0.33792   0.00000  Uiso   1.00
C5     C     0.08203   0.68252   0.16779   0.00000  Uiso   1.00
C6     C     0.20541   0.57282   0.47005   0.00000  Uiso   1.00
C7     C     0.19949   0.54460   0.57557   0.00000  Uiso   1.00
C8     C     0.20323   0.51500   0.48040   0.00000  Uiso   1.00
C9     C     0.20591   0.46100   0.39278   0.00000  Uiso   1.00
C10    C     0.23851   0.62358   0.50504   0.00000  Uiso   1.00
C11    C     0.26044   0.63803   0.63997   0.00000  Uiso   1.00
C12    C     0.29206   0.65117   0.57426   0.00000  Uiso   1.00
C13    C     0.34615   0.67598   0.54095   0.00000  Uiso   1.00
C14    C     0.21995   0.60533   0.18886   0.00000  Uiso   1.00
C15    C     0.18549   0.62382   0.22324   0.00000  Uiso   1.00
C16    C     0.16466   0.63824   0.08323   0.00000  Uiso   1.00
C17    C     0.13412   0.65402   0.14387   0.00000  Uiso   1.00
C18    C     0.21474   0.57152   0.27636   0.00000  Uiso   1.00
C19    C     0.21849   0.54196   0.18102   0.00000  Uiso   1.00
C20    C     0.21258   0.51370   0.28635   0.00000  Uiso   1.00
C21    C     0.24785   0.62228   0.31134   0.00000  Uiso   1.00
C22    C     0.27944   0.63539   0.24541   0.00000  Uiso   1.00
C23    C     0.30141   0.64987   0.38021   0.00000  Uiso   1.00
H24    H     0.19551   0.60872   0.69628   0.00000  Uiso   1.00
H25    H     0.13844   0.64187   0.62771   0.00000  Uiso   1.00
H26    H     0.19227   0.54561   0.72547   0.00000  Uiso   1.00
H27    H     0.25321   0.63903   0.78985   0.00000  Uiso   1.00
H28    H     0.07927   0.67805   0.46625   0.00000  Uiso   1.00
H29    H     0.19280   0.47506   0.67241   0.00000  Uiso   1.00
H30    H     0.32130   0.67206   0.80818   0.00000  Uiso   1.00
H31    H     0.22721   0.60432   0.03805   0.00000  Uiso   1.00
H32    H     0.17188   0.63723   0.93335   0.00000  Uiso   1.00
H33    H     0.22571   0.54097   0.03112   0.00000  Uiso   1.00
H34    H     0.28665   0.63439   0.09550   0.00000  Uiso   1.00
H35    H     0.10642   0.67428   0.90268   0.00000  Uiso   1.00
H36    H     0.21994   0.47129   0.10885   0.00000  Uiso   1.00
H37    H     0.34844   0.66829   0.24462   0.00000  Uiso   1.00
O38    O     0.05587   0.69788   0.12747   0.00000  Uiso   1.00
O39    O     0.20481   0.43158   0.39796   0.00000  Uiso   1.00
O40    O     0.37340   0.69003   0.57608   0.00000  Uiso   1.00
N41    N     0.09326   0.67265   0.34799   0.00000  Uiso   1.00
N42    N     0.19939   0.48287   0.54073   0.00000  Uiso   1.00
N43    N     0.31954   0.66704   0.66767   0.00000  Uiso   1.00
N44    N     0.10786   0.67062   0.04474   0.00000  Uiso   1.00
N45    N     0.21399   0.48084   0.23748   0.00000  Uiso   1.00
N46    N     0.33414   0.66501   0.36442   0.00000  Uiso   1.00
C47    C     0.20277   0.10772   0.04548   0.00000  Uiso   1.00
C48    C     0.17616   0.12512   0.91694   0.00000  Uiso   1.00
C49    C     0.14565   0.14088   0.97779   0.00000  Uiso   1.00
C50    C     0.12477   0.15532   0.83792   0.00000  Uiso   1.00
C51    C     0.08203   0.18252   0.66779   0.00000  Uiso   1.00
C52    C     0.20541   0.07282   0.97005   0.00000  Uiso   1.00
C53    C     0.19949   0.04460   0.07557   0.00000  Uiso   1.00
C54    C     0.20323   0.01500   0.98040   0.00000  Uiso   1.00
C55    C     0.20591   0.96100   0.89278   0.00000  Uiso   1.00
C56    C     0.23851   0.12358   0.00504   0.00000  Uiso   1.00
C57    C     0.26044   0.13803   0.13997   0.00000  Uiso   1.00
C58    C     0.29206   0.15117   0.07426   0.00000  Uiso   1.00
C59    C     0.34615   0.17598   0.04095   0.00000  Uiso   1.00
C60    C     0.21995   0.10533   0.68886   0.00000  Uiso   1.00
C61    C     0.18549   0.12382   0.72324   0.00000  Uiso   1.00
C62    C     0.16466   0.13824   0.58323   0.00000  Uiso   1.00
C63    C     0.13412   0.15402   0.64387   0.00000  Uiso   1.00
C64    C     0.21474   0.07152   0.77636   0.00000  Uiso   1.00
C65    C     0.21849   0.04196   0.68102   0.00000  Uiso   1.00
C66    C     0.21258   0.01370   0.78635   0.00000  Uiso   1.00
C67    C     0.24785   0.12228   0.81134   0.00000  Uiso   1.00
C68    C     0.27944   0.13539   0.74541   0.00000  Uiso   1.00
C69    C     0.30141   0.14987   0.88021   0.00000  Uiso   1.00
H70    H     0.19551   0.10872   0.19628   0.00000  Uiso   1.00
H71    H     0.13844   0.14187   0.12771   0.00000  Uiso   1.00
H72    H     0.19227   0.04561   0.22547   0.00000  Uiso   1.00
H73    H     0.25321   0.13903   0.28985   0.00000  Uiso   1.00
H74    H     0.07927   0.17805   0.96625   0.00000  Uiso   1.00
H75    H     0.19280   0.97506   0.17241   0.00000  Uiso   1.00
H76    H     0.32130   0.17206   0.30818   0.00000  Uiso   1.00
H77    H     0.22721   0.10432   0.53805   0.00000  Uiso   1.00
H78    H     0.17188   0.13723   0.43335   0.00000  Uiso   1.00
H79    H     0.22571   0.04097   0.53112   0.00000  Uiso   1.00
H80    H     0.28665   0.13439   0.59550   0.00000  Uiso   1.00
H81    H     0.10642   0.17428   0.40268   0.00000  Uiso   1.00
H82    H     0.21994   0.97129   0.60885   0.00000  Uiso   1.00
H83    H     0.34844   0.16829   0.74462   0.00000  Uiso   1.00
O84    O     0.05587   0.19788   0.62747   0.00000  Uiso   1.00
O85    O     0.20481   0.93158   0.89796   0.00000  Uiso   1.00
O86    O     0.37340   0.19003   0.07608   0.00000  Uiso   1.00
N87    N     0.09326   0.17265   0.84799   0.00000  Uiso   1.00
N88    N     0.19939   0.98287   0.04073   0.00000  Uiso   1.00
N89    N     0.31954   0.16704   0.16767   0.00000  Uiso   1.00
N90    N     0.10786   0.17062   0.54474   0.00000  Uiso   1.00
N91    N     0.21399   0.98084   0.73748   0.00000  Uiso   1.00
N92    N     0.33414   0.16501   0.86442   0.00000  Uiso   1.00
C93    C     0.70277   0.60772   0.04548   0.00000  Uiso   1.00
C94    C     0.67616   0.62512   0.91694   0.00000  Uiso   1.00
C95    C     0.64565   0.64088   0.97779   0.00000  Uiso   1.00
C96    C     0.62477   0.65532   0.83792   0.00000  Uiso   1.00
C97    C     0.58203   0.68252   0.66779   0.00000  Uiso   1.00
C98    C     0.70541   0.57282   0.97005   0.00000  Uiso   1.00
C99    C     0.69949   0.54460   0.07557   0.00000  Uiso   1.00
C100   C     0.70323   0.51500   0.98040   0.00000  Uiso   1.00
C101   C     0.70591   0.46100   0.89278   0.00000  Uiso   1.00
C102   C     0.73851   0.62358   0.00504   0.00000  Uiso   1.00
C103   C     0.76044   0.63803   0.13997   0.00000  Uiso   1.00
C104   C     0.79206   0.65117   0.07426   0.00000  Uiso   1.00
C105   C     0.84615   0.67598   0.04095   0.00000  Uiso   1.00
C106   C     0.71995   0.60533   0.68886   0.00000  Uiso   1.00
C107   C     0.68549   0.62382   0.72324   0.00000  Uiso   1.00
C108   C     0.66466   0.63824   0.58323   0.00000  Uiso   1.00
C109   C     0.63412   0.65402   0.64387   0.00000  Uiso   1.00
C110   C     0.71474   0.57152   0.77636   0.00000  Uiso   1.00
C111   C     0.71849   0.54196   0.68102   0.00000  Uiso   1.00
C112   C     0.71258   0.51370   0.78635   0.00000  Uiso   1.00
C113   C     0.74785   0.62228   0.81134   0.00000  Uiso   1.00
C114   C     0.77944   0.63539   0.74541   0.00000  Uiso   1.00
C115   C     0.80141   0.64987   0.88021   0.00000  Uiso   1.00
H116   H     0.69551   0.60872   0.19628   0.00000  Uiso   1.00
H117   H     0.63844   0.64187   0.12771   0.00000  Uiso   1.00
H118   H     0.69227   0.54561   0.22547   0.00000  Uiso   1.00
H119   H     0.75321   0.63903   0.28985   0.00000  Uiso   1.00
H120   H     0.57927   0.67805   0.96625   0.00000  Uiso   1.00
H121   H     0.69280   0.47506   0.17241   0.00000  Uiso   1.00
H122   H     0.82130   0.67206   0.30818   0.00000  Uiso   1.00
H123   H     0.72721   0.60432   0.53805   0.00000  Uiso   1.00
H124   H     0.67188   0.63723   0.43335   0.00000  Uiso   1.00
H125   H     0.72571   0.54097   0.53112   0.00000  Uiso   1.00
H126   H     0.78665   0.63439   0.59550   0.00000  Uiso   1.00
H127   H     0.60642   0.67428   0.40268   0.00000  Uiso   1.00
H128   H     0.71994   0.47129   0.60885   0.00000  Uiso   1.00
H129   H     0.84844   0.66829   0.74462   0.00000  Uiso   1.00
O130   O     0.55587   0.69788   0.62747   0.00000  Uiso   1.00
O131   O     0.70481   0.43158   0.89796   0.00000  Uiso   1.00
O132   O     0.87340   0.69003   0.07608   0.00000  Uiso   1.00
N133   N     0.59326   0.67265   0.84799   0.00000  Uiso   1.00
N134   N     0.69939   0.48287   0.04073   0.00000  Uiso   1.00
N135   N     0.81954   0.66704   0.16767   0.00000  Uiso   1.00
N136   N     0.60786   0.67062   0.54474   0.00000  Uiso   1.00
N137   N     0.71399   0.48084   0.73748   0.00000  Uiso   1.00
N138   N     0.83414   0.66501   0.86442   0.00000  Uiso   1.00
C139   C     0.70277   0.10772   0.54548   0.00000  Uiso   1.00
C140   C     0.67616   0.12512   0.41694   0.00000  Uiso   1.00
C141   C     0.64565   0.14088   0.47779   0.00000  Uiso   1.00
C142   C     0.62477   0.15532   0.33792   0.00000  Uiso   1.00
C143   C     0.58203   0.18252   0.16779   0.00000  Uiso   1.00
C144   C     0.70541   0.07282   0.47005   0.00000  Uiso   1.00
C145   C     0.69949   0.04460   0.57557   0.00000  Uiso   1.00
C146   C     0.70323   0.01500   0.48040   0.00000  Uiso   1.00
C147   C     0.70591   0.96100   0.39278   0.00000  Uiso   1.00
C148   C     0.73851   0.12358   0.50504   0.00000  Uiso   1.00
C149   C     0.76044   0.13803   0.63997   0.00000  Uiso   1.00
C150   C     0.79206   0.15117   0.57426   0.00000  Uiso   1.00
C151   C     0.84615   0.17598   0.54095   0.00000  Uiso   1.00
C152   C     0.71995   0.10533   0.18886   0.00000  Uiso   1.00
C153   C     0.68549   0.12382   0.22324   0.00000  Uiso   1.00
C154   C     0.66466   0.13824   0.08323   0.00000  Uiso   1.00
C155   C     0.63412   0.15402   0.14387   0.00000  Uiso   1.00
C156   C     0.71474   0.07152   0.27636   0.00000  Uiso   1.00
C157   C     0.71849   0.04196   0.18102   0.00000  Uiso   1.00
C158   C     0.71258   0.01370   0.28635   0.00000  Uiso   1.00
C159   C     0.74785   0.12228   0.31134   0.00000  Uiso   1.00
C160   C     0.77944   0.13539   0.24541   0.00000  Uiso   1.00
C161   C     0.80141   0.14987   0.38021   0.00000  Uiso   1.00
H162   H     0.69551   0.10872   0.69628   0.00000  Uiso   1.00
H163   H     0.63844   0.14187   0.62771   0.00000  Uiso   1.00
H164   H     0.69227   0.04561   0.72547   0.00000  Uiso   1.00
H165   H     0.75321   0.13903   0.78985   0.00000  Uiso   1.00
H166   H     0.57927   0.17805   0.46625   0.00000  Uiso   1.00
H167   H     0.69280   0.97506   0.67241   0.00000  Uiso   1.00
H168   H     0.82130   0.17206   0.80818   0.00000  Uiso   1.00
H169   H     0.72721   0.10432   0.03805   0.00000  Uiso   1.00
H170   H     0.67188   0.13723   0.93335   0.00000  Uiso   1.00
H171   H     0.72571   0.04097   0.03112   0.00000  Uiso   1.00
H172   H     0.78665   0.13439   0.09550   0.00000  Uiso   1.00
H173   H     0.60642   0.17428   0.90268   0.00000  Uiso   1.00
H174   H     0.71994   0.97129   0.10885   0.00000  Uiso   1.00
H175   H     0.84844   0.16829   0.24462   0.00000  Uiso   1.00
O176   O     0.55587   0.19788   0.12747   0.00000  Uiso   1.00
O177   O     0.70481   0.93158   0.39796   0.00000  Uiso   1.00
O178   O     0.87340   0.19003   0.57608   0.00000  Uiso   1.00
N179   N     0.59326   0.17265   0.34799   0.00000  Uiso   1.00
N180   N     0.69939   0.98287   0.54073   0.00000  Uiso   1.00
N181   N     0.81954   0.16704   0.66767   0.00000  Uiso   1.00
N182   N     0.60786   0.17062   0.04474   0.00000  Uiso   1.00
N183   N     0.71399   0.98084   0.23748   0.00000  Uiso   1.00
N184   N     0.83414   0.16501   0.36442   0.00000  Uiso   1.00
C185   C     0.79723   0.39228   0.54548   0.00000  Uiso   1.00
C186   C     0.82384   0.37488   0.41694   0.00000  Uiso   1.00
C187   C     0.85435   0.35912   0.47779   0.00000  Uiso   1.00
C188   C     0.87523   0.34468   0.33792   0.00000  Uiso   1.00
C189   C     0.91797   0.31748   0.16779   0.00000  Uiso   1.00
C190   C     0.79459   0.42718   0.47005   0.00000  Uiso   1.00
C191   C     0.80051   0.45540   0.57557   0.00000  Uiso   1.00
C192   C     0.79677   0.48500   0.48040   0.00000  Uiso   1.00
C193   C     0.79409   0.53900   0.39278   0.00000  Uiso   1.00
C194   C     0.76149   0.37642   0.50504   0.00000  Uiso   1.00
C195   C     0.73956   0.36197   0.63997   0.00000  Uiso   1.00
C196   C     0.70794   0.34883   0.57426   0.00000  Uiso   1.00
C197   C     0.65385   0.32402   0.54095   0.00000  Uiso   1.00
C198   C     0.78005   0.39467   0.18886   0.00000  Uiso   1.00
C199   C     0.81451   0.37618   0.22324   0.00000  Uiso   1.00
C200   C     0.83534   0.36176   0.08323   0.00000  Uiso   1.00
C201   C     0.86588   0.34598   0.14387   0.00000  Uiso   1.00
C202   C     0.78526   0.42848   0.27636   0.00000  Uiso   1.00
C203   C     0.78151   0.45804   0.18102   0.00000  Uiso   1.00
C204   C     0.78742   0.48630   0.28635   0.00000  Uiso   1.00
C205   C     0.75215   0.37772   0.31134   0.00000  Uiso   1.00
C206   C     0.72056   0.36461   0.24541   0.00000  Uiso   1.00
C207   C     0.69859   0.35013   0.38021   0.00000  Uiso   1.00
H208   H     0.80449   0.39128   0.69628   0.00000  Uiso   1.00
H209   H     0.86156   0.35813   0.62771   0.00000  Uiso   1.00
H210   H     0.80773   0.45439   0.72547   0.00000  Uiso   1.00
H211   H     0.74679   0.36097   0.78985   0.00000  Uiso   1.00
H212   H     0.92073   0.32195   0.46625   0.00000  Uiso   1.00
H213   H     0.80720   0.52494   0.67241   0.00000  Uiso   1.00
H214   H     0.67870   0.32794   0.80818   0.00000  Uiso   1.00
H215   H     0.77279   0.39568   0.03805   0.00000  Uiso   1.00
H216   H     0.82812   0.36277   0.93335   0.00000  Uiso   1.00
H217   H     0.77429   0.45903   0.03112   0.00000  Uiso   1.00
H218   H     0.71335   0.36561   0.09550   0.00000  Uiso   1.00
H219   H     0.89358   0.32572   0.90268   0.00000  Uiso   1.00
H220   H     0.78006   0.52871   0.10885   0.00000  Uiso   1.00
H221   H     0.65156   0.33171   0.24462   0.00000  Uiso   1.00
O222   O     0.94413   0.30212   0.12747   0.00000  Uiso   1.00
O223   O     0.79519   0.56842   0.39796   0.00000  Uiso   1.00
O224   O     0.62660   0.30997   0.57608   0.00000  Uiso   1.00
N225   N     0.90674   0.32735   0.34799   0.00000  Uiso   1.00
N226   N     0.80061   0.51713   0.54073   0.00000  Uiso   1.00
N227   N     0.68046   0.33296   0.66767   0.00000  Uiso   1.00
N228   N     0.89214   0.32938   0.04474   0.00000  Uiso   1.00
N229   N     0.78601   0.51916   0.23748   0.00000  Uiso   1.00
N230   N     0.66586   0.33499   0.36442   0.00000  Uiso   1.00
C231   C     0.79723   0.89228   0.04548   0.00000  Uiso   1.00
C232   C     0.82384   0.87488   0.91694   0.00000  Uiso   1.00
C233   C     0.85435   0.85912   0.97779   0.00000  Uiso   1.00
C234   C     0.87523   0.84468   0.83792   0.00000  Uiso   1.00
C235   C     0.91797   0.81748   0.66779   0.00000  Uiso   1.00
C236   C     0.79459   0.92718   0.97005   0.00000  Uiso   1.00
C237   C     0.80051   0.95540   0.07557   0.00000  Uiso   1.00
C238   C     0.79677   0.98500   0.98040   0.00000  Uiso   1.00
C239   C     0.79409   0.03900   0.89278   0.00000  Uiso   1.00
C240   C     0.76149   0.87642   0.00504   0.00000  Uiso   1.00
C241   C     0.73956   0.86197   0.13997   0.00000  Uiso   1.00
C242   C     0.70794   0.84883   0.07426   0.00000  Uiso   1.00
C243   C     0.65385   0.82402   0.04095   0.00000  Uiso   1.00
C244   C     0.78005   0.89467   0.68886   0.00000  Uiso   1.00
C245   C     0.81451   0.87618   0.72324   0.00000  Uiso   1.00
C246   C     0.83534   0.86176   0.58323   0.00000  Uiso   1.00
C247   C     0.86588   0.84598   0.64387   0.00000  Uiso   1.00
C248   C     0.78526   0.92848   0.77636   0.00000  Uiso   1.00
C249   C     0.78151   0.95804   0.68102   0.00000  Uiso   1.00
C250   C     0.78742   0.98630   0.78635   0.00000  Uiso   1.00
C251   C     0.75215   0.87772   0.81134   0.00000  Uiso   1.00
C252   C     0.72056   0.86461   0.74541   0.00000  Uiso   1.00
C253   C     0.69859   0.85013   0.88021   0.00000  Uiso   1.00
H254   H     0.80449   0.89128   0.19628   0.00000  Uiso   1.00
H255   H     0.86156   0.85813   0.12771   0.00000  Uiso   1.00
H256   H     0.80773   0.95439   0.22547   0.00000  Uiso   1.00
H257   H     0.74679   0.86097   0.28985   0.00000  Uiso   1.00
H258   H     0.92073   0.82195   0.96625   0.00000  Uiso   1.00
H259   H     0.80720   0.02494   0.17241   0.00000  Uiso   1.00
H260   H     0.67870   0.82794   0.30818   0.00000  Uiso   1.00
H261   H     0.77279   0.89568   0.53805   0.00000  Uiso   1.00
H262   H     0.82812   0.86277   0.43335   0.00000  Uiso   1.00
H263   H     0.77429   0.95903   0.53112   0.00000  Uiso   1.00
H264   H     0.71335   0.86561   0.59550   0.00000  Uiso   1.00
H265   H     0.89358   0.82572   0.40268   0.00000  Uiso   1.00
H266   H     0.78006   0.02871   0.60885   0.00000  Uiso   1.00
H267   H     0.65156   0.83171   0.74462   0.00000  Uiso   1.00
O268   O     0.94413   0.80212   0.62747   0.00000  Uiso   1.00
O269   O     0.79519   0.06842   0.89796   0.00000  Uiso   1.00
O270   O     0.62660   0.80997   0.07608   0.00000  Uiso   1.00
N271   N     0.90674   0.82735   0.84799   0.00000  Uiso   1.00
N272   N     0.80061   0.01713   0.04073   0.00000  Uiso   1.00
N273   N     0.68046   0.83296   0.16767   0.00000  Uiso   1.00
N274   N     0.89214   0.82938   0.54474   0.00000  Uiso   1.00
N275   N     0.78601   0.01916   0.73748   0.00000  Uiso   1.00
N276   N     0.66586   0.83499   0.86442   0.00000  Uiso   1.00
C277   C     0.29723   0.39228   0.04548   0.00000  Uiso   1.00
C278   C     0.32384   0.37488   0.91694   0.00000  Uiso   1.00
C279   C     0.35435   0.35912   0.97779   0.00000  Uiso   1.00
C280   C     0.37523   0.34468   0.83792   0.00000  Uiso   1.00
C281   C     0.41797   0.31748   0.66779   0.00000  Uiso   1.00
C282   C     0.29459   0.42718   0.97005   0.00000  Uiso   1.00
C283   C     0.30051   0.45540   0.07557   0.00000  Uiso   1.00
C284   C     0.29677   0.48500   0.98040   0.00000  Uiso   1.00
C285   C     0.29409   0.53900   0.89278   0.00000  Uiso   1.00
C286   C     0.26149   0.37642   0.00504   0.00000  Uiso   1.00
C287   C     0.23956   0.36197   0.13997   0.00000  Uiso   1.00
C288   C     0.20794   0.34883   0.07426   0.00000  Uiso   1.00
C289   C     0.15385   0.32402   0.04095   0.00000  Uiso   1.00
C290   C     0.28005   0.39467   0.68886   0.00000  Uiso   1.00
C291   C     0.31451   0.37618   0.72324   0.00000  Uiso   1.00
C292   C     0.33534   0.36176   0.58323   0.00000  Uiso   1.00
C293   C     0.36588   0.34598   0.64387   0.00000  Uiso   1.00
C294   C     0.28526   0.42848   0.77636   0.00000  Uiso   1.00
C295   C     0.28151   0.45804   0.68102   0.00000  Uiso   1.00
C296   C     0.28742   0.48630   0.78635   0.00000  Uiso   1.00
C297   C     0.25215   0.37772   0.81134   0.00000  Uiso   1.00
C298   C     0.22056   0.36461   0.74541   0.00000  Uiso   1.00
C299   C     0.19859   0.35013   0.88021   0.00000  Uiso   1.00
H300   H     0.30449   0.39128   0.19628   0.00000  Uiso   1.00
H301   H     0.36156   0.35813   0.12771   0.00000  Uiso   1.00
H302   H     0.30773   0.45439   0.22547   0.00000  Uiso   1.00
H303   H     0.24679   0.36097   0.28985   0.00000  Uiso   1.00
H304   H     0.42073   0.32195   0.96625   0.00000  Uiso   1.00
H305   H     0.30720   0.52494   0.17241   0.00000  Uiso   1.00
H306   H     0.17870   0.32794   0.30818   0.00000  Uiso   1.00
H307   H     0.27279   0.39568   0.53805   0.00000  Uiso   1.00
H308   H     0.32812   0.36277   0.43335   0.00000  Uiso   1.00
H309   H     0.27429   0.45903   0.53112   0.00000  Uiso   1.00
H310   H     0.21335   0.36561   0.59550   0.00000  Uiso   1.00
H311   H     0.39358   0.32572   0.40268   0.00000  Uiso   1.00
H312   H     0.28006   0.52871   0.60885   0.00000  Uiso   1.00
H313   H     0.15156   0.33171   0.74462   0.00000  Uiso   1.00
O314   O     0.44413   0.30212   0.62747   0.00000  Uiso   1.00
O315   O     0.29519   0.56842   0.89796   0.00000  Uiso   1.00
O316   O     0.12660   0.30997   0.07608   0.00000  Uiso   1.00
N317   N     0.40674   0.32735   0.84799   0.00000  Uiso   1.00
N318   N     0.30061   0.51713   0.04073   0.00000  Uiso   1.00
N319   N     0.18046   0.33296   0.16767   0.00000  Uiso   1.00
N320   N     0.39214   0.32938   0.54474   0.00000  Uiso   1.00
N321   N     0.28601   0.51916   0.73748   0.00000  Uiso   1.00
N322   N     0.16586   0.33499   0.86442   0.00000  Uiso   1.00
C323   C     0.29723   0.89228   0.54548   0.00000  Uiso   1.00
C324   C     0.32384   0.87488   0.41694   0.00000  Uiso   1.00
C325   C     0.35435   0.85912   0.47779   0.00000  Uiso   1.00
C326   C     0.37523   0.84468   0.33792   0.00000  Uiso   1.00
C327   C     0.41797   0.81748   0.16779   0.00000  Uiso   1.00
C328   C     0.29459   0.92718   0.47005   0.00000  Uiso   1.00
C329   C     0.30051   0.95540   0.57557   0.00000  Uiso   1.00
C330   C     0.29677   0.98500   0.48040   0.00000  Uiso   1.00
C331   C     0.29409   0.03900   0.39278   0.00000  Uiso   1.00
C332   C     0.26149   0.87642   0.50504   0.00000  Uiso   1.00
C333   C     0.23956   0.86197   0.63997   0.00000  Uiso   1.00
C334   C     0.20794   0.84883   0.57426   0.00000  Uiso   1.00
C335   C     0.15385   0.82402   0.54095   0.00000  Uiso   1.00
C336   C     0.28005   0.89467   0.18886   0.00000  Uiso   1.00
C337   C     0.31451   0.87618   0.22324   0.00000  Uiso   1.00
C338   C     0.33534   0.86176   0.08323   0.00000  Uiso   1.00
C339   C     0.36588   0.84598   0.14387   0.00000  Uiso   1.00
C340   C     0.28526   0.92848   0.27636   0.00000  Uiso   1.00
C341   C     0.28151   0.95804   0.18102   0.00000  Uiso   1.00
C342   C     0.28742   0.98630   0.28635   0.00000  Uiso   1.00
C343   C     0.25215   0.87772   0.31134   0.00000  Uiso   1.00
C344   C     0.22056   0.86461   0.24541   0.00000  Uiso   1.00
C345   C     0.19859   0.85013   0.38021   0.00000  Uiso   1.00
H346   H     0.30449   0.89128   0.69628   0.00000  Uiso   1.00
H347   H     0.36156   0.85813   0.62771   0.00000  Uiso   1.00
H348   H     0.30773   0.95439   0.72547   0.00000  Uiso   1.00
H349   H     0.24679   0.86097   0.78985   0.00000  Uiso   1.00
H350   H     0.42073   0.82195   0.46625   0.00000  Uiso   1.00
H351   H     0.30720   0.02494   0.67241   0.00000  Uiso   1.00
H352   H     0.17870   0.82794   0.80818   0.00000  Uiso   1.00
H353   H     0.27279   0.89568   0.03805   0.00000  Uiso   1.00
H354   H     0.32812   0.86277   0.93335   0.00000  Uiso   1.00
H355   H     0.27429   0.95903   0.03112   0.00000  Uiso   1.00
H356   H     0.21335   0.86561   0.09550   0.00000  Uiso   1.00
H357   H     0.39358   0.82572   0.90268   0.00000  Uiso   1.00
H358   H     0.28006   0.02871   0.10885   0.00000  Uiso   1.00
H359   H     0.15156   0.83171   0.24462   0.00000  Uiso   1.00
O360   O     0.44413   0.80212   0.12747   0.00000  Uiso   1.00
O361   O     0.29519   0.06842   0.39796   0.00000  Uiso   1.00
O362   O     0.12660   0.80997   0.57608   0.00000  Uiso   1.00
N363   N     0.40674   0.82735   0.34799   0.00000  Uiso   1.00
N364   N     0.30061   0.01713   0.54073   0.00000  Uiso   1.00
N365   N     0.18046   0.83296   0.66767   0.00000  Uiso   1.00
N366   N     0.39214   0.82938   0.04474   0.00000  Uiso   1.00
N367   N     0.28601   0.01916   0.23748   0.00000  Uiso   1.00
N368   N     0.16586   0.83499   0.36442   0.00000  Uiso   1.00
C369   C     0.45277   0.64228   0.79548   0.00000  Uiso   1.00
C370   C     0.42616   0.62488   0.66694   0.00000  Uiso   1.00
C371   C     0.39565   0.60912   0.72779   0.00000  Uiso   1.00
C372   C     0.37477   0.59468   0.58792   0.00000  Uiso   1.00
C373   C     0.33203   0.56748   0.41779   0.00000  Uiso   1.00
C374   C     0.45541   0.67718   0.72005   0.00000  Uiso   1.00
C375   C     0.44949   0.70540   0.82557   0.00000  Uiso   1.00
C376   C     0.45323   0.73500   0.73040   0.00000  Uiso   1.00
C377   C     0.45591   0.78900   0.64278   0.00000  Uiso   1.00
C378   C     0.48851   0.62642   0.75504   0.00000  Uiso   1.00
C379   C     0.51044   0.61197   0.88997   0.00000  Uiso   1.00
C380   C     0.54206   0.59883   0.82426   0.00000  Uiso   1.00
C381   C     0.59615   0.57402   0.79095   0.00000  Uiso   1.00
C382   C     0.46995   0.64467   0.43886   0.00000  Uiso   1.00
C383   C     0.43549   0.62618   0.47324   0.00000  Uiso   1.00
C384   C     0.41466   0.61176   0.33323   0.00000  Uiso   1.00
C385   C     0.38412   0.59598   0.39387   0.00000  Uiso   1.00
C386   C     0.46474   0.67848   0.52636   0.00000  Uiso   1.00
C387   C     0.46849   0.70804   0.43102   0.00000  Uiso   1.00
C388   C     0.46258   0.73630   0.53635   0.00000  Uiso   1.00
C389   C     0.49785   0.62772   0.56134   0.00000  Uiso   1.00
C390   C     0.52944   0.61461   0.49541   0.00000  Uiso   1.00
C391   C     0.55141   0.60013   0.63021   0.00000  Uiso   1.00
H392   H     0.44551   0.64128   0.94628   0.00000  Uiso   1.00
H393   H     0.38844   0.60813   0.87771   0.00000  Uiso   1.00
H394   H     0.44227   0.70439   0.97547   0.00000  Uiso   1.00
H395   H     0.50321   0.61097   0.03985   0.00000  Uiso   1.00
H396   H     0.32927   0.57195   0.71625   0.00000  Uiso   1.00
H397   H     0.44280   0.77494   0.92241   0.00000  Uiso   1.00
H398   H     0.57130   0.57794   0.05818   0.00000  Uiso   1.00
H399   H     0.47721   0.64568   0.28805   0.00000  Uiso   1.00
H400   H     0.42188   0.61277   0.18335   0.00000  Uiso   1.00
H401   H     0.47571   0.70903   0.28112   0.00000  Uiso   1.00
H402   H     0.53665   0.61561   0.34550   0.00000  Uiso   1.00
H403   H     0.35642   0.57572   0.15268   0.00000  Uiso   1.00
H404   H     0.46994   0.77871   0.35885   0.00000  Uiso   1.00
H405   H     0.59844   0.58171   0.49462   0.00000  Uiso   1.00
O406   O     0.30587   0.55212   0.37747   0.00000  Uiso   1.00
O407   O     0.45481   0.81842   0.64796   0.00000  Uiso   1.00
O408   O     0.62340   0.55997   0.82608   0.00000  Uiso   1.00
N409   N     0.34326   0.57735   0.59799   0.00000  Uiso   1.00
N410   N     0.44939   0.76713   0.79073   0.00000  Uiso   1.00
N411   N     0.56954   0.58296   0.91767   0.00000  Uiso   1.00
N412   N     0.35786   0.57938   0.29474   0.00000  Uiso   1.00
N413   N     0.46399   0.76916   0.48748   0.00000  Uiso   1.00
N414   N     0.58414   0.58499   0.61442   0.00000  Uiso   1.00
C415   C     0.45277   0.14228   0.29548   0.00000  Uiso   1.00
C416   C     0.42616   0.12488   0.16694   0.00000  Uiso   1.00
C417   C     0.39565   0.10912   0.22779   0.00000  Uiso   1.00
C418   C     0.37477   0.09468   0.08792   0.00000  Uiso   1.00
C419   C     0.33203   0.06748   0.91779   0.00000  Uiso   1.00
C420   C     0.45541   0.17718   0.22005   0.00000  Uiso   1.00
C421   C     0.44949   0.20540   0.32557   0.00000  Uiso   1.00
C422   C     0.45323   0.23500   0.23040   0.00000  Uiso   1.00
C423   C     0.45591   0.28900   0.14278   0.00000  Uiso   1.00
C424   C     0.48851   0.12642   0.25504   0.00000  Uiso   1.00
C425   C     0.51044   0.11197   0.38997   0.00000  Uiso   1.00
C426   C     0.54206   0.09883   0.32426   0.00000  Uiso   1.00
C427   C     0.59615   0.07402   0.29095   0.00000  Uiso   1.00
C428   C     0.46995   0.14467   0.93886   0.00000  Uiso   1.00
C429   C     0.43549   0.12618   0.97324   0.00000  Uiso   1.00
C430   C     0.41466   0.11176   0.83323   0.00000  Uiso   1.00
C431   C     0.38412   0.09598   0.89387   0.00000  Uiso   1.00
C432   C     0.46474   0.17848   0.02636   0.00000  Uiso   1.00
C433   C     0.46849   0.20804   0.93102   0.00000  Uiso   1.00
C434   C     0.46258   0.23630   0.03635   0.00000  Uiso   1.00
C435   C     0.49785   0.12772   0.06134   0.00000  Uiso   1.00
C436   C     0.52944   0.11461   0.99541   0.00000  Uiso   1.00
C437   C     0.55141   0.10013   0.13021   0.00000  Uiso   1.00
H438   H     0.44551   0.14128   0.44628   0.00000  Uiso   1.00
H439   H     0.38844   0.10813   0.37771   0.00000  Uiso   1.00
H440   H     0.44227   0.20439   0.47547   0.00000  Uiso   1.00
H441   H     0.50321   0.11097   0.53985   0.00000  Uiso   1.00
H442   H     0.32927   0.07195   0.21625   0.00000  Uiso   1.00
H443   H     0.44280   0.27494   0.42241   0.00000  Uiso   1.00
H444   H     0.57130   0.07794   0.55818   0.00000  Uiso   1.00
H445   H     0.47721   0.14568   0.78805   0.00000  Uiso   1.00
H446   H     0.42188   0.11277   0.68335   0.00000  Uiso   1.00
H447   H     0.47571   0.20903   0.78112   0.00000  Uiso   1.00
H448   H     0.53665   0.11561   0.84550   0.00000  Uiso   1.00
H449   H     0.35642   0.07572   0.65268   0.00000  Uiso   1.00
H450   H     0.46994   0.27871   0.85885   0.00000  Uiso   1.00
H451   H     0.59844   0.08171   0.99462   0.00000  Uiso   1.00
O452   O     0.30587   0.05212   0.87747   0.00000  Uiso   1.00
O453   O     0.45481   0.31842   0.14796   0.00000  Uiso   1.00
O454   O     0.62340   0.05997   0.32608   0.00000  Uiso   1.00
N455   N     0.34326   0.07735   0.09799   0.00000  Uiso   1.00
N456   N     0.44939   0.26713   0.29073   0.00000  Uiso   1.00
N457   N     0.56954   0.08296   0.41767   0.00000  Uiso   1.00
N458   N     0.35786   0.07938   0.79474   0.00000  Uiso   1.00
N459   N     0.46399   0.26916   0.98748   0.00000  Uiso   1.00
N460   N     0.58414   0.08499   0.11442   0.00000  Uiso   1.00
C461   C     0.95277   0.64228   0.29548   0.00000  Uiso   1.00
C462   C     0.92616   0.62488   0.16694   0.00000  Uiso   1.00
C463   C     0.89565   0.60912   0.22779   0.00000  Uiso   1.00
C464   C     0.87477   0.59468   0.08792   0.00000  Uiso   1.00
C465   C     0.83203   0.56748   0.91779   0.00000  Uiso   1.00
C466   C     0.95541   0.67718   0.22005   0.00000  Uiso   1.00
C467   C     0.94949   0.70540   0.32557   0.00000  Uiso   1.00
C468   C     0.95323   0.73500   0.23040   0.00000  Uiso   1.00
C469   C     0.95591   0.78900   0.14278   0.00000  Uiso   1.00
C470   C     0.98851   0.62642   0.25504   0.00000  Uiso   1.00
C471   C     0.01044   0.61197   0.38997   0.00000  Uiso   1.00
C472   C     0.04206   0.59883   0.32426   0.00000  Uiso   1.00
C473   C     0.09615   0.57402   0.29095   0.00000  Uiso   1.00
C474   C     0.96995   0.64467   0.93886   0.00000  Uiso   1.00
C475   C     0.93549   0.62618   0.97324   0.00000  Uiso   1.00
C476   C     0.91466   0.61176   0.83323   0.00000  Uiso   1.00
C477   C     0.88412   0.59598   0.89387   0.00000  Uiso   1.00
C478   C     0.96474   0.67848   0.02636   0.00000  Uiso   1.00
C479   C     0.96849   0.70804   0.93102   0.00000  Uiso   1.00
C480   C     0.96258   0.73630   0.03635   0.00000  Uiso   1.00
C481   C     0.99785   0.62772   0.06134   0.00000  Uiso   1.00
C482   C     0.02944   0.61461   0.99541   0.00000  Uiso   1.00
C483   C     0.05141   0.60013   0.13021   0.00000  Uiso   1.00
H484   H     0.94551   0.64128   0.44628   0.00000  Uiso   1.00
H485   H     0.88844   0.60813   0.37771   0.00000  Uiso   1.00
H486   H     0.94227   0.70439   0.47547   0.00000  Uiso   1.00
H487   H     0.00321   0.61097   0.53985   0.00000  Uiso   1.00
H488   H     0.82927   0.57195   0.21625   0.00000  Uiso   1.00
H489   H     0.94280   0.77494   0.42241   0.00000  Uiso   1.00
H490   H     0.07130   0.57794   0.55818   0.00000  Uiso   1.00
H491   H     0.97721   0.64568   0.78805   0.00000  Uiso   1.00
H492   H     0.92188   0.61277   0.68335   0.00000  Uiso   1.00
H493   H     0.97571   0.70903   0.78112   0.00000  Uiso   1.00
H494   H     0.03665   0.61561   0.84550   0.00000  Uiso   1.00
H495   H     0.85642   0.57572   0.65268   0.00000  Uiso   1.00
H496   H     0.96994   0.77871   0.85885   0.00000  Uiso   1.00
H497   H     0.09844   0.58171   0.99462   0.00000  Uiso   1.00
O498   O     0.80587   0.55212   0.87747   0.00000  Uiso   1.00
O499   O     0.95481   0.81842   0.14796   0.00000  Uiso   1.00
O500   O     0.12340   0.55997   0.32608   0.00000  Uiso   1.00
N501   N     0.84326   0.57735   0.09799   0.00000  Uiso   1.00
N502   N     0.94939   0.76713   0.29073   0.00000  Uiso   1.00
N503   N     0.06954   0.58296   0.41767   0.00000  Uiso   1.00
N504   N     0.85786   0.57938   0.79474   0.00000  Uiso   1.00
N505   N     0.96399   0.76916   0.98748   0.00000  Uiso   1.00
N506   N     0.08414   0.58499   0.11442   0.00000  Uiso   1.00
C507   C     0.95277   0.14228   0.79548   0.00000  Uiso   1.00
C508   C     0.92616   0.12488   0.66694   0.00000  Uiso   1.00
C509   C     0.89565   0.10912   0.72779   0.00000  Uiso   1.00
C510   C     0.87477   0.09468   0.58792   0.00000  Uiso   1.00
C511   C     0.83203   0.06748   0.41779   0.00000  Uiso   1.00
C512   C     0.95541   0.17718   0.72005   0.00000  Uiso   1.00
C513   C     0.94949   0.20540   0.82557   0.00000  Uiso   1.00
C514   C     0.95323   0.23500   0.73040   0.00000  Uiso   1.00
C515   C     0.95591   0.28900   0.64278   0.00000  Uiso   1.00
C516   C     0.98851   0.12642   0.75504   0.00000  Uiso   1.00
C517   C     0.01044   0.11197   0.88997   0.00000  Uiso   1.00
C518   C     0.04206   0.09883   0.82426   0.00000  Uiso   1.00
C519   C     0.09615   0.07402   0.79095   0.00000  Uiso   1.00
C520   C     0.96995   0.14467   0.43886   0.00000  Uiso   1.00
C521   C     0.93549   0.12618   0.47324   0.00000  Uiso   1.00
C522   C     0.91466   0.11176   0.33323   0.00000  Uiso   1.00
C523   C     0.88412   0.09598   0.39387   0.00000  Uiso   1.00
C524   C     0.96474   0.17848   0.52636   0.00000  Uiso   1.00
C525   C     0.96849   0.20804   0.43102   0.00000  Uiso   1.00
C526   C     0.96258   0.23630   0.53635   0.00000  Uiso   1.00
C527   C     0.99785   0.12772   0.56134   0.00000  Uiso   1.00
C528   C     0.02944   0.11461   0.49541   0.00000  Uiso   1.00
C529   C     0.05141   0.10013   0.63021   0.00000  Uiso   1.00
H530   H     0.94551   0.14128   0.94628   0.00000  Uiso   1.00
H531   H     0.88844   0.10813   0.87771   0.00000  Uiso   1.00
H532   H     0.94227   0.20439   0.97547   0.00000  Uiso   1.00
H533   H     0.00321   0.11097   0.03985   0.00000  Uiso   1.00
H534   H     0.82927   0.07195   0.71625   0.00000  Uiso   1.00
H535   H     0.94280   0.27494   0.92241   0.00000  Uiso   1.00
H536   H     0.07130   0.07794   0.05818   0.00000  Uiso   1.00
H537   H     0.97721   0.14568   0.28805   0.00000  Uiso   1.00
H538   H     0.92188   0.11277   0.18335   0.00000  Uiso   1.00
H539   H     0.97571   0.20903   0.28112   0.00000  Uiso   1.00
H540   H     0.03665   0.11561   0.34550   0.00000  Uiso   1.00
H541   H     0.85642   0.07572   0.15268   0.00000  Uiso   1.00
H542   H     0.96994   0.27871   0.35885   0.00000  Uiso   1.00
H543   H     0.09844   0.08171   0.49462   0.00000  Uiso   1.00
O544   O     0.80587   0.05212   0.37747   0.00000  Uiso   1.00
O545   O     0.95481   0.31842   0.64796   0.00000  Uiso   1.00
O546   O     0.12340   0.05997   0.82608   0.00000  Uiso   1.00
N547   N     0.84326   0.07735   0.59799   0.00000  Uiso   1.00
N548   N     0.94939   0.26713   0.79073   0.00000  Uiso   1.00
N549   N     0.06954   0.08296   0.91767   0.00000  Uiso   1.00
N550   N     0.85786   0.07938   0.29474   0.00000  Uiso   1.00
N551   N     0.96399   0.26916   0.48748   0.00000  Uiso   1.00
N552   N     0.08414   0.08499   0.61442   0.00000  Uiso   1.00
C553   C     0.04723   0.85772   0.79548   0.00000  Uiso   1.00
C554   C     0.07384   0.87512   0.66694   0.00000  Uiso   1.00
C555   C     0.10435   0.89088   0.72779   0.00000  Uiso   1.00
C556   C     0.12523   0.90532   0.58792   0.00000  Uiso   1.00
C557   C     0.16797   0.93252   0.41779   0.00000  Uiso   1.00
C558   C     0.04459   0.82282   0.72005   0.00000  Uiso   1.00
C559   C     0.05051   0.79460   0.82557   0.00000  Uiso   1.00
C560   C     0.04677   0.76500   0.73040   0.00000  Uiso   1.00
C561   C     0.04409   0.71100   0.64278   0.00000  Uiso   1.00
C562   C     0.01149   0.87358   0.75504   0.00000  Uiso   1.00
C563   C     0.98956   0.88803   0.88997   0.00000  Uiso   1.00
C564   C     0.95794   0.90117   0.82426   0.00000  Uiso   1.00
C565   C     0.90385   0.92598   0.79095   0.00000  Uiso   1.00
C566   C     0.03005   0.85533   0.43886   0.00000  Uiso   1.00
C567   C     0.06451   0.87382   0.47324   0.00000  Uiso   1.00
C568   C     0.08534   0.88824   0.33323   0.00000  Uiso   1.00
C569   C     0.11588   0.90402   0.39387   0.00000  Uiso   1.00
C570   C     0.03526   0.82152   0.52636   0.00000  Uiso   1.00
C571   C     0.03151   0.79196   0.43102   0.00000  Uiso   1.00
C572   C     0.03742   0.76370   0.53635   0.00000  Uiso   1.00
C573   C     0.00215   0.87228   0.56134   0.00000  Uiso   1.00
C574   C     0.97056   0.88539   0.49541   0.00000  Uiso   1.00
C575   C     0.94859   0.89987   0.63021   0.00000  Uiso   1.00
H576   H     0.05449   0.85872   0.94628   0.00000  Uiso   1.00
H577   H     0.11156   0.89187   0.87771   0.00000  Uiso   1.00
H578   H     0.05773   0.79561   0.97547   0.00000  Uiso   1.00
H579   H     0.99679   0.88903   0.03985   0.00000  Uiso   1.00
H580   H     0.17073   0.92805   0.71625   0.00000  Uiso   1.00
H581   H     0.05720   0.72506   0.92241   0.00000  Uiso   1.00
H582   H     0.92870   0.92206   0.05818   0.00000  Uiso   1.00
H583   H     0.02279   0.85432   0.28805   0.00000  Uiso   1.00
H584   H     0.07812   0.88723   0.18335   0.00000  Uiso   1.00
H585   H     0.02429   0.79097   0.28112   0.00000  Uiso   1.00
H586   H     0.96335   0.88439   0.34550   0.00000  Uiso   1.00
H587   H     0.14358   0.92428   0.15268   0.00000  Uiso   1.00
H588   H     0.03006   0.72129   0.35885   0.00000  Uiso   1.00
H589   H     0.90156   0.91829   0.49462   0.00000  Uiso   1.00
O590   O     0.19413   0.94788   0.37747   0.00000  Uiso   1.00
O591   O     0.04519   0.68158   0.64796   0.00000  Uiso   1.00
O592   O     0.87660   0.94003   0.82608   0.00000  Uiso   1.00
N593   N     0.15674   0.92265   0.59799   0.00000  Uiso   1.00
N594   N     0.05061   0.73287   0.79073   0.00000  Uiso   1.00
N595   N     0.93046   0.91704   0.91767   0.00000  Uiso   1.00
N596   N     0.14214   0.92062   0.29474   0.00000  Uiso   1.00
N597   N     0.03601   0.73084   0.48748   0.00000  Uiso   1.00
N598   N     0.91586   0.91501   0.61442   0.00000  Uiso   1.00
C599   C     0.04723   0.35772   0.29548   0.00000  Uiso   1.00
C600   C     0.07384   0.37512   0.16694   0.00000  Uiso   1.00
C601   C     0.10435   0.39088   0.22779   0.00000  Uiso   1.00
C602   C     0.12523   0.40532   0.08792   0.00000  Uiso   1.00
C603   C     0.16797   0.43252   0.91779   0.00000  Uiso   1.00
C604   C     0.04459   0.32282   0.22005   0.00000  Uiso   1.00
C605   C     0.05051   0.29460   0.32557   0.00000  Uiso   1.00
C606   C     0.04677   0.26500   0.23040   0.00000  Uiso   1.00
C607   C     0.04409   0.21100   0.14278   0.00000  Uiso   1.00
C608   C     0.01149   0.37358   0.25504   0.00000  Uiso   1.00
C609   C     0.98956   0.38803   0.38997   0.00000  Uiso   1.00
C610   C     0.95794   0.40117   0.32426   0.00000  Uiso   1.00
C611   C     0.90385   0.42598   0.29095   0.00000  Uiso   1.00
C612   C     0.03005   0.35533   0.93886   0.00000  Uiso   1.00
C613   C     0.06451   0.37382   0.97324   0.00000  Uiso   1.00
C614   C     0.08534   0.38824   0.83323   0.00000  Uiso   1.00
C615   C     0.11588   0.40402   0.89387   0.00000  Uiso   1.00
C616   C     0.03526   0.32152   0.02636   0.00000  Uiso   1.00
C617   C     0.03151   0.29196   0.93102   0.00000  Uiso   1.00
C618   C     0.03742   0.26370   0.03635   0.00000  Uiso   1.00
C619   C     0.00215   0.37228   0.06134   0.00000  Uiso   1.00
C620   C     0.97056   0.38539   0.99541   0.00000  Uiso   1.00
C621   C     0.94859   0.39987   0.13021   0.00000  Uiso   1.00
H622   H     0.05449   0.35872   0.44628   0.00000  Uiso   1.00
H623   H     0.11156   0.39187   0.37771   0.00000  Uiso   1.00
H624   H     0.05773   0.29561   0.47547   0.00000  Uiso   1.00
H625   H     0.99679   0.38903   0.53985   0.00000  Uiso   1.00
H626   H     0.17073   0.42805   0.21625   0.00000  Uiso   1.00
H627   H     0.05720   0.22506   0.42241   0.00000  Uiso   1.00
H628   H     0.92870   0.42206   0.55818   0.00000  Uiso   1.00
H629   H     0.02279   0.35432   0.78805   0.00000  Uiso   1.00
H630   H     0.07812   0.38723   0.68335   0.00000  Uiso   1.00
H631   H     0.02429   0.29097   0.78112   0.00000  Uiso   1.00
H632   H     0.96335   0.38439   0.84550   0.00000  Uiso   1.00
H633   H     0.14358   0.42428   0.65268   0.00000  Uiso   1.00
H634   H     0.03006   0.22129   0.85885   0.00000  Uiso   1.00
H635   H     0.90156   0.41829   0.99462   0.00000  Uiso   1.00
O636   O     0.19413   0.44788   0.87747   0.00000  Uiso   1.00
O637   O     0.04519   0.18158   0.14796   0.00000  Uiso   1.00
O638   O     0.87660   0.44003   0.32608   0.00000  Uiso   1.00
N639   N     0.15674   0.42265   0.09799   0.00000  Uiso   1.00
N640   N     0.05061   0.23287   0.29073   0.00000  Uiso   1.00
N641   N     0.93046   0.41704   0.41767   0.00000  Uiso   1.00
N642   N     0.14214   0.42062   0.79474   0.00000  Uiso   1.00
N643   N     0.03601   0.23084   0.98748   0.00000  Uiso   1.00
N644   N     0.91586   0.41501   0.11442   0.00000  Uiso   1.00
C645   C     0.54723   0.85772   0.29548   0.00000  Uiso   1.00
C646   C     0.57384   0.87512   0.16694   0.00000  Uiso   1.00
C647   C     0.60435   0.89088   0.22779   0.00000  Uiso   1.00
C648   C     0.62523   0.90532   0.08792   0.00000  Uiso   1.00
C649   C     0.66797   0.93252   0.91779   0.00000  Uiso   1.00
C650   C     0.54459   0.82282   0.22005   0.00000  Uiso   1.00
C651   C     0.55051   0.79460   0.32557   0.00000  Uiso   1.00
C652   C     0.54677   0.76500   0.23040   0.00000  Uiso   1.00
C653   C     0.54409   0.71100   0.14278   0.00000  Uiso   1.00
C654   C     0.51149   0.87358   0.25504   0.00000  Uiso   1.00
C655   C     0.48956   0.88803   0.38997   0.00000  Uiso   1.00
C656   C     0.45794   0.90117   0.32426   0.00000  Uiso   1.00
C657   C     0.40385   0.92598   0.29095   0.00000  Uiso   1.00
C658   C     0.53005   0.85533   0.93886   0.00000  Uiso   1.00
C659   C     0.56451   0.87382   0.97324   0.00000  Uiso   1.00
C660   C     0.58534   0.88824   0.83323   0.00000  Uiso   1.00
C661   C     0.61588   0.90402   0.89387   0.00000  Uiso   1.00
C662   C     0.53526   0.82152   0.02636   0.00000  Uiso   1.00
C663   C     0.53151   0.79196   0.93102   0.00000  Uiso   1.00
C664   C     0.53742   0.76370   0.03635   0.00000  Uiso   1.00
C665   C     0.50215   0.87228   0.06134   0.00000  Uiso   1.00
C666   C     0.47056   0.88539   0.99541   0.00000  Uiso   1.00
C667   C     0.44859   0.89987   0.13021   0.00000  Uiso   1.00
H668   H     0.55449   0.85872   0.44628   0.00000  Uiso   1.00
H669   H     0.61156   0.89187   0.37771   0.00000  Uiso   1.00
H670   H     0.55773   0.79561   0.47547   0.00000  Uiso   1.00
H671   H     0.49679   0.88903   0.53985   0.00000  Uiso   1.00
H672   H     0.67073   0.92805   0.21625   0.00000  Uiso   1.00
H673   H     0.55720   0.72506   0.42241   0.00000  Uiso   1.00
H674   H     0.42870   0.92206   0.55818   0.00000  Uiso   1.00
H675   H     0.52279   0.85432   0.78805   0.00000  Uiso   1.00
H676   H     0.57812   0.88723   0.68335   0.00000  Uiso   1.00
H677   H     0.52429   0.79097   0.78112   0.00000  Uiso   1.00
H678   H     0.46335   0.88439   0.84550   0.00000  Uiso   1.00
H679   H     0.64358   0.92428   0.65268   0.00000  Uiso   1.00
H680   H     0.53006   0.72129   0.85885   0.00000  Uiso   1.00
H681   H     0.40156   0.91829   0.99462   0.00000  Uiso   1.00
O682   O     0.69413   0.94788   0.87747   0.00000  Uiso   1.00
O683   O     0.54519   0.68158   0.14796   0.00000  Uiso   1.00
O684   O     0.37660   0.94003   0.32608   0.00000  Uiso   1.00
N685   N     0.65674   0.92265   0.09799   0.00000  Uiso   1.00
N686   N     0.55061   0.73287   0.29073   0.00000  Uiso   1.00
N687   N     0.43046   0.91704   0.41767   0.00000  Uiso   1.00
N688   N     0.64214   0.92062   0.79474   0.00000  Uiso   1.00
N689   N     0.53601   0.73084   0.98748   0.00000  Uiso   1.00
N690   N     0.41586   0.91501   0.11442   0.00000  Uiso   1.00
C691   C     0.54723   0.35772   0.79548   0.00000  Uiso   1.00
C692   C     0.57384   0.37512   0.66694   0.00000  Uiso   1.00
C693   C     0.60435   0.39088   0.72779   0.00000  Uiso   1.00
C694   C     0.62523   0.40532   0.58792   0.00000  Uiso   1.00
C695   C     0.66797   0.43252   0.41779   0.00000  Uiso   1.00
C696   C     0.54459   0.32282   0.72005   0.00000  Uiso   1.00
C697   C     0.55051   0.29460   0.82557   0.00000  Uiso   1.00
C698   C     0.54677   0.26500   0.73040   0.00000  Uiso   1.00
C699   C     0.54409   0.21100   0.64278   0.00000  Uiso   1.00
C700   C     0.51149   0.37358   0.75504   0.00000  Uiso   1.00
C701   C     0.48956   0.38803   0.88997   0.00000  Uiso   1.00
C702   C     0.45794   0.40117   0.82426   0.00000  Uiso   1.00
C703   C     0.40385   0.42598   0.79095   0.00000  Uiso   1.00
C704   C     0.53005   0.35533   0.43886   0.00000  Uiso   1.00
C705   C     0.56451   0.37382   0.47324   0.00000  Uiso   1.00
C706   C     0.58534   0.38824   0.33323   0.00000  Uiso   1.00
C707   C     0.61588   0.40402   0.39387   0.00000  Uiso   1.00
C708   C     0.53526   0.32152   0.52636   0.00000  Uiso   1.00
C709   C     0.53151   0.29196   0.43102   0.00000  Uiso   1.00
C710   C     0.53742   0.26370   0.53635   0.00000  Uiso   1.00
C711   C     0.50215   0.37228   0.56134   0.00000  Uiso   1.00
C712   C     0.47056   0.38539   0.49541   0.00000  Uiso   1.00
C713   C     0.44859   0.39987   0.63021   0.00000  Uiso   1.00
H714   H     0.55449   0.35872   0.94628   0.00000  Uiso   1.00
H715   H     0.61156   0.39187   0.87771   0.00000  Uiso   1.00
H716   H     0.55773   0.29561   0.97547   0.00000  Uiso   1.00
H717   H     0.49679   0.38903   0.03985   0.00000  Uiso   1.00
H718   H     0.67073   0.42805   0.71625   0.00000  Uiso   1.00
H719   H     0.55720   0.22506   0.92241   0.00000  Uiso   1.00
H720   H     0.42870   0.42206   0.05818   0.00000  Uiso   1.00
H721   H     0.52279   0.35432   0.28805   0.00000  Uiso   1.00
H722   H     0.57812   0.38723   0.18335   0.00000  Uiso   1.00
H723   H     0.52429   0.29097   0.28112   0.00000  Uiso   1.00
H724   H     0.46335   0.38439   0.34550   0.00000  Uiso   1.00
H725   H     0.64358   0.42428   0.15268   0.00000  Uiso   1.00
H726   H     0.53006   0.22129   0.35885   0.00000  Uiso   1.00
H727   H     0.40156   0.41829   0.49462   0.00000  Uiso   1.00
O728   O     0.69413   0.44788   0.37747   0.00000  Uiso   1.00
O729   O     0.54519   0.18158   0.64796   0.00000  Uiso   1.00
O730   O     0.37660   0.44003   0.82608   0.00000  Uiso   1.00
N731   N     0.65674   0.42265   0.59799   0.00000  Uiso   1.00
N732   N     0.55061   0.23287   0.79073   0.00000  Uiso   1.00
N733   N     0.43046   0.41704   0.91767   0.00000  Uiso   1.00
N734   N     0.64214   0.42062   0.29474   0.00000  Uiso   1.00
N735   N     0.53601   0.23084   0.48748   0.00000  Uiso   1.00
N736   N     0.41586   0.41501   0.61442   0.00000  Uiso   1.00
