data_job_03561
_audit_creation_date              2018-12-19
_audit_creation_method            'Materials Studio'
_symmetry_space_group_name_H-M    'P1'
_symmetry_Int_Tables_number       1
_symmetry_cell_setting            triclinic
loop_
_symmetry_equiv_pos_as_xyz
  x,y,z
_cell_length_a                    26.4100
_cell_length_b                    24.2523
_cell_length_c                    14.7849
_cell_angle_alpha                 90.0000
_cell_angle_beta                  90.0000
_cell_angle_gamma                 90.0000
loop_
_atom_site_label
_atom_site_type_symbol
_atom_site_fract_x
_atom_site_fract_y
_atom_site_fract_z
_atom_site_U_iso_or_equiv
_atom_site_adp_type
_atom_site_occupancy
C1     C     0.63409   0.40034   0.60507   0.00000  Uiso   1.00
C2     C     0.60598   0.34783   0.63149   0.00000  Uiso   1.00
C3     C     0.56211   0.34529   0.68299   0.00000  Uiso   1.00
C4     C     0.54224   0.29329   0.69976   0.00000  Uiso   1.00
C5     C     0.49507   0.21902   0.74593   0.00000  Uiso   1.00
C6     C     0.68817   0.39319   0.63926   0.00000  Uiso   1.00
C7     C     0.71341   0.42880   0.69729   0.00000  Uiso   1.00
C8     C     0.76273   0.41498   0.72059   0.00000  Uiso   1.00
C9     C     0.84318   0.41115   0.77877   0.00000  Uiso   1.00
C10    C     0.63740   0.39978   0.50211   0.00000  Uiso   1.00
C11    C     0.61997   0.44095   0.44481   0.00000  Uiso   1.00
C12    C     0.62656   0.43268   0.35263   0.00000  Uiso   1.00
C13    C     0.62819   0.43910   0.19786   0.00000  Uiso   1.00
C14    C     0.67681   0.31248   0.54326   0.00000  Uiso   1.00
C15    C     0.62918   0.30011   0.59792   0.00000  Uiso   1.00
C16    C     0.60937   0.24810   0.61460   0.00000  Uiso   1.00
C17    C     0.56548   0.24548   0.66612   0.00000  Uiso   1.00
C18    C     0.71137   0.34547   0.60569   0.00000  Uiso   1.00
C19    C     0.76067   0.33160   0.62890   0.00000  Uiso   1.00
C20    C     0.78598   0.36718   0.68695   0.00000  Uiso   1.00
C21    C     0.66061   0.35207   0.46853   0.00000  Uiso   1.00
C22    C     0.66723   0.34374   0.37642   0.00000  Uiso   1.00
C23    C     0.64981   0.38488   0.31900   0.00000  Uiso   1.00
H24    H     0.61603   0.43749   0.63121   0.00000  Uiso   1.00
H25    H     0.54416   0.38223   0.70897   0.00000  Uiso   1.00
H26    H     0.69544   0.46572   0.72326   0.00000  Uiso   1.00
H27    H     0.60202   0.47787   0.47082   0.00000  Uiso   1.00
H28    H     0.47473   0.29993   0.78040   0.00000  Uiso   1.00
H29    H     0.79372   0.47599   0.81050   0.00000  Uiso   1.00
H30    H     0.59671   0.50159   0.27818   0.00000  Uiso   1.00
H31    H     0.69488   0.27533   0.51712   0.00000  Uiso   1.00
H32    H     0.62734   0.21118   0.58861   0.00000  Uiso   1.00
H33    H     0.77862   0.29467   0.60290   0.00000  Uiso   1.00
H34    H     0.68519   0.30681   0.35046   0.00000  Uiso   1.00
H35    H     0.54224   0.16109   0.68272   0.00000  Uiso   1.00
H36    H     0.86123   0.33716   0.71281   0.00000  Uiso   1.00
H37    H     0.66422   0.36276   0.18050   0.00000  Uiso   1.00
O38    O     0.46264   0.19123   0.78068   0.00000  Uiso   1.00
O39    O     0.88114   0.42222   0.82015   0.00000  Uiso   1.00
O40    O     0.62267   0.45581   0.12176   0.00000  Uiso   1.00
N41    N     0.49988   0.27606   0.74759   0.00000  Uiso   1.00
N42    N     0.79811   0.44066   0.77574   0.00000  Uiso   1.00
N43    N     0.61394   0.46460   0.27806   0.00000  Uiso   1.00
N44    N     0.53621   0.20135   0.69502   0.00000  Uiso   1.00
N45    N     0.83444   0.36595   0.72317   0.00000  Uiso   1.00
N46    N     0.65027   0.38990   0.22550   0.00000  Uiso   1.00
C47    C     0.63409   0.90034   0.10507   0.00000  Uiso   1.00
C48    C     0.60598   0.84783   0.13149   0.00000  Uiso   1.00
C49    C     0.56211   0.84529   0.18299   0.00000  Uiso   1.00
C50    C     0.54224   0.79329   0.19976   0.00000  Uiso   1.00
C51    C     0.49507   0.71902   0.24593   0.00000  Uiso   1.00
C52    C     0.68817   0.89319   0.13926   0.00000  Uiso   1.00
C53    C     0.71341   0.92880   0.19729   0.00000  Uiso   1.00
C54    C     0.76273   0.91498   0.22059   0.00000  Uiso   1.00
C55    C     0.84318   0.91115   0.27877   0.00000  Uiso   1.00
C56    C     0.63740   0.89978   0.00211   0.00000  Uiso   1.00
C57    C     0.61997   0.94095   0.94481   0.00000  Uiso   1.00
C58    C     0.62656   0.93268   0.85263   0.00000  Uiso   1.00
C59    C     0.62819   0.93910   0.69786   0.00000  Uiso   1.00
C60    C     0.67681   0.81248   0.04326   0.00000  Uiso   1.00
C61    C     0.62918   0.80011   0.09792   0.00000  Uiso   1.00
C62    C     0.60937   0.74810   0.11460   0.00000  Uiso   1.00
C63    C     0.56548   0.74548   0.16612   0.00000  Uiso   1.00
C64    C     0.71137   0.84547   0.10569   0.00000  Uiso   1.00
C65    C     0.76067   0.83160   0.12890   0.00000  Uiso   1.00
C66    C     0.78598   0.86718   0.18695   0.00000  Uiso   1.00
C67    C     0.66061   0.85207   0.96853   0.00000  Uiso   1.00
C68    C     0.66723   0.84374   0.87642   0.00000  Uiso   1.00
C69    C     0.64981   0.88488   0.81900   0.00000  Uiso   1.00
H70    H     0.61603   0.93749   0.13121   0.00000  Uiso   1.00
H71    H     0.54416   0.88223   0.20897   0.00000  Uiso   1.00
H72    H     0.69544   0.96572   0.22326   0.00000  Uiso   1.00
H73    H     0.60202   0.97787   0.97082   0.00000  Uiso   1.00
H74    H     0.47473   0.79993   0.28040   0.00000  Uiso   1.00
H75    H     0.79372   0.97599   0.31050   0.00000  Uiso   1.00
H76    H     0.59671   0.00159   0.77818   0.00000  Uiso   1.00
H77    H     0.69488   0.77533   0.01712   0.00000  Uiso   1.00
H78    H     0.62734   0.71118   0.08861   0.00000  Uiso   1.00
H79    H     0.77862   0.79467   0.10290   0.00000  Uiso   1.00
H80    H     0.68519   0.80681   0.85046   0.00000  Uiso   1.00
H81    H     0.54224   0.66109   0.18272   0.00000  Uiso   1.00
H82    H     0.86123   0.83716   0.21281   0.00000  Uiso   1.00
H83    H     0.66422   0.86276   0.68050   0.00000  Uiso   1.00
O84    O     0.46264   0.69123   0.28068   0.00000  Uiso   1.00
O85    O     0.88114   0.92222   0.32015   0.00000  Uiso   1.00
O86    O     0.62267   0.95581   0.62176   0.00000  Uiso   1.00
N87    N     0.49988   0.77606   0.24759   0.00000  Uiso   1.00
N88    N     0.79811   0.94066   0.27574   0.00000  Uiso   1.00
N89    N     0.61394   0.96460   0.77806   0.00000  Uiso   1.00
N90    N     0.53621   0.70135   0.19502   0.00000  Uiso   1.00
N91    N     0.83444   0.86595   0.22317   0.00000  Uiso   1.00
N92    N     0.65027   0.88990   0.72550   0.00000  Uiso   1.00
C93    C     0.13409   0.40034   0.10507   0.00000  Uiso   1.00
C94    C     0.10598   0.34783   0.13149   0.00000  Uiso   1.00
C95    C     0.06211   0.34529   0.18299   0.00000  Uiso   1.00
C96    C     0.04224   0.29329   0.19976   0.00000  Uiso   1.00
C97    C     0.99507   0.21902   0.24593   0.00000  Uiso   1.00
C98    C     0.18817   0.39319   0.13926   0.00000  Uiso   1.00
C99    C     0.21341   0.42880   0.19729   0.00000  Uiso   1.00
C100   C     0.26273   0.41498   0.22059   0.00000  Uiso   1.00
C101   C     0.34318   0.41115   0.27877   0.00000  Uiso   1.00
C102   C     0.13740   0.39978   0.00211   0.00000  Uiso   1.00
C103   C     0.11997   0.44095   0.94481   0.00000  Uiso   1.00
C104   C     0.12656   0.43268   0.85263   0.00000  Uiso   1.00
C105   C     0.12819   0.43910   0.69786   0.00000  Uiso   1.00
C106   C     0.17681   0.31248   0.04326   0.00000  Uiso   1.00
C107   C     0.12918   0.30011   0.09792   0.00000  Uiso   1.00
C108   C     0.10937   0.24810   0.11460   0.00000  Uiso   1.00
C109   C     0.06548   0.24548   0.16612   0.00000  Uiso   1.00
C110   C     0.21137   0.34547   0.10569   0.00000  Uiso   1.00
C111   C     0.26067   0.33160   0.12890   0.00000  Uiso   1.00
C112   C     0.28598   0.36718   0.18695   0.00000  Uiso   1.00
C113   C     0.16061   0.35207   0.96853   0.00000  Uiso   1.00
C114   C     0.16723   0.34374   0.87642   0.00000  Uiso   1.00
C115   C     0.14981   0.38488   0.81900   0.00000  Uiso   1.00
H116   H     0.11603   0.43749   0.13121   0.00000  Uiso   1.00
H117   H     0.04416   0.38223   0.20897   0.00000  Uiso   1.00
H118   H     0.19544   0.46572   0.22326   0.00000  Uiso   1.00
H119   H     0.10202   0.47787   0.97082   0.00000  Uiso   1.00
H120   H     0.97473   0.29993   0.28040   0.00000  Uiso   1.00
H121   H     0.29372   0.47599   0.31050   0.00000  Uiso   1.00
H122   H     0.09671   0.50159   0.77818   0.00000  Uiso   1.00
H123   H     0.19488   0.27533   0.01712   0.00000  Uiso   1.00
H124   H     0.12734   0.21118   0.08861   0.00000  Uiso   1.00
H125   H     0.27862   0.29467   0.10290   0.00000  Uiso   1.00
H126   H     0.18519   0.30681   0.85046   0.00000  Uiso   1.00
H127   H     0.04224   0.16109   0.18272   0.00000  Uiso   1.00
H128   H     0.36123   0.33716   0.21281   0.00000  Uiso   1.00
H129   H     0.16422   0.36276   0.68050   0.00000  Uiso   1.00
O130   O     0.96264   0.19123   0.28068   0.00000  Uiso   1.00
O131   O     0.38114   0.42222   0.32015   0.00000  Uiso   1.00
O132   O     0.12267   0.45581   0.62176   0.00000  Uiso   1.00
N133   N     0.99988   0.27606   0.24759   0.00000  Uiso   1.00
N134   N     0.29811   0.44066   0.27574   0.00000  Uiso   1.00
N135   N     0.11394   0.46460   0.77806   0.00000  Uiso   1.00
N136   N     0.03621   0.20135   0.19502   0.00000  Uiso   1.00
N137   N     0.33444   0.36595   0.22317   0.00000  Uiso   1.00
N138   N     0.15027   0.38990   0.72550   0.00000  Uiso   1.00
C139   C     0.13409   0.90034   0.60507   0.00000  Uiso   1.00
C140   C     0.10598   0.84783   0.63149   0.00000  Uiso   1.00
C141   C     0.06211   0.84529   0.68299   0.00000  Uiso   1.00
C142   C     0.04224   0.79329   0.69976   0.00000  Uiso   1.00
C143   C     0.99507   0.71902   0.74593   0.00000  Uiso   1.00
C144   C     0.18817   0.89319   0.63926   0.00000  Uiso   1.00
C145   C     0.21341   0.92880   0.69729   0.00000  Uiso   1.00
C146   C     0.26273   0.91498   0.72059   0.00000  Uiso   1.00
C147   C     0.34318   0.91115   0.77877   0.00000  Uiso   1.00
C148   C     0.13740   0.89978   0.50211   0.00000  Uiso   1.00
C149   C     0.11997   0.94095   0.44481   0.00000  Uiso   1.00
C150   C     0.12656   0.93268   0.35263   0.00000  Uiso   1.00
C151   C     0.12819   0.93910   0.19786   0.00000  Uiso   1.00
C152   C     0.17681   0.81248   0.54326   0.00000  Uiso   1.00
C153   C     0.12918   0.80011   0.59792   0.00000  Uiso   1.00
C154   C     0.10937   0.74810   0.61460   0.00000  Uiso   1.00
C155   C     0.06548   0.74548   0.66612   0.00000  Uiso   1.00
C156   C     0.21137   0.84547   0.60569   0.00000  Uiso   1.00
C157   C     0.26067   0.83160   0.62890   0.00000  Uiso   1.00
C158   C     0.28598   0.86718   0.68695   0.00000  Uiso   1.00
C159   C     0.16061   0.85207   0.46853   0.00000  Uiso   1.00
C160   C     0.16723   0.84374   0.37642   0.00000  Uiso   1.00
C161   C     0.14981   0.88488   0.31900   0.00000  Uiso   1.00
H162   H     0.11603   0.93749   0.63121   0.00000  Uiso   1.00
H163   H     0.04416   0.88223   0.70897   0.00000  Uiso   1.00
H164   H     0.19544   0.96572   0.72326   0.00000  Uiso   1.00
H165   H     0.10202   0.97787   0.47082   0.00000  Uiso   1.00
H166   H     0.97473   0.79993   0.78040   0.00000  Uiso   1.00
H167   H     0.29372   0.97599   0.81050   0.00000  Uiso   1.00
H168   H     0.09671   0.00159   0.27818   0.00000  Uiso   1.00
H169   H     0.19488   0.77533   0.51712   0.00000  Uiso   1.00
H170   H     0.12734   0.71118   0.58861   0.00000  Uiso   1.00
H171   H     0.27862   0.79467   0.60290   0.00000  Uiso   1.00
H172   H     0.18519   0.80681   0.35046   0.00000  Uiso   1.00
H173   H     0.04224   0.66109   0.68272   0.00000  Uiso   1.00
H174   H     0.36123   0.83716   0.71281   0.00000  Uiso   1.00
H175   H     0.16422   0.86276   0.18050   0.00000  Uiso   1.00
O176   O     0.96264   0.69123   0.78068   0.00000  Uiso   1.00
O177   O     0.38114   0.92222   0.82015   0.00000  Uiso   1.00
O178   O     0.12267   0.95581   0.12176   0.00000  Uiso   1.00
N179   N     0.99988   0.77606   0.74759   0.00000  Uiso   1.00
N180   N     0.29811   0.94066   0.77574   0.00000  Uiso   1.00
N181   N     0.11394   0.96460   0.27806   0.00000  Uiso   1.00
N182   N     0.03621   0.70135   0.69502   0.00000  Uiso   1.00
N183   N     0.33444   0.86595   0.72317   0.00000  Uiso   1.00
N184   N     0.15027   0.88990   0.22550   0.00000  Uiso   1.00
C185   C     0.36591   0.59966   0.60507   0.00000  Uiso   1.00
C186   C     0.39402   0.65217   0.63149   0.00000  Uiso   1.00
C187   C     0.43789   0.65471   0.68299   0.00000  Uiso   1.00
C188   C     0.45776   0.70671   0.69976   0.00000  Uiso   1.00
C189   C     0.50493   0.78098   0.74593   0.00000  Uiso   1.00
C190   C     0.31183   0.60681   0.63926   0.00000  Uiso   1.00
C191   C     0.28659   0.57120   0.69729   0.00000  Uiso   1.00
C192   C     0.23727   0.58502   0.72059   0.00000  Uiso   1.00
C193   C     0.15682   0.58885   0.77877   0.00000  Uiso   1.00
C194   C     0.36260   0.60022   0.50211   0.00000  Uiso   1.00
C195   C     0.38003   0.55905   0.44481   0.00000  Uiso   1.00
C196   C     0.37344   0.56732   0.35263   0.00000  Uiso   1.00
C197   C     0.37181   0.56090   0.19786   0.00000  Uiso   1.00
C198   C     0.32319   0.68752   0.54326   0.00000  Uiso   1.00
C199   C     0.37082   0.69989   0.59792   0.00000  Uiso   1.00
C200   C     0.39063   0.75190   0.61460   0.00000  Uiso   1.00
C201   C     0.43452   0.75452   0.66612   0.00000  Uiso   1.00
C202   C     0.28863   0.65453   0.60569   0.00000  Uiso   1.00
C203   C     0.23933   0.66840   0.62890   0.00000  Uiso   1.00
C204   C     0.21402   0.63282   0.68695   0.00000  Uiso   1.00
C205   C     0.33939   0.64793   0.46853   0.00000  Uiso   1.00
C206   C     0.33277   0.65626   0.37642   0.00000  Uiso   1.00
C207   C     0.35019   0.61512   0.31900   0.00000  Uiso   1.00
H208   H     0.38397   0.56251   0.63121   0.00000  Uiso   1.00
H209   H     0.45584   0.61777   0.70897   0.00000  Uiso   1.00
H210   H     0.30456   0.53428   0.72326   0.00000  Uiso   1.00
H211   H     0.39798   0.52213   0.47082   0.00000  Uiso   1.00
H212   H     0.52527   0.70007   0.78040   0.00000  Uiso   1.00
H213   H     0.20628   0.52401   0.81050   0.00000  Uiso   1.00
H214   H     0.40329   0.49841   0.27818   0.00000  Uiso   1.00
H215   H     0.30512   0.72467   0.51712   0.00000  Uiso   1.00
H216   H     0.37266   0.78882   0.58861   0.00000  Uiso   1.00
H217   H     0.22138   0.70533   0.60290   0.00000  Uiso   1.00
H218   H     0.31481   0.69319   0.35046   0.00000  Uiso   1.00
H219   H     0.45776   0.83891   0.68272   0.00000  Uiso   1.00
H220   H     0.13877   0.66284   0.71281   0.00000  Uiso   1.00
H221   H     0.33578   0.63724   0.18050   0.00000  Uiso   1.00
O222   O     0.53736   0.80877   0.78068   0.00000  Uiso   1.00
O223   O     0.11886   0.57778   0.82015   0.00000  Uiso   1.00
O224   O     0.37733   0.54419   0.12176   0.00000  Uiso   1.00
N225   N     0.50012   0.72394   0.74759   0.00000  Uiso   1.00
N226   N     0.20189   0.55934   0.77574   0.00000  Uiso   1.00
N227   N     0.38606   0.53540   0.27806   0.00000  Uiso   1.00
N228   N     0.46379   0.79865   0.69502   0.00000  Uiso   1.00
N229   N     0.16556   0.63405   0.72317   0.00000  Uiso   1.00
N230   N     0.34973   0.61010   0.22550   0.00000  Uiso   1.00
C231   C     0.36591   0.09966   0.10507   0.00000  Uiso   1.00
C232   C     0.39402   0.15217   0.13149   0.00000  Uiso   1.00
C233   C     0.43789   0.15471   0.18299   0.00000  Uiso   1.00
C234   C     0.45776   0.20671   0.19976   0.00000  Uiso   1.00
C235   C     0.50493   0.28098   0.24593   0.00000  Uiso   1.00
C236   C     0.31183   0.10681   0.13926   0.00000  Uiso   1.00
C237   C     0.28659   0.07120   0.19729   0.00000  Uiso   1.00
C238   C     0.23727   0.08502   0.22059   0.00000  Uiso   1.00
C239   C     0.15682   0.08885   0.27877   0.00000  Uiso   1.00
C240   C     0.36260   0.10022   0.00211   0.00000  Uiso   1.00
C241   C     0.38003   0.05905   0.94481   0.00000  Uiso   1.00
C242   C     0.37344   0.06732   0.85263   0.00000  Uiso   1.00
C243   C     0.37181   0.06090   0.69786   0.00000  Uiso   1.00
C244   C     0.32319   0.18752   0.04326   0.00000  Uiso   1.00
C245   C     0.37082   0.19989   0.09792   0.00000  Uiso   1.00
C246   C     0.39063   0.25190   0.11460   0.00000  Uiso   1.00
C247   C     0.43452   0.25452   0.16612   0.00000  Uiso   1.00
C248   C     0.28863   0.15453   0.10569   0.00000  Uiso   1.00
C249   C     0.23933   0.16840   0.12890   0.00000  Uiso   1.00
C250   C     0.21402   0.13282   0.18695   0.00000  Uiso   1.00
C251   C     0.33939   0.14793   0.96853   0.00000  Uiso   1.00
C252   C     0.33277   0.15626   0.87642   0.00000  Uiso   1.00
C253   C     0.35019   0.11512   0.81900   0.00000  Uiso   1.00
H254   H     0.38397   0.06251   0.13121   0.00000  Uiso   1.00
H255   H     0.45584   0.11777   0.20897   0.00000  Uiso   1.00
H256   H     0.30456   0.03428   0.22326   0.00000  Uiso   1.00
H257   H     0.39798   0.02213   0.97082   0.00000  Uiso   1.00
H258   H     0.52527   0.20007   0.28040   0.00000  Uiso   1.00
H259   H     0.20628   0.02401   0.31050   0.00000  Uiso   1.00
H260   H     0.40329   0.99841   0.77818   0.00000  Uiso   1.00
H261   H     0.30512   0.22467   0.01712   0.00000  Uiso   1.00
H262   H     0.37266   0.28882   0.08861   0.00000  Uiso   1.00
H263   H     0.22138   0.20533   0.10290   0.00000  Uiso   1.00
H264   H     0.31481   0.19319   0.85046   0.00000  Uiso   1.00
H265   H     0.45776   0.33891   0.18272   0.00000  Uiso   1.00
H266   H     0.13877   0.16284   0.21281   0.00000  Uiso   1.00
H267   H     0.33578   0.13724   0.68050   0.00000  Uiso   1.00
O268   O     0.53736   0.30877   0.28068   0.00000  Uiso   1.00
O269   O     0.11886   0.07778   0.32015   0.00000  Uiso   1.00
O270   O     0.37733   0.04419   0.62176   0.00000  Uiso   1.00
N271   N     0.50012   0.22394   0.24759   0.00000  Uiso   1.00
N272   N     0.20189   0.05934   0.27574   0.00000  Uiso   1.00
N273   N     0.38606   0.03540   0.77806   0.00000  Uiso   1.00
N274   N     0.46379   0.29865   0.19502   0.00000  Uiso   1.00
N275   N     0.16556   0.13405   0.22317   0.00000  Uiso   1.00
N276   N     0.34973   0.11010   0.72550   0.00000  Uiso   1.00
C277   C     0.86591   0.59966   0.10507   0.00000  Uiso   1.00
C278   C     0.89403   0.65217   0.13149   0.00000  Uiso   1.00
C279   C     0.93789   0.65471   0.18299   0.00000  Uiso   1.00
C280   C     0.95776   0.70671   0.19976   0.00000  Uiso   1.00
C281   C     0.00493   0.78098   0.24593   0.00000  Uiso   1.00
C282   C     0.81183   0.60681   0.13926   0.00000  Uiso   1.00
C283   C     0.78659   0.57120   0.19729   0.00000  Uiso   1.00
C284   C     0.73727   0.58502   0.22059   0.00000  Uiso   1.00
C285   C     0.65682   0.58885   0.27877   0.00000  Uiso   1.00
C286   C     0.86260   0.60022   0.00211   0.00000  Uiso   1.00
C287   C     0.88003   0.55905   0.94481   0.00000  Uiso   1.00
C288   C     0.87344   0.56732   0.85263   0.00000  Uiso   1.00
C289   C     0.87181   0.56090   0.69786   0.00000  Uiso   1.00
C290   C     0.82319   0.68752   0.04326   0.00000  Uiso   1.00
C291   C     0.87082   0.69989   0.09792   0.00000  Uiso   1.00
C292   C     0.89063   0.75190   0.11460   0.00000  Uiso   1.00
C293   C     0.93452   0.75452   0.16612   0.00000  Uiso   1.00
C294   C     0.78863   0.65453   0.10569   0.00000  Uiso   1.00
C295   C     0.73933   0.66840   0.12890   0.00000  Uiso   1.00
C296   C     0.71402   0.63282   0.18695   0.00000  Uiso   1.00
C297   C     0.83939   0.64793   0.96853   0.00000  Uiso   1.00
C298   C     0.83277   0.65626   0.87642   0.00000  Uiso   1.00
C299   C     0.85019   0.61512   0.81900   0.00000  Uiso   1.00
H300   H     0.88397   0.56251   0.13121   0.00000  Uiso   1.00
H301   H     0.95584   0.61777   0.20897   0.00000  Uiso   1.00
H302   H     0.80456   0.53428   0.22326   0.00000  Uiso   1.00
H303   H     0.89798   0.52213   0.97082   0.00000  Uiso   1.00
H304   H     0.02527   0.70007   0.28040   0.00000  Uiso   1.00
H305   H     0.70628   0.52401   0.31050   0.00000  Uiso   1.00
H306   H     0.90329   0.49841   0.77818   0.00000  Uiso   1.00
H307   H     0.80512   0.72467   0.01712   0.00000  Uiso   1.00
H308   H     0.87266   0.78882   0.08861   0.00000  Uiso   1.00
H309   H     0.72138   0.70533   0.10290   0.00000  Uiso   1.00
H310   H     0.81481   0.69319   0.85046   0.00000  Uiso   1.00
H311   H     0.95776   0.83891   0.18272   0.00000  Uiso   1.00
H312   H     0.63877   0.66284   0.21281   0.00000  Uiso   1.00
H313   H     0.83578   0.63724   0.68050   0.00000  Uiso   1.00
O314   O     0.03736   0.80877   0.28068   0.00000  Uiso   1.00
O315   O     0.61886   0.57778   0.32015   0.00000  Uiso   1.00
O316   O     0.87733   0.54419   0.62176   0.00000  Uiso   1.00
N317   N     0.00012   0.72394   0.24759   0.00000  Uiso   1.00
N318   N     0.70189   0.55934   0.27574   0.00000  Uiso   1.00
N319   N     0.88606   0.53540   0.77806   0.00000  Uiso   1.00
N320   N     0.96379   0.79865   0.19502   0.00000  Uiso   1.00
N321   N     0.66556   0.63405   0.22317   0.00000  Uiso   1.00
N322   N     0.84973   0.61010   0.72550   0.00000  Uiso   1.00
C323   C     0.86591   0.09966   0.60507   0.00000  Uiso   1.00
C324   C     0.89402   0.15217   0.63149   0.00000  Uiso   1.00
C325   C     0.93789   0.15471   0.68299   0.00000  Uiso   1.00
C326   C     0.95776   0.20671   0.69976   0.00000  Uiso   1.00
C327   C     0.00493   0.28098   0.74593   0.00000  Uiso   1.00
C328   C     0.81183   0.10681   0.63926   0.00000  Uiso   1.00
C329   C     0.78659   0.07120   0.69729   0.00000  Uiso   1.00
C330   C     0.73727   0.08502   0.72059   0.00000  Uiso   1.00
C331   C     0.65682   0.08885   0.77877   0.00000  Uiso   1.00
C332   C     0.86260   0.10022   0.50211   0.00000  Uiso   1.00
C333   C     0.88003   0.05905   0.44481   0.00000  Uiso   1.00
C334   C     0.87344   0.06732   0.35263   0.00000  Uiso   1.00
C335   C     0.87181   0.06090   0.19786   0.00000  Uiso   1.00
C336   C     0.82319   0.18752   0.54326   0.00000  Uiso   1.00
C337   C     0.87082   0.19989   0.59792   0.00000  Uiso   1.00
C338   C     0.89063   0.25190   0.61460   0.00000  Uiso   1.00
C339   C     0.93452   0.25452   0.66612   0.00000  Uiso   1.00
C340   C     0.78863   0.15453   0.60569   0.00000  Uiso   1.00
C341   C     0.73933   0.16840   0.62890   0.00000  Uiso   1.00
C342   C     0.71402   0.13282   0.68695   0.00000  Uiso   1.00
C343   C     0.83939   0.14793   0.46853   0.00000  Uiso   1.00
C344   C     0.83277   0.15626   0.37642   0.00000  Uiso   1.00
C345   C     0.85019   0.11512   0.31900   0.00000  Uiso   1.00
H346   H     0.88397   0.06251   0.63121   0.00000  Uiso   1.00
H347   H     0.95584   0.11777   0.70897   0.00000  Uiso   1.00
H348   H     0.80456   0.03428   0.72326   0.00000  Uiso   1.00
H349   H     0.89798   0.02213   0.47082   0.00000  Uiso   1.00
H350   H     0.02527   0.20007   0.78040   0.00000  Uiso   1.00
H351   H     0.70628   0.02401   0.81050   0.00000  Uiso   1.00
H352   H     0.90329   0.99841   0.27818   0.00000  Uiso   1.00
H353   H     0.80512   0.22467   0.51712   0.00000  Uiso   1.00
H354   H     0.87266   0.28882   0.58861   0.00000  Uiso   1.00
H355   H     0.72138   0.20533   0.60290   0.00000  Uiso   1.00
H356   H     0.81481   0.19319   0.35046   0.00000  Uiso   1.00
H357   H     0.95776   0.33891   0.68272   0.00000  Uiso   1.00
H358   H     0.63877   0.16284   0.71281   0.00000  Uiso   1.00
H359   H     0.83578   0.13724   0.18050   0.00000  Uiso   1.00
O360   O     0.03736   0.30877   0.78068   0.00000  Uiso   1.00
O361   O     0.61886   0.07778   0.82015   0.00000  Uiso   1.00
O362   O     0.87733   0.04419   0.12176   0.00000  Uiso   1.00
N363   N     0.00012   0.22394   0.74759   0.00000  Uiso   1.00
N364   N     0.70189   0.05934   0.77574   0.00000  Uiso   1.00
N365   N     0.88606   0.03540   0.27806   0.00000  Uiso   1.00
N366   N     0.96379   0.29865   0.69502   0.00000  Uiso   1.00
N367   N     0.66556   0.13405   0.72317   0.00000  Uiso   1.00
N368   N     0.84973   0.11010   0.22550   0.00000  Uiso   1.00
C369   C     0.88409   0.84966   0.85507   0.00000  Uiso   1.00
C370   C     0.85598   0.90217   0.88149   0.00000  Uiso   1.00
C371   C     0.81211   0.90471   0.93299   0.00000  Uiso   1.00
C372   C     0.79224   0.95671   0.94976   0.00000  Uiso   1.00
C373   C     0.74507   0.03098   0.99593   0.00000  Uiso   1.00
C374   C     0.93817   0.85681   0.88926   0.00000  Uiso   1.00
C375   C     0.96341   0.82120   0.94729   0.00000  Uiso   1.00
C376   C     0.01273   0.83502   0.97059   0.00000  Uiso   1.00
C377   C     0.09318   0.83885   0.02877   0.00000  Uiso   1.00
C378   C     0.88740   0.85022   0.75211   0.00000  Uiso   1.00
C379   C     0.86997   0.80905   0.69481   0.00000  Uiso   1.00
C380   C     0.87656   0.81732   0.60263   0.00000  Uiso   1.00
C381   C     0.87819   0.81090   0.44786   0.00000  Uiso   1.00
C382   C     0.92681   0.93752   0.79326   0.00000  Uiso   1.00
C383   C     0.87918   0.94989   0.84792   0.00000  Uiso   1.00
C384   C     0.85937   0.00190   0.86460   0.00000  Uiso   1.00
C385   C     0.81548   0.00452   0.91612   0.00000  Uiso   1.00
C386   C     0.96137   0.90453   0.85569   0.00000  Uiso   1.00
C387   C     0.01067   0.91840   0.87890   0.00000  Uiso   1.00
C388   C     0.03598   0.88282   0.93695   0.00000  Uiso   1.00
C389   C     0.91061   0.89793   0.71853   0.00000  Uiso   1.00
C390   C     0.91723   0.90626   0.62642   0.00000  Uiso   1.00
C391   C     0.89981   0.86512   0.56900   0.00000  Uiso   1.00
H392   H     0.86603   0.81251   0.88121   0.00000  Uiso   1.00
H393   H     0.79416   0.86777   0.95897   0.00000  Uiso   1.00
H394   H     0.94544   0.78428   0.97326   0.00000  Uiso   1.00
H395   H     0.85202   0.77213   0.72082   0.00000  Uiso   1.00
H396   H     0.72473   0.95007   0.03040   0.00000  Uiso   1.00
H397   H     0.04372   0.77401   0.06050   0.00000  Uiso   1.00
H398   H     0.84671   0.74841   0.52818   0.00000  Uiso   1.00
H399   H     0.94488   0.97467   0.76712   0.00000  Uiso   1.00
H400   H     0.87734   0.03882   0.83861   0.00000  Uiso   1.00
H401   H     0.02862   0.95533   0.85290   0.00000  Uiso   1.00
H402   H     0.93519   0.94319   0.60046   0.00000  Uiso   1.00
H403   H     0.79224   0.08891   0.93272   0.00000  Uiso   1.00
H404   H     0.11123   0.91284   0.96281   0.00000  Uiso   1.00
H405   H     0.91422   0.88724   0.43050   0.00000  Uiso   1.00
O406   O     0.71264   0.05877   0.03068   0.00000  Uiso   1.00
O407   O     0.13114   0.82778   0.07015   0.00000  Uiso   1.00
O408   O     0.87267   0.79419   0.37176   0.00000  Uiso   1.00
N409   N     0.74988   0.97394   0.99759   0.00000  Uiso   1.00
N410   N     0.04811   0.80934   0.02574   0.00000  Uiso   1.00
N411   N     0.86394   0.78540   0.52806   0.00000  Uiso   1.00
N412   N     0.78621   0.04865   0.94502   0.00000  Uiso   1.00
N413   N     0.08444   0.88405   0.97317   0.00000  Uiso   1.00
N414   N     0.90027   0.86010   0.47550   0.00000  Uiso   1.00
C415   C     0.88409   0.34966   0.35507   0.00000  Uiso   1.00
C416   C     0.85598   0.40217   0.38149   0.00000  Uiso   1.00
C417   C     0.81211   0.40471   0.43299   0.00000  Uiso   1.00
C418   C     0.79224   0.45671   0.44976   0.00000  Uiso   1.00
C419   C     0.74507   0.53098   0.49593   0.00000  Uiso   1.00
C420   C     0.93817   0.35681   0.38926   0.00000  Uiso   1.00
C421   C     0.96341   0.32120   0.44729   0.00000  Uiso   1.00
C422   C     0.01273   0.33502   0.47059   0.00000  Uiso   1.00
C423   C     0.09318   0.33885   0.52877   0.00000  Uiso   1.00
C424   C     0.88740   0.35022   0.25211   0.00000  Uiso   1.00
C425   C     0.86997   0.30905   0.19481   0.00000  Uiso   1.00
C426   C     0.87656   0.31732   0.10263   0.00000  Uiso   1.00
C427   C     0.87819   0.31090   0.94786   0.00000  Uiso   1.00
C428   C     0.92681   0.43752   0.29326   0.00000  Uiso   1.00
C429   C     0.87918   0.44989   0.34792   0.00000  Uiso   1.00
C430   C     0.85937   0.50190   0.36460   0.00000  Uiso   1.00
C431   C     0.81548   0.50452   0.41612   0.00000  Uiso   1.00
C432   C     0.96137   0.40453   0.35569   0.00000  Uiso   1.00
C433   C     0.01067   0.41840   0.37890   0.00000  Uiso   1.00
C434   C     0.03598   0.38282   0.43695   0.00000  Uiso   1.00
C435   C     0.91061   0.39793   0.21853   0.00000  Uiso   1.00
C436   C     0.91723   0.40626   0.12642   0.00000  Uiso   1.00
C437   C     0.89981   0.36512   0.06900   0.00000  Uiso   1.00
H438   H     0.86603   0.31251   0.38121   0.00000  Uiso   1.00
H439   H     0.79416   0.36777   0.45897   0.00000  Uiso   1.00
H440   H     0.94544   0.28428   0.47326   0.00000  Uiso   1.00
H441   H     0.85202   0.27213   0.22082   0.00000  Uiso   1.00
H442   H     0.72473   0.45007   0.53040   0.00000  Uiso   1.00
H443   H     0.04372   0.27401   0.56050   0.00000  Uiso   1.00
H444   H     0.84671   0.24841   0.02818   0.00000  Uiso   1.00
H445   H     0.94488   0.47467   0.26712   0.00000  Uiso   1.00
H446   H     0.87734   0.53882   0.33861   0.00000  Uiso   1.00
H447   H     0.02862   0.45533   0.35290   0.00000  Uiso   1.00
H448   H     0.93519   0.44319   0.10046   0.00000  Uiso   1.00
H449   H     0.79224   0.58891   0.43272   0.00000  Uiso   1.00
H450   H     0.11123   0.41284   0.46281   0.00000  Uiso   1.00
H451   H     0.91422   0.38724   0.93050   0.00000  Uiso   1.00
O452   O     0.71264   0.55877   0.53068   0.00000  Uiso   1.00
O453   O     0.13114   0.32778   0.57015   0.00000  Uiso   1.00
O454   O     0.87267   0.29419   0.87176   0.00000  Uiso   1.00
N455   N     0.74988   0.47394   0.49759   0.00000  Uiso   1.00
N456   N     0.04811   0.30934   0.52574   0.00000  Uiso   1.00
N457   N     0.86394   0.28540   0.02806   0.00000  Uiso   1.00
N458   N     0.78621   0.54865   0.44502   0.00000  Uiso   1.00
N459   N     0.08444   0.38405   0.47317   0.00000  Uiso   1.00
N460   N     0.90027   0.36010   0.97550   0.00000  Uiso   1.00
C461   C     0.38409   0.84966   0.35507   0.00000  Uiso   1.00
C462   C     0.35598   0.90217   0.38149   0.00000  Uiso   1.00
C463   C     0.31211   0.90471   0.43299   0.00000  Uiso   1.00
C464   C     0.29224   0.95671   0.44976   0.00000  Uiso   1.00
C465   C     0.24507   0.03098   0.49593   0.00000  Uiso   1.00
C466   C     0.43817   0.85681   0.38926   0.00000  Uiso   1.00
C467   C     0.46341   0.82120   0.44729   0.00000  Uiso   1.00
C468   C     0.51273   0.83502   0.47059   0.00000  Uiso   1.00
C469   C     0.59318   0.83885   0.52877   0.00000  Uiso   1.00
C470   C     0.38740   0.85022   0.25211   0.00000  Uiso   1.00
C471   C     0.36997   0.80905   0.19481   0.00000  Uiso   1.00
C472   C     0.37656   0.81732   0.10263   0.00000  Uiso   1.00
C473   C     0.37819   0.81090   0.94786   0.00000  Uiso   1.00
C474   C     0.42681   0.93752   0.29326   0.00000  Uiso   1.00
C475   C     0.37918   0.94989   0.34792   0.00000  Uiso   1.00
C476   C     0.35937   0.00190   0.36460   0.00000  Uiso   1.00
C477   C     0.31548   0.00452   0.41612   0.00000  Uiso   1.00
C478   C     0.46137   0.90453   0.35569   0.00000  Uiso   1.00
C479   C     0.51067   0.91840   0.37890   0.00000  Uiso   1.00
C480   C     0.53598   0.88282   0.43695   0.00000  Uiso   1.00
C481   C     0.41061   0.89793   0.21853   0.00000  Uiso   1.00
C482   C     0.41723   0.90626   0.12642   0.00000  Uiso   1.00
C483   C     0.39981   0.86512   0.06900   0.00000  Uiso   1.00
H484   H     0.36603   0.81251   0.38121   0.00000  Uiso   1.00
H485   H     0.29416   0.86777   0.45897   0.00000  Uiso   1.00
H486   H     0.44544   0.78428   0.47326   0.00000  Uiso   1.00
H487   H     0.35202   0.77213   0.22082   0.00000  Uiso   1.00
H488   H     0.22473   0.95007   0.53040   0.00000  Uiso   1.00
H489   H     0.54372   0.77401   0.56050   0.00000  Uiso   1.00
H490   H     0.34671   0.74841   0.02818   0.00000  Uiso   1.00
H491   H     0.44488   0.97467   0.26712   0.00000  Uiso   1.00
H492   H     0.37734   0.03882   0.33861   0.00000  Uiso   1.00
H493   H     0.52862   0.95533   0.35290   0.00000  Uiso   1.00
H494   H     0.43519   0.94319   0.10046   0.00000  Uiso   1.00
H495   H     0.29224   0.08891   0.43272   0.00000  Uiso   1.00
H496   H     0.61123   0.91284   0.46281   0.00000  Uiso   1.00
H497   H     0.41422   0.88724   0.93050   0.00000  Uiso   1.00
O498   O     0.21264   0.05877   0.53068   0.00000  Uiso   1.00
O499   O     0.63114   0.82778   0.57015   0.00000  Uiso   1.00
O500   O     0.37267   0.79419   0.87176   0.00000  Uiso   1.00
N501   N     0.24988   0.97394   0.49759   0.00000  Uiso   1.00
N502   N     0.54811   0.80934   0.52574   0.00000  Uiso   1.00
N503   N     0.36394   0.78540   0.02806   0.00000  Uiso   1.00
N504   N     0.28621   0.04865   0.44502   0.00000  Uiso   1.00
N505   N     0.58444   0.88405   0.47317   0.00000  Uiso   1.00
N506   N     0.40027   0.86010   0.97550   0.00000  Uiso   1.00
C507   C     0.38409   0.34966   0.85507   0.00000  Uiso   1.00
C508   C     0.35597   0.40217   0.88149   0.00000  Uiso   1.00
C509   C     0.31211   0.40471   0.93299   0.00000  Uiso   1.00
C510   C     0.29224   0.45671   0.94976   0.00000  Uiso   1.00
C511   C     0.24507   0.53098   0.99593   0.00000  Uiso   1.00
C512   C     0.43817   0.35681   0.88926   0.00000  Uiso   1.00
C513   C     0.46341   0.32120   0.94729   0.00000  Uiso   1.00
C514   C     0.51273   0.33502   0.97059   0.00000  Uiso   1.00
C515   C     0.59318   0.33885   0.02877   0.00000  Uiso   1.00
C516   C     0.38740   0.35022   0.75211   0.00000  Uiso   1.00
C517   C     0.36997   0.30905   0.69481   0.00000  Uiso   1.00
C518   C     0.37656   0.31732   0.60263   0.00000  Uiso   1.00
C519   C     0.37819   0.31090   0.44786   0.00000  Uiso   1.00
C520   C     0.42681   0.43752   0.79326   0.00000  Uiso   1.00
C521   C     0.37918   0.44989   0.84792   0.00000  Uiso   1.00
C522   C     0.35937   0.50190   0.86460   0.00000  Uiso   1.00
C523   C     0.31548   0.50452   0.91612   0.00000  Uiso   1.00
C524   C     0.46137   0.40453   0.85569   0.00000  Uiso   1.00
C525   C     0.51067   0.41840   0.87890   0.00000  Uiso   1.00
C526   C     0.53598   0.38282   0.93695   0.00000  Uiso   1.00
C527   C     0.41061   0.39793   0.71853   0.00000  Uiso   1.00
C528   C     0.41723   0.40626   0.62642   0.00000  Uiso   1.00
C529   C     0.39981   0.36512   0.56900   0.00000  Uiso   1.00
H530   H     0.36603   0.31251   0.88121   0.00000  Uiso   1.00
H531   H     0.29416   0.36777   0.95897   0.00000  Uiso   1.00
H532   H     0.44544   0.28428   0.97326   0.00000  Uiso   1.00
H533   H     0.35202   0.27213   0.72082   0.00000  Uiso   1.00
H534   H     0.22473   0.45007   0.03040   0.00000  Uiso   1.00
H535   H     0.54372   0.27401   0.06050   0.00000  Uiso   1.00
H536   H     0.34671   0.24841   0.52818   0.00000  Uiso   1.00
H537   H     0.44488   0.47467   0.76712   0.00000  Uiso   1.00
H538   H     0.37734   0.53882   0.83861   0.00000  Uiso   1.00
H539   H     0.52862   0.45533   0.85290   0.00000  Uiso   1.00
H540   H     0.43519   0.44319   0.60046   0.00000  Uiso   1.00
H541   H     0.29224   0.58891   0.93272   0.00000  Uiso   1.00
H542   H     0.61123   0.41284   0.96281   0.00000  Uiso   1.00
H543   H     0.41422   0.38724   0.43050   0.00000  Uiso   1.00
O544   O     0.21264   0.55877   0.03068   0.00000  Uiso   1.00
O545   O     0.63114   0.32778   0.07015   0.00000  Uiso   1.00
O546   O     0.37267   0.29419   0.37176   0.00000  Uiso   1.00
N547   N     0.24988   0.47394   0.99759   0.00000  Uiso   1.00
N548   N     0.54811   0.30934   0.02574   0.00000  Uiso   1.00
N549   N     0.36394   0.28540   0.52806   0.00000  Uiso   1.00
N550   N     0.28621   0.54865   0.94502   0.00000  Uiso   1.00
N551   N     0.58444   0.38405   0.97317   0.00000  Uiso   1.00
N552   N     0.40027   0.36010   0.47550   0.00000  Uiso   1.00
C553   C     0.61591   0.65034   0.85507   0.00000  Uiso   1.00
C554   C     0.64402   0.59783   0.88149   0.00000  Uiso   1.00
C555   C     0.68789   0.59529   0.93299   0.00000  Uiso   1.00
C556   C     0.70776   0.54329   0.94976   0.00000  Uiso   1.00
C557   C     0.75493   0.46902   0.99593   0.00000  Uiso   1.00
C558   C     0.56183   0.64319   0.88926   0.00000  Uiso   1.00
C559   C     0.53659   0.67880   0.94729   0.00000  Uiso   1.00
C560   C     0.48727   0.66498   0.97059   0.00000  Uiso   1.00
C561   C     0.40682   0.66115   0.02877   0.00000  Uiso   1.00
C562   C     0.61260   0.64978   0.75211   0.00000  Uiso   1.00
C563   C     0.63003   0.69095   0.69481   0.00000  Uiso   1.00
C564   C     0.62344   0.68268   0.60263   0.00000  Uiso   1.00
C565   C     0.62181   0.68910   0.44786   0.00000  Uiso   1.00
C566   C     0.57319   0.56248   0.79326   0.00000  Uiso   1.00
C567   C     0.62082   0.55011   0.84792   0.00000  Uiso   1.00
C568   C     0.64063   0.49810   0.86460   0.00000  Uiso   1.00
C569   C     0.68452   0.49548   0.91612   0.00000  Uiso   1.00
C570   C     0.53863   0.59547   0.85569   0.00000  Uiso   1.00
C571   C     0.48933   0.58160   0.87890   0.00000  Uiso   1.00
C572   C     0.46402   0.61718   0.93695   0.00000  Uiso   1.00
C573   C     0.58939   0.60207   0.71853   0.00000  Uiso   1.00
C574   C     0.58277   0.59374   0.62642   0.00000  Uiso   1.00
C575   C     0.60019   0.63488   0.56900   0.00000  Uiso   1.00
H576   H     0.63397   0.68749   0.88121   0.00000  Uiso   1.00
H577   H     0.70584   0.63223   0.95897   0.00000  Uiso   1.00
H578   H     0.55456   0.71572   0.97326   0.00000  Uiso   1.00
H579   H     0.64798   0.72787   0.72082   0.00000  Uiso   1.00
H580   H     0.77527   0.54993   0.03040   0.00000  Uiso   1.00
H581   H     0.45628   0.72599   0.06050   0.00000  Uiso   1.00
H582   H     0.65329   0.75159   0.52818   0.00000  Uiso   1.00
H583   H     0.55512   0.52533   0.76712   0.00000  Uiso   1.00
H584   H     0.62266   0.46118   0.83861   0.00000  Uiso   1.00
H585   H     0.47138   0.54467   0.85290   0.00000  Uiso   1.00
H586   H     0.56481   0.55681   0.60046   0.00000  Uiso   1.00
H587   H     0.70776   0.41109   0.93272   0.00000  Uiso   1.00
H588   H     0.38877   0.58716   0.96281   0.00000  Uiso   1.00
H589   H     0.58578   0.61276   0.43050   0.00000  Uiso   1.00
O590   O     0.78736   0.44123   0.03068   0.00000  Uiso   1.00
O591   O     0.36886   0.67222   0.07015   0.00000  Uiso   1.00
O592   O     0.62733   0.70581   0.37176   0.00000  Uiso   1.00
N593   N     0.75012   0.52606   0.99759   0.00000  Uiso   1.00
N594   N     0.45189   0.69066   0.02574   0.00000  Uiso   1.00
N595   N     0.63606   0.71460   0.52806   0.00000  Uiso   1.00
N596   N     0.71379   0.45135   0.94502   0.00000  Uiso   1.00
N597   N     0.41556   0.61595   0.97317   0.00000  Uiso   1.00
N598   N     0.59973   0.63990   0.47550   0.00000  Uiso   1.00
C599   C     0.61591   0.15034   0.35507   0.00000  Uiso   1.00
C600   C     0.64402   0.09783   0.38149   0.00000  Uiso   1.00
C601   C     0.68789   0.09529   0.43299   0.00000  Uiso   1.00
C602   C     0.70776   0.04329   0.44976   0.00000  Uiso   1.00
C603   C     0.75493   0.96902   0.49593   0.00000  Uiso   1.00
C604   C     0.56183   0.14319   0.38926   0.00000  Uiso   1.00
C605   C     0.53659   0.17880   0.44729   0.00000  Uiso   1.00
C606   C     0.48727   0.16498   0.47059   0.00000  Uiso   1.00
C607   C     0.40682   0.16115   0.52877   0.00000  Uiso   1.00
C608   C     0.61260   0.14978   0.25211   0.00000  Uiso   1.00
C609   C     0.63003   0.19095   0.19481   0.00000  Uiso   1.00
C610   C     0.62344   0.18268   0.10263   0.00000  Uiso   1.00
C611   C     0.62181   0.18910   0.94786   0.00000  Uiso   1.00
C612   C     0.57319   0.06248   0.29326   0.00000  Uiso   1.00
C613   C     0.62082   0.05011   0.34792   0.00000  Uiso   1.00
C614   C     0.64063   0.99810   0.36460   0.00000  Uiso   1.00
C615   C     0.68452   0.99548   0.41612   0.00000  Uiso   1.00
C616   C     0.53863   0.09547   0.35569   0.00000  Uiso   1.00
C617   C     0.48933   0.08160   0.37890   0.00000  Uiso   1.00
C618   C     0.46402   0.11718   0.43695   0.00000  Uiso   1.00
C619   C     0.58939   0.10207   0.21853   0.00000  Uiso   1.00
C620   C     0.58277   0.09374   0.12642   0.00000  Uiso   1.00
C621   C     0.60019   0.13488   0.06900   0.00000  Uiso   1.00
H622   H     0.63397   0.18749   0.38121   0.00000  Uiso   1.00
H623   H     0.70584   0.13223   0.45897   0.00000  Uiso   1.00
H624   H     0.55456   0.21572   0.47326   0.00000  Uiso   1.00
H625   H     0.64798   0.22787   0.22082   0.00000  Uiso   1.00
H626   H     0.77527   0.04993   0.53040   0.00000  Uiso   1.00
H627   H     0.45628   0.22599   0.56050   0.00000  Uiso   1.00
H628   H     0.65329   0.25159   0.02818   0.00000  Uiso   1.00
H629   H     0.55512   0.02533   0.26712   0.00000  Uiso   1.00
H630   H     0.62266   0.96118   0.33861   0.00000  Uiso   1.00
H631   H     0.47138   0.04467   0.35290   0.00000  Uiso   1.00
H632   H     0.56481   0.05681   0.10046   0.00000  Uiso   1.00
H633   H     0.70776   0.91109   0.43272   0.00000  Uiso   1.00
H634   H     0.38877   0.08716   0.46281   0.00000  Uiso   1.00
H635   H     0.58578   0.11276   0.93050   0.00000  Uiso   1.00
O636   O     0.78736   0.94123   0.53068   0.00000  Uiso   1.00
O637   O     0.36886   0.17222   0.57015   0.00000  Uiso   1.00
O638   O     0.62733   0.20581   0.87176   0.00000  Uiso   1.00
N639   N     0.75012   0.02606   0.49759   0.00000  Uiso   1.00
N640   N     0.45189   0.19066   0.52574   0.00000  Uiso   1.00
N641   N     0.63606   0.21460   0.02806   0.00000  Uiso   1.00
N642   N     0.71379   0.95135   0.44502   0.00000  Uiso   1.00
N643   N     0.41556   0.11595   0.47317   0.00000  Uiso   1.00
N644   N     0.59973   0.13990   0.97550   0.00000  Uiso   1.00
C645   C     0.11591   0.65034   0.35507   0.00000  Uiso   1.00
C646   C     0.14402   0.59783   0.38149   0.00000  Uiso   1.00
C647   C     0.18789   0.59529   0.43299   0.00000  Uiso   1.00
C648   C     0.20776   0.54329   0.44976   0.00000  Uiso   1.00
C649   C     0.25493   0.46902   0.49593   0.00000  Uiso   1.00
C650   C     0.06183   0.64319   0.38926   0.00000  Uiso   1.00
C651   C     0.03659   0.67880   0.44729   0.00000  Uiso   1.00
C652   C     0.98727   0.66498   0.47059   0.00000  Uiso   1.00
C653   C     0.90682   0.66115   0.52877   0.00000  Uiso   1.00
C654   C     0.11260   0.64978   0.25211   0.00000  Uiso   1.00
C655   C     0.13003   0.69095   0.19481   0.00000  Uiso   1.00
C656   C     0.12344   0.68268   0.10263   0.00000  Uiso   1.00
C657   C     0.12181   0.68910   0.94786   0.00000  Uiso   1.00
C658   C     0.07319   0.56248   0.29326   0.00000  Uiso   1.00
C659   C     0.12082   0.55011   0.34792   0.00000  Uiso   1.00
C660   C     0.14063   0.49810   0.36460   0.00000  Uiso   1.00
C661   C     0.18452   0.49548   0.41612   0.00000  Uiso   1.00
C662   C     0.03863   0.59547   0.35569   0.00000  Uiso   1.00
C663   C     0.98933   0.58160   0.37890   0.00000  Uiso   1.00
C664   C     0.96402   0.61718   0.43695   0.00000  Uiso   1.00
C665   C     0.08939   0.60207   0.21853   0.00000  Uiso   1.00
C666   C     0.08277   0.59374   0.12642   0.00000  Uiso   1.00
C667   C     0.10019   0.63488   0.06900   0.00000  Uiso   1.00
H668   H     0.13397   0.68749   0.38121   0.00000  Uiso   1.00
H669   H     0.20584   0.63223   0.45897   0.00000  Uiso   1.00
H670   H     0.05456   0.71572   0.47326   0.00000  Uiso   1.00
H671   H     0.14798   0.72787   0.22082   0.00000  Uiso   1.00
H672   H     0.27527   0.54993   0.53040   0.00000  Uiso   1.00
H673   H     0.95628   0.72599   0.56050   0.00000  Uiso   1.00
H674   H     0.15329   0.75159   0.02818   0.00000  Uiso   1.00
H675   H     0.05512   0.52533   0.26712   0.00000  Uiso   1.00
H676   H     0.12266   0.46118   0.33861   0.00000  Uiso   1.00
H677   H     0.97138   0.54467   0.35290   0.00000  Uiso   1.00
H678   H     0.06481   0.55681   0.10046   0.00000  Uiso   1.00
H679   H     0.20776   0.41109   0.43272   0.00000  Uiso   1.00
H680   H     0.88877   0.58716   0.46281   0.00000  Uiso   1.00
H681   H     0.08578   0.61276   0.93050   0.00000  Uiso   1.00
O682   O     0.28736   0.44123   0.53068   0.00000  Uiso   1.00
O683   O     0.86886   0.67222   0.57015   0.00000  Uiso   1.00
O684   O     0.12733   0.70581   0.87176   0.00000  Uiso   1.00
N685   N     0.25012   0.52606   0.49759   0.00000  Uiso   1.00
N686   N     0.95189   0.69066   0.52574   0.00000  Uiso   1.00
N687   N     0.13606   0.71460   0.02806   0.00000  Uiso   1.00
N688   N     0.21379   0.45135   0.44502   0.00000  Uiso   1.00
N689   N     0.91556   0.61595   0.47317   0.00000  Uiso   1.00
N690   N     0.09973   0.63990   0.97550   0.00000  Uiso   1.00
C691   C     0.11591   0.15034   0.85507   0.00000  Uiso   1.00
C692   C     0.14402   0.09783   0.88149   0.00000  Uiso   1.00
C693   C     0.18789   0.09529   0.93299   0.00000  Uiso   1.00
C694   C     0.20776   0.04329   0.94976   0.00000  Uiso   1.00
C695   C     0.25493   0.96902   0.99593   0.00000  Uiso   1.00
C696   C     0.06183   0.14319   0.88926   0.00000  Uiso   1.00
C697   C     0.03659   0.17880   0.94729   0.00000  Uiso   1.00
C698   C     0.98727   0.16498   0.97059   0.00000  Uiso   1.00
C699   C     0.90682   0.16115   0.02877   0.00000  Uiso   1.00
C700   C     0.11260   0.14978   0.75211   0.00000  Uiso   1.00
C701   C     0.13003   0.19095   0.69481   0.00000  Uiso   1.00
C702   C     0.12344   0.18268   0.60263   0.00000  Uiso   1.00
C703   C     0.12181   0.18910   0.44786   0.00000  Uiso   1.00
C704   C     0.07319   0.06248   0.79326   0.00000  Uiso   1.00
C705   C     0.12082   0.05011   0.84792   0.00000  Uiso   1.00
C706   C     0.14063   0.99810   0.86460   0.00000  Uiso   1.00
C707   C     0.18452   0.99548   0.91612   0.00000  Uiso   1.00
C708   C     0.03863   0.09547   0.85569   0.00000  Uiso   1.00
C709   C     0.98933   0.08160   0.87890   0.00000  Uiso   1.00
C710   C     0.96402   0.11718   0.93695   0.00000  Uiso   1.00
C711   C     0.08939   0.10207   0.71853   0.00000  Uiso   1.00
C712   C     0.08277   0.09374   0.62642   0.00000  Uiso   1.00
C713   C     0.10019   0.13488   0.56900   0.00000  Uiso   1.00
H714   H     0.13397   0.18749   0.88121   0.00000  Uiso   1.00
H715   H     0.20584   0.13223   0.95897   0.00000  Uiso   1.00
H716   H     0.05456   0.21572   0.97326   0.00000  Uiso   1.00
H717   H     0.14798   0.22787   0.72082   0.00000  Uiso   1.00
H718   H     0.27527   0.04993   0.03040   0.00000  Uiso   1.00
H719   H     0.95628   0.22599   0.06050   0.00000  Uiso   1.00
H720   H     0.15329   0.25159   0.52818   0.00000  Uiso   1.00
H721   H     0.05512   0.02533   0.76712   0.00000  Uiso   1.00
H722   H     0.12266   0.96118   0.83861   0.00000  Uiso   1.00
H723   H     0.97138   0.04467   0.85290   0.00000  Uiso   1.00
H724   H     0.06481   0.05681   0.60046   0.00000  Uiso   1.00
H725   H     0.20776   0.91109   0.93272   0.00000  Uiso   1.00
H726   H     0.88877   0.08716   0.96281   0.00000  Uiso   1.00
H727   H     0.08578   0.11276   0.43050   0.00000  Uiso   1.00
O728   O     0.28736   0.94123   0.03068   0.00000  Uiso   1.00
O729   O     0.86886   0.17222   0.07015   0.00000  Uiso   1.00
O730   O     0.12733   0.20581   0.37176   0.00000  Uiso   1.00
N731   N     0.25012   0.02606   0.99759   0.00000  Uiso   1.00
N732   N     0.95189   0.19066   0.02574   0.00000  Uiso   1.00
N733   N     0.13606   0.21460   0.52806   0.00000  Uiso   1.00
N734   N     0.21379   0.95135   0.94502   0.00000  Uiso   1.00
N735   N     0.91556   0.11595   0.97317   0.00000  Uiso   1.00
N736   N     0.09973   0.13990   0.47550   0.00000  Uiso   1.00
