data_job_06906
_audit_creation_date              2018-12-19
_audit_creation_method            'Materials Studio'
_symmetry_space_group_name_H-M    'P1'
_symmetry_Int_Tables_number       1
_symmetry_cell_setting            triclinic
loop_
_symmetry_equiv_pos_as_xyz
  x,y,z
_cell_length_a                    40.6453
_cell_length_b                    26.5478
_cell_length_c                    22.3409
_cell_angle_alpha                 90.0000
_cell_angle_beta                  117.5766
_cell_angle_gamma                 90.0000
loop_
_atom_site_label
_atom_site_type_symbol
_atom_site_fract_x
_atom_site_fract_y
_atom_site_fract_z
_atom_site_U_iso_or_equiv
_atom_site_adp_type
_atom_site_occupancy
C1     C     0.63543   0.84675   0.71888   0.00000  Uiso   1.00
C2     C     0.64344   0.79749   0.69297   0.00000  Uiso   1.00
C3     C     0.67155   0.78976   0.67518   0.00000  Uiso   1.00
C4     C     0.67427   0.74198   0.65261   0.00000  Uiso   1.00
C5     C     0.69042   0.67137   0.61304   0.00000  Uiso   1.00
C6     C     0.59507   0.85961   0.67117   0.00000  Uiso   1.00
C7     C     0.58251   0.90411   0.63506   0.00000  Uiso   1.00
C8     C     0.54452   0.90862   0.59414   0.00000  Uiso   1.00
C9     C     0.48556   0.93447   0.52077   0.00000  Uiso   1.00
C10    C     0.63686   0.83442   0.78670   0.00000  Uiso   1.00
C11    C     0.15943   0.35775   0.84773   0.00000  Uiso   1.00
C12    C     0.65661   0.84105   0.90408   0.00000  Uiso   1.00
C13    C     0.66255   0.82779   0.01008   0.00000  Uiso   1.00
C14    C     0.59029   0.77563   0.71043   0.00000  Uiso   1.00
C15    C     0.61891   0.75886   0.68838   0.00000  Uiso   1.00
C16    C     0.62160   0.71107   0.66583   0.00000  Uiso   1.00
C17    C     0.64971   0.70328   0.64801   0.00000  Uiso   1.00
C18    C     0.57055   0.82098   0.66658   0.00000  Uiso   1.00
C19    C     0.53256   0.82542   0.62571   0.00000  Uiso   1.00
C20    C     0.51995   0.86992   0.58954   0.00000  Uiso   1.00
C21    C     0.61234   0.79578   0.78211   0.00000  Uiso   1.00
C22    C     0.60948   0.77905   0.83838   0.00000  Uiso   1.00
C23    C     0.63205   0.80235   0.89948   0.00000  Uiso   1.00
H24    H     0.15452   0.37683   0.72245   0.00000  Uiso   1.00
H25    H     0.69052   0.81967   0.67873   0.00000  Uiso   1.00
H26    H     0.10149   0.43400   0.63862   0.00000  Uiso   1.00
H27    H     0.17840   0.38764   0.85126   0.00000  Uiso   1.00
H28    H     0.71960   0.73927   0.62822   0.00000  Uiso   1.00
H29    H     0.03189   0.48035   0.54366   0.00000  Uiso   1.00
H30    H     0.19406   0.38259   0.99204   0.00000  Uiso   1.00
H31    H     0.57120   0.74555   0.70686   0.00000  Uiso   1.00
H32    H     0.60262   0.68118   0.66229   0.00000  Uiso   1.00
H33    H     0.51359   0.79552   0.62218   0.00000  Uiso   1.00
H34    H     0.59050   0.74916   0.83481   0.00000  Uiso   1.00
H35    H     0.64826   0.62687   0.61487   0.00000  Uiso   1.00
H36    H     0.46054   0.86795   0.53032   0.00000  Uiso   1.00
H37    H     0.62272   0.77019   0.97869   0.00000  Uiso   1.00
O38    O     0.70609   0.64310   0.59248   0.00000  Uiso   1.00
O39    O     0.45982   0.95940   0.48156   0.00000  Uiso   1.00
O40    O     0.67260   0.83114   0.06982   0.00000  Uiso   1.00
N41    N     0.69850   0.72165   0.63120   0.00000  Uiso   1.00
N42    N     0.52300   0.94704   0.55214   0.00000  Uiso   1.00
N43    N     0.17462   0.35565   0.97134   0.00000  Uiso   1.00
N44    N     0.66011   0.66116   0.62402   0.00000  Uiso   1.00
N45    N     0.48461   0.88656   0.54496   0.00000  Uiso   1.00
N46    N     0.63623   0.79517   0.96416   0.00000  Uiso   1.00
C47    C     0.29791   0.99210   0.03293   0.00000  Uiso   1.00
C48    C     0.33828   0.00726   0.07680   0.00000  Uiso   1.00
C49    C     0.36384   0.01820   0.05370   0.00000  Uiso   1.00
C50    C     0.39939   0.03129   0.10187   0.00000  Uiso   1.00
C51    C     0.96061   0.55449   0.15953   0.00000  Uiso   1.00
C52    C     0.29296   0.94168   0.06045   0.00000  Uiso   1.00
C53    C     0.28040   0.89748   0.02360   0.00000  Uiso   1.00
C54    C     0.27780   0.85536   0.05802   0.00000  Uiso   1.00
C55    C     0.26863   0.77675   0.09028   0.00000  Uiso   1.00
C56    C     0.27464   0.02997   0.04832   0.00000  Uiso   1.00
C57    C     0.24667   0.05999   0.00128   0.00000  Uiso   1.00
C58    C     0.22864   0.09221   0.02548   0.00000  Uiso   1.00
C59    C     0.69102   0.65068   0.03892   0.00000  Uiso   1.00
C60    C     0.31561   0.99590   0.15956   0.00000  Uiso   1.00
C61    C     0.34789   0.00932   0.14558   0.00000  Uiso   1.00
C62    C     0.38342   0.02241   0.19381   0.00000  Uiso   1.00
C63    C     0.40902   0.03336   0.17078   0.00000  Uiso   1.00
C64    C     0.30257   0.94374   0.12923   0.00000  Uiso   1.00
C65    C     0.29998   0.90168   0.16371   0.00000  Uiso   1.00
C66    C     0.28743   0.85743   0.12692   0.00000  Uiso   1.00
C67    C     0.28425   0.03203   0.11711   0.00000  Uiso   1.00
C68    C     0.26625   0.06420   0.14139   0.00000  Uiso   1.00
C69    C     0.23827   0.09427   0.09439   0.00000  Uiso   1.00
H70    H     0.29043   0.99049   0.97938   0.00000  Uiso   1.00
H71    H     0.35639   0.01659   0.00046   0.00000  Uiso   1.00
H72    H     0.27296   0.89589   0.97037   0.00000  Uiso   1.00
H73    H     0.23924   0.05839   0.94805   0.00000  Uiso   1.00
H74    H     0.43375   0.04642   0.05418   0.00000  Uiso   1.00
H75    H     0.25784   0.79192   0.99072   0.00000  Uiso   1.00
H76    H     0.68672   0.63457   0.94365   0.00000  Uiso   1.00
H77    H     0.32310   0.99751   0.21312   0.00000  Uiso   1.00
H78    H     0.39085   0.02400   0.24703   0.00000  Uiso   1.00
H79    H     0.30742   0.90329   0.21694   0.00000  Uiso   1.00
H80    H     0.27370   0.06579   0.19462   0.00000  Uiso   1.00
H81    H     0.96173   0.55243   0.25430   0.00000  Uiso   1.00
H82    H     0.28581   0.79793   0.19084   0.00000  Uiso   1.00
H83    H     0.71470   0.64058   0.14378   0.00000  Uiso   1.00
O84    O     0.99172   0.56671   0.17233   0.00000  Uiso   1.00
O85    O     0.26092   0.73282   0.08907   0.00000  Uiso   1.00
O86    O     0.66762   0.68237   0.02733   0.00000  Uiso   1.00
N87    N     0.43104   0.04421   0.09662   0.00000  Uiso   1.00
N88    N     0.26657   0.80626   0.03729   0.00000  Uiso   1.00
N89    N     0.70008   0.62661   0.99329   0.00000  Uiso   1.00
N90    N     0.44609   0.04745   0.20431   0.00000  Uiso   1.00
N91    N     0.28162   0.80950   0.14498   0.00000  Uiso   1.00
N92    N     0.71513   0.62984   0.10098   0.00000  Uiso   1.00
C93    C     0.38091   0.41982   0.19260   0.00000  Uiso   1.00
C94    C     0.36827   0.45551   0.13251   0.00000  Uiso   1.00
C95    C     0.38257   0.45742   0.08692   0.00000  Uiso   1.00
C96    C     0.36726   0.49274   0.03541   0.00000  Uiso   1.00
C97    C     0.35200   0.54327   0.94299   0.00000  Uiso   1.00
C98    C     0.39211   0.45316   0.25460   0.00000  Uiso   1.00
C99    C     0.42646   0.45309   0.31166   0.00000  Uiso   1.00
C100   C     0.43122   0.48643   0.36293   0.00000  Uiso   1.00
C101   C     0.45296   0.53329   0.46007   0.00000  Uiso   1.00
C102   C     0.34629   0.39144   0.18357   0.00000  Uiso   1.00
C103   C     0.34210   0.33948   0.18093   0.00000  Uiso   1.00
C104   C     0.30828   0.32086   0.17242   0.00000  Uiso   1.00
C105   C     0.25888   0.27190   0.15927   0.00000  Uiso   1.00
C106   C     0.32829   0.47915   0.18220   0.00000  Uiso   1.00
C107   C     0.33969   0.48773   0.12686   0.00000  Uiso   1.00
C108   C     0.32436   0.52306   0.07541   0.00000  Uiso   1.00
C109   C     0.33864   0.52502   0.02975   0.00000  Uiso   1.00
C110   C     0.36354   0.48538   0.24895   0.00000  Uiso   1.00
C111   C     0.36825   0.51873   0.30015   0.00000  Uiso   1.00
C112   C     0.40259   0.51872   0.35728   0.00000  Uiso   1.00
C113   C     0.31771   0.42367   0.17792   0.00000  Uiso   1.00
C114   C     0.28389   0.40513   0.16942   0.00000  Uiso   1.00
C115   C     0.27966   0.35315   0.16676   0.00000  Uiso   1.00
H116   H     0.40316   0.39473   0.19700   0.00000  Uiso   1.00
H117   H     0.40469   0.43247   0.09131   0.00000  Uiso   1.00
H118   H     0.44856   0.42814   0.31602   0.00000  Uiso   1.00
H119   H     0.36422   0.31456   0.18530   0.00000  Uiso   1.00
H120   H     0.39379   0.48855   0.97166   0.00000  Uiso   1.00
H121   H     0.48630   0.47940   0.44548   0.00000  Uiso   1.00
H122   H     0.30845   0.23988   0.16984   0.00000  Uiso   1.00
H123   H     0.30605   0.50424   0.17780   0.00000  Uiso   1.00
H124   H     0.30225   0.54799   0.07105   0.00000  Uiso   1.00
H125   H     0.34613   0.54366   0.29576   0.00000  Uiso   1.00
H126   H     0.26178   0.43008   0.16504   0.00000  Uiso   1.00
H127   H     0.31065   0.58231   0.95521   0.00000  Uiso   1.00
H128   H     0.40316   0.57316   0.42904   0.00000  Uiso   1.00
H129   H     0.22531   0.33364   0.15339   0.00000  Uiso   1.00
O130   O     0.35148   0.56225   0.89357   0.00000  Uiso   1.00
O131   O     0.47285   0.55024   0.51521   0.00000  Uiso   1.00
O132   O     0.73952   0.73600   0.15357   0.00000  Uiso   1.00
N133   N     0.37474   0.50460   0.98243   0.00000  Uiso   1.00
N134   N     0.46124   0.49606   0.42542   0.00000  Uiso   1.00
N135   N     0.29496   0.27213   0.16774   0.00000  Uiso   1.00
N136   N     0.33000   0.55505   0.97358   0.00000  Uiso   1.00
N137   N     0.41650   0.54651   0.41657   0.00000  Uiso   1.00
N138   N     0.25023   0.32258   0.15889   0.00000  Uiso   1.00
C139   C     0.13543   0.34675   0.71888   0.00000  Uiso   1.00
C140   C     0.14344   0.29749   0.69297   0.00000  Uiso   1.00
C141   C     0.17155   0.28976   0.67518   0.00000  Uiso   1.00
C142   C     0.17427   0.24198   0.65261   0.00000  Uiso   1.00
C143   C     0.19042   0.17137   0.61304   0.00000  Uiso   1.00
C144   C     0.09507   0.35961   0.67117   0.00000  Uiso   1.00
C145   C     0.08251   0.40411   0.63506   0.00000  Uiso   1.00
C146   C     0.04452   0.40862   0.59414   0.00000  Uiso   1.00
C147   C     0.98556   0.43447   0.52077   0.00000  Uiso   1.00
C148   C     0.13686   0.33442   0.78670   0.00000  Uiso   1.00
C149   C     0.65943   0.85775   0.84773   0.00000  Uiso   1.00
C150   C     0.15661   0.34105   0.90408   0.00000  Uiso   1.00
C151   C     0.16255   0.32779   0.01008   0.00000  Uiso   1.00
C152   C     0.09029   0.27563   0.71043   0.00000  Uiso   1.00
C153   C     0.11891   0.25886   0.68838   0.00000  Uiso   1.00
C154   C     0.12160   0.21107   0.66583   0.00000  Uiso   1.00
C155   C     0.14971   0.20328   0.64801   0.00000  Uiso   1.00
C156   C     0.07055   0.32098   0.66658   0.00000  Uiso   1.00
C157   C     0.03256   0.32542   0.62571   0.00000  Uiso   1.00
C158   C     0.01995   0.36992   0.58954   0.00000  Uiso   1.00
C159   C     0.11234   0.29578   0.78211   0.00000  Uiso   1.00
C160   C     0.10948   0.27905   0.83838   0.00000  Uiso   1.00
C161   C     0.13205   0.30235   0.89948   0.00000  Uiso   1.00
H162   H     0.65452   0.87683   0.72245   0.00000  Uiso   1.00
H163   H     0.19052   0.31967   0.67873   0.00000  Uiso   1.00
H164   H     0.60149   0.93400   0.63862   0.00000  Uiso   1.00
H165   H     0.67840   0.88764   0.85126   0.00000  Uiso   1.00
H166   H     0.21960   0.23927   0.62822   0.00000  Uiso   1.00
H167   H     0.53189   0.98035   0.54366   0.00000  Uiso   1.00
H168   H     0.69406   0.88259   0.99204   0.00000  Uiso   1.00
H169   H     0.07120   0.24555   0.70686   0.00000  Uiso   1.00
H170   H     0.10262   0.18118   0.66229   0.00000  Uiso   1.00
H171   H     0.01359   0.29552   0.62218   0.00000  Uiso   1.00
H172   H     0.09050   0.24916   0.83481   0.00000  Uiso   1.00
H173   H     0.14826   0.12687   0.61487   0.00000  Uiso   1.00
H174   H     0.96054   0.36795   0.53032   0.00000  Uiso   1.00
H175   H     0.12272   0.27019   0.97869   0.00000  Uiso   1.00
O176   O     0.20609   0.14310   0.59248   0.00000  Uiso   1.00
O177   O     0.95982   0.45940   0.48156   0.00000  Uiso   1.00
O178   O     0.17260   0.33114   0.06982   0.00000  Uiso   1.00
N179   N     0.19850   0.22165   0.63120   0.00000  Uiso   1.00
N180   N     0.02300   0.44704   0.55214   0.00000  Uiso   1.00
N181   N     0.67462   0.85565   0.97134   0.00000  Uiso   1.00
N182   N     0.16011   0.16116   0.62402   0.00000  Uiso   1.00
N183   N     0.98461   0.38656   0.54496   0.00000  Uiso   1.00
N184   N     0.13623   0.29517   0.96416   0.00000  Uiso   1.00
C185   C     0.79791   0.49210   0.03293   0.00000  Uiso   1.00
C186   C     0.83828   0.50726   0.07680   0.00000  Uiso   1.00
C187   C     0.86384   0.51820   0.05370   0.00000  Uiso   1.00
C188   C     0.89939   0.53129   0.10187   0.00000  Uiso   1.00
C189   C     0.46061   0.05449   0.15953   0.00000  Uiso   1.00
C190   C     0.79296   0.44168   0.06045   0.00000  Uiso   1.00
C191   C     0.78040   0.39748   0.02360   0.00000  Uiso   1.00
C192   C     0.77780   0.35536   0.05802   0.00000  Uiso   1.00
C193   C     0.76863   0.27675   0.09028   0.00000  Uiso   1.00
C194   C     0.77464   0.52997   0.04832   0.00000  Uiso   1.00
C195   C     0.74667   0.55999   0.00128   0.00000  Uiso   1.00
C196   C     0.72864   0.59221   0.02548   0.00000  Uiso   1.00
C197   C     0.19102   0.15068   0.03892   0.00000  Uiso   1.00
C198   C     0.81561   0.49590   0.15956   0.00000  Uiso   1.00
C199   C     0.84789   0.50932   0.14558   0.00000  Uiso   1.00
C200   C     0.88342   0.52241   0.19381   0.00000  Uiso   1.00
C201   C     0.90902   0.53336   0.17078   0.00000  Uiso   1.00
C202   C     0.80257   0.44374   0.12923   0.00000  Uiso   1.00
C203   C     0.79998   0.40168   0.16371   0.00000  Uiso   1.00
C204   C     0.78743   0.35743   0.12692   0.00000  Uiso   1.00
C205   C     0.78425   0.53203   0.11711   0.00000  Uiso   1.00
C206   C     0.76625   0.56420   0.14139   0.00000  Uiso   1.00
C207   C     0.73827   0.59427   0.09439   0.00000  Uiso   1.00
H208   H     0.79043   0.49049   0.97938   0.00000  Uiso   1.00
H209   H     0.85639   0.51659   0.00046   0.00000  Uiso   1.00
H210   H     0.77296   0.39589   0.97037   0.00000  Uiso   1.00
H211   H     0.73924   0.55839   0.94805   0.00000  Uiso   1.00
H212   H     0.93375   0.54642   0.05418   0.00000  Uiso   1.00
H213   H     0.75784   0.29192   0.99072   0.00000  Uiso   1.00
H214   H     0.18672   0.13457   0.94365   0.00000  Uiso   1.00
H215   H     0.82310   0.49751   0.21312   0.00000  Uiso   1.00
H216   H     0.89085   0.52400   0.24703   0.00000  Uiso   1.00
H217   H     0.80742   0.40329   0.21694   0.00000  Uiso   1.00
H218   H     0.77370   0.56579   0.19462   0.00000  Uiso   1.00
H219   H     0.46173   0.05243   0.25430   0.00000  Uiso   1.00
H220   H     0.78581   0.29793   0.19084   0.00000  Uiso   1.00
H221   H     0.21470   0.14058   0.14378   0.00000  Uiso   1.00
O222   O     0.49172   0.06671   0.17233   0.00000  Uiso   1.00
O223   O     0.76092   0.23282   0.08907   0.00000  Uiso   1.00
O224   O     0.16762   0.18237   0.02733   0.00000  Uiso   1.00
N225   N     0.93104   0.54421   0.09662   0.00000  Uiso   1.00
N226   N     0.76657   0.30626   0.03729   0.00000  Uiso   1.00
N227   N     0.20008   0.12661   0.99329   0.00000  Uiso   1.00
N228   N     0.94609   0.54745   0.20431   0.00000  Uiso   1.00
N229   N     0.78162   0.30950   0.14498   0.00000  Uiso   1.00
N230   N     0.21513   0.12984   0.10098   0.00000  Uiso   1.00
C231   C     0.88091   0.91982   0.19260   0.00000  Uiso   1.00
C232   C     0.86827   0.95551   0.13251   0.00000  Uiso   1.00
C233   C     0.88257   0.95742   0.08692   0.00000  Uiso   1.00
C234   C     0.86726   0.99274   0.03541   0.00000  Uiso   1.00
C235   C     0.85200   0.04327   0.94299   0.00000  Uiso   1.00
C236   C     0.89211   0.95316   0.25460   0.00000  Uiso   1.00
C237   C     0.92646   0.95309   0.31166   0.00000  Uiso   1.00
C238   C     0.93122   0.98643   0.36293   0.00000  Uiso   1.00
C239   C     0.95296   0.03329   0.46007   0.00000  Uiso   1.00
C240   C     0.84629   0.89144   0.18357   0.00000  Uiso   1.00
C241   C     0.84210   0.83948   0.18093   0.00000  Uiso   1.00
C242   C     0.80828   0.82086   0.17242   0.00000  Uiso   1.00
C243   C     0.75888   0.77190   0.15927   0.00000  Uiso   1.00
C244   C     0.82829   0.97915   0.18220   0.00000  Uiso   1.00
C245   C     0.83969   0.98773   0.12686   0.00000  Uiso   1.00
C246   C     0.82436   0.02306   0.07541   0.00000  Uiso   1.00
C247   C     0.83864   0.02502   0.02975   0.00000  Uiso   1.00
C248   C     0.86354   0.98538   0.24895   0.00000  Uiso   1.00
C249   C     0.86825   0.01873   0.30015   0.00000  Uiso   1.00
C250   C     0.90259   0.01872   0.35728   0.00000  Uiso   1.00
C251   C     0.81771   0.92367   0.17792   0.00000  Uiso   1.00
C252   C     0.78389   0.90513   0.16942   0.00000  Uiso   1.00
C253   C     0.77966   0.85315   0.16676   0.00000  Uiso   1.00
H254   H     0.90316   0.89473   0.19700   0.00000  Uiso   1.00
H255   H     0.90469   0.93247   0.09131   0.00000  Uiso   1.00
H256   H     0.94856   0.92814   0.31602   0.00000  Uiso   1.00
H257   H     0.86422   0.81456   0.18530   0.00000  Uiso   1.00
H258   H     0.89379   0.98855   0.97166   0.00000  Uiso   1.00
H259   H     0.98630   0.97940   0.44548   0.00000  Uiso   1.00
H260   H     0.80845   0.73988   0.16984   0.00000  Uiso   1.00
H261   H     0.80605   0.00424   0.17780   0.00000  Uiso   1.00
H262   H     0.80225   0.04799   0.07105   0.00000  Uiso   1.00
H263   H     0.84613   0.04366   0.29576   0.00000  Uiso   1.00
H264   H     0.76178   0.93008   0.16504   0.00000  Uiso   1.00
H265   H     0.81065   0.08231   0.95521   0.00000  Uiso   1.00
H266   H     0.90316   0.07316   0.42904   0.00000  Uiso   1.00
H267   H     0.72531   0.83364   0.15339   0.00000  Uiso   1.00
O268   O     0.85148   0.06225   0.89357   0.00000  Uiso   1.00
O269   O     0.97285   0.05024   0.51521   0.00000  Uiso   1.00
O270   O     0.23952   0.23600   0.15357   0.00000  Uiso   1.00
N271   N     0.87474   0.00460   0.98243   0.00000  Uiso   1.00
N272   N     0.96124   0.99606   0.42542   0.00000  Uiso   1.00
N273   N     0.79496   0.77213   0.16774   0.00000  Uiso   1.00
N274   N     0.83000   0.05505   0.97358   0.00000  Uiso   1.00
N275   N     0.91650   0.04651   0.41657   0.00000  Uiso   1.00
N276   N     0.75023   0.82258   0.15889   0.00000  Uiso   1.00
C277   C     0.36457   0.84675   0.78112   0.00000  Uiso   1.00
C278   C     0.35656   0.79749   0.80703   0.00000  Uiso   1.00
C279   C     0.32845   0.78976   0.82482   0.00000  Uiso   1.00
C280   C     0.32573   0.74198   0.84739   0.00000  Uiso   1.00
C281   C     0.30958   0.67137   0.88696   0.00000  Uiso   1.00
C282   C     0.40493   0.85961   0.82883   0.00000  Uiso   1.00
C283   C     0.41749   0.90411   0.86494   0.00000  Uiso   1.00
C284   C     0.45548   0.90862   0.90586   0.00000  Uiso   1.00
C285   C     0.51444   0.93447   0.97923   0.00000  Uiso   1.00
C286   C     0.36314   0.83442   0.71330   0.00000  Uiso   1.00
C287   C     0.84057   0.35775   0.65227   0.00000  Uiso   1.00
C288   C     0.34339   0.84105   0.59592   0.00000  Uiso   1.00
C289   C     0.33745   0.82779   0.48992   0.00000  Uiso   1.00
C290   C     0.40971   0.77563   0.78957   0.00000  Uiso   1.00
C291   C     0.38109   0.75886   0.81162   0.00000  Uiso   1.00
C292   C     0.37840   0.71107   0.83417   0.00000  Uiso   1.00
C293   C     0.35029   0.70328   0.85199   0.00000  Uiso   1.00
C294   C     0.42945   0.82098   0.83342   0.00000  Uiso   1.00
C295   C     0.46744   0.82542   0.87429   0.00000  Uiso   1.00
C296   C     0.48005   0.86992   0.91046   0.00000  Uiso   1.00
C297   C     0.38766   0.79578   0.71789   0.00000  Uiso   1.00
C298   C     0.39052   0.77905   0.66162   0.00000  Uiso   1.00
C299   C     0.36795   0.80235   0.60052   0.00000  Uiso   1.00
H300   H     0.84548   0.37683   0.77755   0.00000  Uiso   1.00
H301   H     0.30948   0.81967   0.82127   0.00000  Uiso   1.00
H302   H     0.89851   0.43400   0.86138   0.00000  Uiso   1.00
H303   H     0.82160   0.38764   0.64874   0.00000  Uiso   1.00
H304   H     0.28040   0.73927   0.87178   0.00000  Uiso   1.00
H305   H     0.96811   0.48035   0.95634   0.00000  Uiso   1.00
H306   H     0.80594   0.38259   0.50796   0.00000  Uiso   1.00
H307   H     0.42880   0.74555   0.79314   0.00000  Uiso   1.00
H308   H     0.39738   0.68118   0.83771   0.00000  Uiso   1.00
H309   H     0.48641   0.79552   0.87782   0.00000  Uiso   1.00
H310   H     0.40950   0.74916   0.66519   0.00000  Uiso   1.00
H311   H     0.35174   0.62687   0.88513   0.00000  Uiso   1.00
H312   H     0.53946   0.86795   0.96968   0.00000  Uiso   1.00
H313   H     0.37728   0.77019   0.52131   0.00000  Uiso   1.00
O314   O     0.29391   0.64310   0.90752   0.00000  Uiso   1.00
O315   O     0.54018   0.95940   0.01844   0.00000  Uiso   1.00
O316   O     0.32740   0.83114   0.43018   0.00000  Uiso   1.00
N317   N     0.30150   0.72165   0.86880   0.00000  Uiso   1.00
N318   N     0.47700   0.94704   0.94786   0.00000  Uiso   1.00
N319   N     0.82538   0.35565   0.52866   0.00000  Uiso   1.00
N320   N     0.33989   0.66116   0.87598   0.00000  Uiso   1.00
N321   N     0.51539   0.88656   0.95504   0.00000  Uiso   1.00
N322   N     0.36377   0.79517   0.53584   0.00000  Uiso   1.00
C323   C     0.70209   0.99210   0.46707   0.00000  Uiso   1.00
C324   C     0.66172   0.00726   0.42320   0.00000  Uiso   1.00
C325   C     0.63616   0.01820   0.44630   0.00000  Uiso   1.00
C326   C     0.60061   0.03129   0.39813   0.00000  Uiso   1.00
C327   C     0.03939   0.55449   0.34047   0.00000  Uiso   1.00
C328   C     0.70704   0.94168   0.43955   0.00000  Uiso   1.00
C329   C     0.71960   0.89748   0.47640   0.00000  Uiso   1.00
C330   C     0.72220   0.85536   0.44198   0.00000  Uiso   1.00
C331   C     0.73137   0.77675   0.40972   0.00000  Uiso   1.00
C332   C     0.72536   0.02997   0.45168   0.00000  Uiso   1.00
C333   C     0.75333   0.05999   0.49872   0.00000  Uiso   1.00
C334   C     0.77136   0.09221   0.47452   0.00000  Uiso   1.00
C335   C     0.30898   0.65068   0.46108   0.00000  Uiso   1.00
C336   C     0.68439   0.99590   0.34044   0.00000  Uiso   1.00
C337   C     0.65211   0.00932   0.35442   0.00000  Uiso   1.00
C338   C     0.61658   0.02241   0.30619   0.00000  Uiso   1.00
C339   C     0.59098   0.03336   0.32922   0.00000  Uiso   1.00
C340   C     0.69743   0.94374   0.37077   0.00000  Uiso   1.00
C341   C     0.70002   0.90168   0.33629   0.00000  Uiso   1.00
C342   C     0.71257   0.85743   0.37308   0.00000  Uiso   1.00
C343   C     0.71575   0.03203   0.38289   0.00000  Uiso   1.00
C344   C     0.73375   0.06420   0.35861   0.00000  Uiso   1.00
C345   C     0.76173   0.09427   0.40561   0.00000  Uiso   1.00
H346   H     0.70957   0.99049   0.52062   0.00000  Uiso   1.00
H347   H     0.64361   0.01659   0.49954   0.00000  Uiso   1.00
H348   H     0.72704   0.89589   0.52963   0.00000  Uiso   1.00
H349   H     0.76076   0.05839   0.55195   0.00000  Uiso   1.00
H350   H     0.56625   0.04642   0.44582   0.00000  Uiso   1.00
H351   H     0.74216   0.79192   0.50928   0.00000  Uiso   1.00
H352   H     0.31328   0.63457   0.55635   0.00000  Uiso   1.00
H353   H     0.67690   0.99751   0.28688   0.00000  Uiso   1.00
H354   H     0.60915   0.02400   0.25297   0.00000  Uiso   1.00
H355   H     0.69258   0.90329   0.28306   0.00000  Uiso   1.00
H356   H     0.72630   0.06579   0.30538   0.00000  Uiso   1.00
H357   H     0.03827   0.55243   0.24570   0.00000  Uiso   1.00
H358   H     0.71419   0.79793   0.30916   0.00000  Uiso   1.00
H359   H     0.28530   0.64058   0.35622   0.00000  Uiso   1.00
O360   O     0.00828   0.56671   0.32767   0.00000  Uiso   1.00
O361   O     0.73908   0.73282   0.41093   0.00000  Uiso   1.00
O362   O     0.33238   0.68237   0.47267   0.00000  Uiso   1.00
N363   N     0.56896   0.04421   0.40338   0.00000  Uiso   1.00
N364   N     0.73343   0.80626   0.46271   0.00000  Uiso   1.00
N365   N     0.29992   0.62661   0.50671   0.00000  Uiso   1.00
N366   N     0.55391   0.04745   0.29569   0.00000  Uiso   1.00
N367   N     0.71838   0.80950   0.35502   0.00000  Uiso   1.00
N368   N     0.28487   0.62984   0.39902   0.00000  Uiso   1.00
C369   C     0.61909   0.41982   0.30740   0.00000  Uiso   1.00
C370   C     0.63173   0.45551   0.36749   0.00000  Uiso   1.00
C371   C     0.61743   0.45742   0.41308   0.00000  Uiso   1.00
C372   C     0.63274   0.49274   0.46459   0.00000  Uiso   1.00
C373   C     0.64800   0.54327   0.55701   0.00000  Uiso   1.00
C374   C     0.60789   0.45316   0.24540   0.00000  Uiso   1.00
C375   C     0.57354   0.45309   0.18834   0.00000  Uiso   1.00
C376   C     0.56878   0.48643   0.13707   0.00000  Uiso   1.00
C377   C     0.54704   0.53329   0.03993   0.00000  Uiso   1.00
C378   C     0.65371   0.39144   0.31643   0.00000  Uiso   1.00
C379   C     0.65790   0.33948   0.31907   0.00000  Uiso   1.00
C380   C     0.69172   0.32086   0.32758   0.00000  Uiso   1.00
C381   C     0.74112   0.27190   0.34073   0.00000  Uiso   1.00
C382   C     0.67171   0.47915   0.31780   0.00000  Uiso   1.00
C383   C     0.66031   0.48773   0.37314   0.00000  Uiso   1.00
C384   C     0.67564   0.52306   0.42459   0.00000  Uiso   1.00
C385   C     0.66136   0.52502   0.47025   0.00000  Uiso   1.00
C386   C     0.63646   0.48538   0.25105   0.00000  Uiso   1.00
C387   C     0.63175   0.51873   0.19985   0.00000  Uiso   1.00
C388   C     0.59741   0.51872   0.14272   0.00000  Uiso   1.00
C389   C     0.68229   0.42367   0.32208   0.00000  Uiso   1.00
C390   C     0.71611   0.40513   0.33058   0.00000  Uiso   1.00
C391   C     0.72034   0.35315   0.33324   0.00000  Uiso   1.00
H392   H     0.59684   0.39473   0.30300   0.00000  Uiso   1.00
H393   H     0.59531   0.43247   0.40869   0.00000  Uiso   1.00
H394   H     0.55144   0.42814   0.18398   0.00000  Uiso   1.00
H395   H     0.63578   0.31456   0.31470   0.00000  Uiso   1.00
H396   H     0.60621   0.48855   0.52834   0.00000  Uiso   1.00
H397   H     0.51370   0.47940   0.05452   0.00000  Uiso   1.00
H398   H     0.69155   0.23988   0.33016   0.00000  Uiso   1.00
H399   H     0.69395   0.50424   0.32220   0.00000  Uiso   1.00
H400   H     0.69775   0.54799   0.42895   0.00000  Uiso   1.00
H401   H     0.65387   0.54366   0.20424   0.00000  Uiso   1.00
H402   H     0.73822   0.43008   0.33496   0.00000  Uiso   1.00
H403   H     0.68935   0.58231   0.54479   0.00000  Uiso   1.00
H404   H     0.59684   0.57316   0.07096   0.00000  Uiso   1.00
H405   H     0.77469   0.33364   0.34661   0.00000  Uiso   1.00
O406   O     0.64852   0.56225   0.60643   0.00000  Uiso   1.00
O407   O     0.52715   0.55024   0.98479   0.00000  Uiso   1.00
O408   O     0.26048   0.73600   0.34643   0.00000  Uiso   1.00
N409   N     0.62526   0.50460   0.51757   0.00000  Uiso   1.00
N410   N     0.53876   0.49606   0.07458   0.00000  Uiso   1.00
N411   N     0.70504   0.27213   0.33226   0.00000  Uiso   1.00
N412   N     0.67000   0.55505   0.52642   0.00000  Uiso   1.00
N413   N     0.58350   0.54651   0.08343   0.00000  Uiso   1.00
N414   N     0.74977   0.32258   0.34111   0.00000  Uiso   1.00
C415   C     0.86457   0.34675   0.78112   0.00000  Uiso   1.00
C416   C     0.85656   0.29749   0.80703   0.00000  Uiso   1.00
C417   C     0.82845   0.28976   0.82482   0.00000  Uiso   1.00
C418   C     0.82573   0.24198   0.84739   0.00000  Uiso   1.00
C419   C     0.80958   0.17137   0.88696   0.00000  Uiso   1.00
C420   C     0.90493   0.35961   0.82883   0.00000  Uiso   1.00
C421   C     0.91749   0.40411   0.86494   0.00000  Uiso   1.00
C422   C     0.95548   0.40862   0.90586   0.00000  Uiso   1.00
C423   C     0.01444   0.43447   0.97923   0.00000  Uiso   1.00
C424   C     0.86314   0.33442   0.71330   0.00000  Uiso   1.00
C425   C     0.34057   0.85775   0.65227   0.00000  Uiso   1.00
C426   C     0.84339   0.34105   0.59592   0.00000  Uiso   1.00
C427   C     0.83745   0.32779   0.48992   0.00000  Uiso   1.00
C428   C     0.90971   0.27563   0.78957   0.00000  Uiso   1.00
C429   C     0.88109   0.25886   0.81162   0.00000  Uiso   1.00
C430   C     0.87840   0.21107   0.83417   0.00000  Uiso   1.00
C431   C     0.85029   0.20328   0.85199   0.00000  Uiso   1.00
C432   C     0.92945   0.32098   0.83342   0.00000  Uiso   1.00
C433   C     0.96744   0.32542   0.87429   0.00000  Uiso   1.00
C434   C     0.98005   0.36992   0.91046   0.00000  Uiso   1.00
C435   C     0.88766   0.29578   0.71789   0.00000  Uiso   1.00
C436   C     0.89052   0.27905   0.66162   0.00000  Uiso   1.00
C437   C     0.86795   0.30235   0.60052   0.00000  Uiso   1.00
H438   H     0.34548   0.87683   0.77755   0.00000  Uiso   1.00
H439   H     0.80948   0.31967   0.82127   0.00000  Uiso   1.00
H440   H     0.39851   0.93400   0.86138   0.00000  Uiso   1.00
H441   H     0.32160   0.88764   0.64874   0.00000  Uiso   1.00
H442   H     0.78040   0.23927   0.87178   0.00000  Uiso   1.00
H443   H     0.46811   0.98035   0.95634   0.00000  Uiso   1.00
H444   H     0.30594   0.88259   0.50796   0.00000  Uiso   1.00
H445   H     0.92880   0.24555   0.79314   0.00000  Uiso   1.00
H446   H     0.89738   0.18118   0.83771   0.00000  Uiso   1.00
H447   H     0.98641   0.29552   0.87782   0.00000  Uiso   1.00
H448   H     0.90950   0.24916   0.66519   0.00000  Uiso   1.00
H449   H     0.85174   0.12687   0.88513   0.00000  Uiso   1.00
H450   H     0.03946   0.36795   0.96968   0.00000  Uiso   1.00
H451   H     0.87728   0.27019   0.52131   0.00000  Uiso   1.00
O452   O     0.79391   0.14310   0.90752   0.00000  Uiso   1.00
O453   O     0.04018   0.45940   0.01844   0.00000  Uiso   1.00
O454   O     0.82740   0.33114   0.43018   0.00000  Uiso   1.00
N455   N     0.80150   0.22165   0.86880   0.00000  Uiso   1.00
N456   N     0.97700   0.44704   0.94786   0.00000  Uiso   1.00
N457   N     0.32538   0.85565   0.52866   0.00000  Uiso   1.00
N458   N     0.83989   0.16116   0.87598   0.00000  Uiso   1.00
N459   N     0.01539   0.38656   0.95504   0.00000  Uiso   1.00
N460   N     0.86377   0.29517   0.53584   0.00000  Uiso   1.00
C461   C     0.20209   0.49210   0.46707   0.00000  Uiso   1.00
C462   C     0.16172   0.50726   0.42320   0.00000  Uiso   1.00
C463   C     0.13616   0.51820   0.44630   0.00000  Uiso   1.00
C464   C     0.10061   0.53129   0.39813   0.00000  Uiso   1.00
C465   C     0.53939   0.05449   0.34047   0.00000  Uiso   1.00
C466   C     0.20704   0.44168   0.43955   0.00000  Uiso   1.00
C467   C     0.21960   0.39748   0.47640   0.00000  Uiso   1.00
C468   C     0.22220   0.35536   0.44198   0.00000  Uiso   1.00
C469   C     0.23137   0.27675   0.40972   0.00000  Uiso   1.00
C470   C     0.22536   0.52997   0.45168   0.00000  Uiso   1.00
C471   C     0.25333   0.55999   0.49872   0.00000  Uiso   1.00
C472   C     0.27136   0.59221   0.47452   0.00000  Uiso   1.00
C473   C     0.80898   0.15068   0.46108   0.00000  Uiso   1.00
C474   C     0.18439   0.49590   0.34044   0.00000  Uiso   1.00
C475   C     0.15211   0.50932   0.35442   0.00000  Uiso   1.00
C476   C     0.11658   0.52241   0.30619   0.00000  Uiso   1.00
C477   C     0.09098   0.53336   0.32922   0.00000  Uiso   1.00
C478   C     0.19743   0.44374   0.37077   0.00000  Uiso   1.00
C479   C     0.20002   0.40168   0.33629   0.00000  Uiso   1.00
C480   C     0.21257   0.35743   0.37308   0.00000  Uiso   1.00
C481   C     0.21575   0.53203   0.38289   0.00000  Uiso   1.00
C482   C     0.23375   0.56420   0.35861   0.00000  Uiso   1.00
C483   C     0.26173   0.59427   0.40561   0.00000  Uiso   1.00
H484   H     0.20957   0.49049   0.52062   0.00000  Uiso   1.00
H485   H     0.14361   0.51659   0.49954   0.00000  Uiso   1.00
H486   H     0.22704   0.39589   0.52963   0.00000  Uiso   1.00
H487   H     0.26076   0.55839   0.55195   0.00000  Uiso   1.00
H488   H     0.06625   0.54642   0.44582   0.00000  Uiso   1.00
H489   H     0.24216   0.29192   0.50928   0.00000  Uiso   1.00
H490   H     0.81328   0.13457   0.55635   0.00000  Uiso   1.00
H491   H     0.17690   0.49751   0.28688   0.00000  Uiso   1.00
H492   H     0.10915   0.52400   0.25297   0.00000  Uiso   1.00
H493   H     0.19258   0.40329   0.28306   0.00000  Uiso   1.00
H494   H     0.22630   0.56579   0.30538   0.00000  Uiso   1.00
H495   H     0.53827   0.05243   0.24570   0.00000  Uiso   1.00
H496   H     0.21419   0.29793   0.30916   0.00000  Uiso   1.00
H497   H     0.78530   0.14058   0.35622   0.00000  Uiso   1.00
O498   O     0.50828   0.06671   0.32767   0.00000  Uiso   1.00
O499   O     0.23908   0.23282   0.41093   0.00000  Uiso   1.00
O500   O     0.83238   0.18237   0.47267   0.00000  Uiso   1.00
N501   N     0.06896   0.54421   0.40338   0.00000  Uiso   1.00
N502   N     0.23343   0.30626   0.46271   0.00000  Uiso   1.00
N503   N     0.79992   0.12661   0.50671   0.00000  Uiso   1.00
N504   N     0.05391   0.54745   0.29569   0.00000  Uiso   1.00
N505   N     0.21838   0.30950   0.35502   0.00000  Uiso   1.00
N506   N     0.78487   0.12984   0.39902   0.00000  Uiso   1.00
C507   C     0.11909   0.91982   0.30740   0.00000  Uiso   1.00
C508   C     0.13173   0.95551   0.36749   0.00000  Uiso   1.00
C509   C     0.11743   0.95742   0.41308   0.00000  Uiso   1.00
C510   C     0.13274   0.99274   0.46459   0.00000  Uiso   1.00
C511   C     0.14800   0.04327   0.55701   0.00000  Uiso   1.00
C512   C     0.10789   0.95316   0.24540   0.00000  Uiso   1.00
C513   C     0.07354   0.95309   0.18834   0.00000  Uiso   1.00
C514   C     0.06878   0.98643   0.13707   0.00000  Uiso   1.00
C515   C     0.04704   0.03329   0.03993   0.00000  Uiso   1.00
C516   C     0.15371   0.89144   0.31643   0.00000  Uiso   1.00
C517   C     0.15790   0.83948   0.31907   0.00000  Uiso   1.00
C518   C     0.19172   0.82086   0.32758   0.00000  Uiso   1.00
C519   C     0.24112   0.77190   0.34073   0.00000  Uiso   1.00
C520   C     0.17171   0.97915   0.31780   0.00000  Uiso   1.00
C521   C     0.16031   0.98773   0.37314   0.00000  Uiso   1.00
C522   C     0.17564   0.02306   0.42459   0.00000  Uiso   1.00
C523   C     0.16136   0.02502   0.47025   0.00000  Uiso   1.00
C524   C     0.13646   0.98538   0.25105   0.00000  Uiso   1.00
C525   C     0.13175   0.01873   0.19985   0.00000  Uiso   1.00
C526   C     0.09741   0.01872   0.14272   0.00000  Uiso   1.00
C527   C     0.18229   0.92367   0.32208   0.00000  Uiso   1.00
C528   C     0.21611   0.90513   0.33058   0.00000  Uiso   1.00
C529   C     0.22034   0.85315   0.33324   0.00000  Uiso   1.00
H530   H     0.09684   0.89473   0.30300   0.00000  Uiso   1.00
H531   H     0.09531   0.93247   0.40869   0.00000  Uiso   1.00
H532   H     0.05144   0.92814   0.18398   0.00000  Uiso   1.00
H533   H     0.13578   0.81456   0.31470   0.00000  Uiso   1.00
H534   H     0.10621   0.98855   0.52834   0.00000  Uiso   1.00
H535   H     0.01370   0.97940   0.05452   0.00000  Uiso   1.00
H536   H     0.19155   0.73988   0.33016   0.00000  Uiso   1.00
H537   H     0.19395   0.00424   0.32220   0.00000  Uiso   1.00
H538   H     0.19775   0.04799   0.42895   0.00000  Uiso   1.00
H539   H     0.15387   0.04366   0.20424   0.00000  Uiso   1.00
H540   H     0.23822   0.93008   0.33496   0.00000  Uiso   1.00
H541   H     0.18935   0.08231   0.54479   0.00000  Uiso   1.00
H542   H     0.09684   0.07316   0.07096   0.00000  Uiso   1.00
H543   H     0.27469   0.83364   0.34661   0.00000  Uiso   1.00
O544   O     0.14852   0.06225   0.60643   0.00000  Uiso   1.00
O545   O     0.02715   0.05024   0.98479   0.00000  Uiso   1.00
O546   O     0.76048   0.23600   0.34643   0.00000  Uiso   1.00
N547   N     0.12526   0.00460   0.51757   0.00000  Uiso   1.00
N548   N     0.03876   0.99606   0.07458   0.00000  Uiso   1.00
N549   N     0.20504   0.77213   0.33226   0.00000  Uiso   1.00
N550   N     0.17000   0.05505   0.52642   0.00000  Uiso   1.00
N551   N     0.08350   0.04651   0.08343   0.00000  Uiso   1.00
N552   N     0.24977   0.82258   0.34111   0.00000  Uiso   1.00
C553   C     0.36457   0.15325   0.28112   0.00000  Uiso   1.00
C554   C     0.35656   0.20251   0.30703   0.00000  Uiso   1.00
C555   C     0.32845   0.21024   0.32482   0.00000  Uiso   1.00
C556   C     0.32573   0.25802   0.34739   0.00000  Uiso   1.00
C557   C     0.30958   0.32863   0.38696   0.00000  Uiso   1.00
C558   C     0.40493   0.14039   0.32883   0.00000  Uiso   1.00
C559   C     0.41749   0.09589   0.36494   0.00000  Uiso   1.00
C560   C     0.45548   0.09138   0.40586   0.00000  Uiso   1.00
C561   C     0.51444   0.06553   0.47923   0.00000  Uiso   1.00
C562   C     0.36314   0.16558   0.21330   0.00000  Uiso   1.00
C563   C     0.84057   0.64225   0.15227   0.00000  Uiso   1.00
C564   C     0.34339   0.15895   0.09592   0.00000  Uiso   1.00
C565   C     0.33745   0.17221   0.98992   0.00000  Uiso   1.00
C566   C     0.40971   0.22437   0.28957   0.00000  Uiso   1.00
C567   C     0.38109   0.24114   0.31162   0.00000  Uiso   1.00
C568   C     0.37840   0.28893   0.33417   0.00000  Uiso   1.00
C569   C     0.35029   0.29672   0.35199   0.00000  Uiso   1.00
C570   C     0.42945   0.17902   0.33342   0.00000  Uiso   1.00
C571   C     0.46744   0.17458   0.37429   0.00000  Uiso   1.00
C572   C     0.48005   0.13008   0.41046   0.00000  Uiso   1.00
C573   C     0.38766   0.20422   0.21789   0.00000  Uiso   1.00
C574   C     0.39052   0.22095   0.16162   0.00000  Uiso   1.00
C575   C     0.36795   0.19765   0.10052   0.00000  Uiso   1.00
H576   H     0.84548   0.62317   0.27755   0.00000  Uiso   1.00
H577   H     0.30948   0.18033   0.32127   0.00000  Uiso   1.00
H578   H     0.89851   0.56600   0.36138   0.00000  Uiso   1.00
H579   H     0.82160   0.61236   0.14874   0.00000  Uiso   1.00
H580   H     0.28040   0.26073   0.37178   0.00000  Uiso   1.00
H581   H     0.96811   0.51965   0.45634   0.00000  Uiso   1.00
H582   H     0.80594   0.61741   0.00796   0.00000  Uiso   1.00
H583   H     0.42880   0.25445   0.29314   0.00000  Uiso   1.00
H584   H     0.39738   0.31882   0.33771   0.00000  Uiso   1.00
H585   H     0.48641   0.20448   0.37782   0.00000  Uiso   1.00
H586   H     0.40950   0.25084   0.16519   0.00000  Uiso   1.00
H587   H     0.35174   0.37313   0.38513   0.00000  Uiso   1.00
H588   H     0.53946   0.13205   0.46968   0.00000  Uiso   1.00
H589   H     0.37728   0.22981   0.02131   0.00000  Uiso   1.00
O590   O     0.29391   0.35690   0.40752   0.00000  Uiso   1.00
O591   O     0.54018   0.04060   0.51844   0.00000  Uiso   1.00
O592   O     0.32740   0.16886   0.93018   0.00000  Uiso   1.00
N593   N     0.30150   0.27835   0.36880   0.00000  Uiso   1.00
N594   N     0.47700   0.05296   0.44786   0.00000  Uiso   1.00
N595   N     0.82538   0.64435   0.02866   0.00000  Uiso   1.00
N596   N     0.33989   0.33884   0.37598   0.00000  Uiso   1.00
N597   N     0.51539   0.11344   0.45504   0.00000  Uiso   1.00
N598   N     0.36377   0.20483   0.03584   0.00000  Uiso   1.00
C599   C     0.70209   0.00790   0.96707   0.00000  Uiso   1.00
C600   C     0.66172   0.99274   0.92320   0.00000  Uiso   1.00
C601   C     0.63616   0.98180   0.94630   0.00000  Uiso   1.00
C602   C     0.60061   0.96871   0.89813   0.00000  Uiso   1.00
C603   C     0.03939   0.44551   0.84047   0.00000  Uiso   1.00
C604   C     0.70704   0.05832   0.93955   0.00000  Uiso   1.00
C605   C     0.71960   0.10252   0.97640   0.00000  Uiso   1.00
C606   C     0.72220   0.14464   0.94198   0.00000  Uiso   1.00
C607   C     0.73137   0.22325   0.90972   0.00000  Uiso   1.00
C608   C     0.72536   0.97003   0.95168   0.00000  Uiso   1.00
C609   C     0.75333   0.94001   0.99872   0.00000  Uiso   1.00
C610   C     0.77136   0.90779   0.97452   0.00000  Uiso   1.00
C611   C     0.30898   0.34932   0.96108   0.00000  Uiso   1.00
C612   C     0.68439   0.00410   0.84044   0.00000  Uiso   1.00
C613   C     0.65211   0.99068   0.85442   0.00000  Uiso   1.00
C614   C     0.61658   0.97759   0.80619   0.00000  Uiso   1.00
C615   C     0.59098   0.96664   0.82922   0.00000  Uiso   1.00
C616   C     0.69743   0.05626   0.87077   0.00000  Uiso   1.00
C617   C     0.70002   0.09832   0.83629   0.00000  Uiso   1.00
C618   C     0.71257   0.14257   0.87308   0.00000  Uiso   1.00
C619   C     0.71575   0.96797   0.88289   0.00000  Uiso   1.00
C620   C     0.73375   0.93580   0.85861   0.00000  Uiso   1.00
C621   C     0.76173   0.90573   0.90561   0.00000  Uiso   1.00
H622   H     0.70957   0.00951   0.02062   0.00000  Uiso   1.00
H623   H     0.64361   0.98341   0.99954   0.00000  Uiso   1.00
H624   H     0.72704   0.10411   0.02963   0.00000  Uiso   1.00
H625   H     0.76076   0.94161   0.05195   0.00000  Uiso   1.00
H626   H     0.56625   0.95358   0.94582   0.00000  Uiso   1.00
H627   H     0.74216   0.20808   0.00928   0.00000  Uiso   1.00
H628   H     0.31328   0.36543   0.05635   0.00000  Uiso   1.00
H629   H     0.67690   0.00249   0.78688   0.00000  Uiso   1.00
H630   H     0.60915   0.97600   0.75297   0.00000  Uiso   1.00
H631   H     0.69258   0.09671   0.78306   0.00000  Uiso   1.00
H632   H     0.72630   0.93421   0.80538   0.00000  Uiso   1.00
H633   H     0.03827   0.44757   0.74570   0.00000  Uiso   1.00
H634   H     0.71419   0.20207   0.80916   0.00000  Uiso   1.00
H635   H     0.28530   0.35942   0.85622   0.00000  Uiso   1.00
O636   O     0.00828   0.43329   0.82767   0.00000  Uiso   1.00
O637   O     0.73908   0.26718   0.91093   0.00000  Uiso   1.00
O638   O     0.33238   0.31763   0.97267   0.00000  Uiso   1.00
N639   N     0.56896   0.95579   0.90338   0.00000  Uiso   1.00
N640   N     0.73343   0.19374   0.96271   0.00000  Uiso   1.00
N641   N     0.29992   0.37339   0.00671   0.00000  Uiso   1.00
N642   N     0.55391   0.95255   0.79569   0.00000  Uiso   1.00
N643   N     0.71838   0.19050   0.85502   0.00000  Uiso   1.00
N644   N     0.28487   0.37016   0.89902   0.00000  Uiso   1.00
C645   C     0.61909   0.58018   0.80740   0.00000  Uiso   1.00
C646   C     0.63173   0.54449   0.86749   0.00000  Uiso   1.00
C647   C     0.61743   0.54258   0.91308   0.00000  Uiso   1.00
C648   C     0.63274   0.50726   0.96459   0.00000  Uiso   1.00
C649   C     0.64800   0.45673   0.05701   0.00000  Uiso   1.00
C650   C     0.60789   0.54684   0.74540   0.00000  Uiso   1.00
C651   C     0.57354   0.54691   0.68834   0.00000  Uiso   1.00
C652   C     0.56878   0.51357   0.63707   0.00000  Uiso   1.00
C653   C     0.54704   0.46671   0.53993   0.00000  Uiso   1.00
C654   C     0.65371   0.60856   0.81643   0.00000  Uiso   1.00
C655   C     0.65790   0.66052   0.81907   0.00000  Uiso   1.00
C656   C     0.69172   0.67914   0.82758   0.00000  Uiso   1.00
C657   C     0.74112   0.72810   0.84073   0.00000  Uiso   1.00
C658   C     0.67171   0.52085   0.81780   0.00000  Uiso   1.00
C659   C     0.66031   0.51227   0.87314   0.00000  Uiso   1.00
C660   C     0.67564   0.47694   0.92459   0.00000  Uiso   1.00
C661   C     0.66136   0.47498   0.97025   0.00000  Uiso   1.00
C662   C     0.63646   0.51462   0.75105   0.00000  Uiso   1.00
C663   C     0.63175   0.48127   0.69985   0.00000  Uiso   1.00
C664   C     0.59741   0.48128   0.64272   0.00000  Uiso   1.00
C665   C     0.68229   0.57633   0.82208   0.00000  Uiso   1.00
C666   C     0.71611   0.59487   0.83058   0.00000  Uiso   1.00
C667   C     0.72034   0.64685   0.83324   0.00000  Uiso   1.00
H668   H     0.59684   0.60527   0.80300   0.00000  Uiso   1.00
H669   H     0.59531   0.56753   0.90869   0.00000  Uiso   1.00
H670   H     0.55144   0.57186   0.68398   0.00000  Uiso   1.00
H671   H     0.63578   0.68544   0.81470   0.00000  Uiso   1.00
H672   H     0.60621   0.51145   0.02834   0.00000  Uiso   1.00
H673   H     0.51370   0.52060   0.55452   0.00000  Uiso   1.00
H674   H     0.69155   0.76012   0.83016   0.00000  Uiso   1.00
H675   H     0.69395   0.49576   0.82220   0.00000  Uiso   1.00
H676   H     0.69775   0.45201   0.92895   0.00000  Uiso   1.00
H677   H     0.65387   0.45634   0.70424   0.00000  Uiso   1.00
H678   H     0.73822   0.56992   0.83496   0.00000  Uiso   1.00
H679   H     0.68935   0.41769   0.04479   0.00000  Uiso   1.00
H680   H     0.59684   0.42684   0.57096   0.00000  Uiso   1.00
H681   H     0.77469   0.66636   0.84661   0.00000  Uiso   1.00
O682   O     0.64852   0.43775   0.10643   0.00000  Uiso   1.00
O683   O     0.52715   0.44976   0.48479   0.00000  Uiso   1.00
O684   O     0.26048   0.26400   0.84643   0.00000  Uiso   1.00
N685   N     0.62526   0.49540   0.01757   0.00000  Uiso   1.00
N686   N     0.53876   0.50394   0.57458   0.00000  Uiso   1.00
N687   N     0.70504   0.72787   0.83226   0.00000  Uiso   1.00
N688   N     0.67000   0.44495   0.02642   0.00000  Uiso   1.00
N689   N     0.58350   0.45349   0.58343   0.00000  Uiso   1.00
N690   N     0.74977   0.67742   0.84111   0.00000  Uiso   1.00
C691   C     0.86457   0.65325   0.28112   0.00000  Uiso   1.00
C692   C     0.85656   0.70251   0.30703   0.00000  Uiso   1.00
C693   C     0.82845   0.71024   0.32482   0.00000  Uiso   1.00
C694   C     0.82573   0.75802   0.34739   0.00000  Uiso   1.00
C695   C     0.80958   0.82863   0.38696   0.00000  Uiso   1.00
C696   C     0.90493   0.64039   0.32883   0.00000  Uiso   1.00
C697   C     0.91749   0.59589   0.36494   0.00000  Uiso   1.00
C698   C     0.95548   0.59138   0.40586   0.00000  Uiso   1.00
C699   C     0.01444   0.56553   0.47923   0.00000  Uiso   1.00
C700   C     0.86314   0.66558   0.21330   0.00000  Uiso   1.00
C701   C     0.34057   0.14225   0.15227   0.00000  Uiso   1.00
C702   C     0.84339   0.65895   0.09592   0.00000  Uiso   1.00
C703   C     0.83745   0.67221   0.98992   0.00000  Uiso   1.00
C704   C     0.90971   0.72437   0.28957   0.00000  Uiso   1.00
C705   C     0.88109   0.74114   0.31162   0.00000  Uiso   1.00
C706   C     0.87840   0.78893   0.33417   0.00000  Uiso   1.00
C707   C     0.85029   0.79672   0.35199   0.00000  Uiso   1.00
C708   C     0.92945   0.67902   0.33342   0.00000  Uiso   1.00
C709   C     0.96744   0.67458   0.37429   0.00000  Uiso   1.00
C710   C     0.98005   0.63008   0.41046   0.00000  Uiso   1.00
C711   C     0.88766   0.70422   0.21789   0.00000  Uiso   1.00
C712   C     0.89052   0.72095   0.16162   0.00000  Uiso   1.00
C713   C     0.86795   0.69765   0.10052   0.00000  Uiso   1.00
H714   H     0.34548   0.12317   0.27755   0.00000  Uiso   1.00
H715   H     0.80948   0.68033   0.32127   0.00000  Uiso   1.00
H716   H     0.39851   0.06600   0.36138   0.00000  Uiso   1.00
H717   H     0.32160   0.11236   0.14874   0.00000  Uiso   1.00
H718   H     0.78040   0.76073   0.37178   0.00000  Uiso   1.00
H719   H     0.46811   0.01965   0.45634   0.00000  Uiso   1.00
H720   H     0.30594   0.11741   0.00796   0.00000  Uiso   1.00
H721   H     0.92880   0.75445   0.29314   0.00000  Uiso   1.00
H722   H     0.89738   0.81882   0.33771   0.00000  Uiso   1.00
H723   H     0.98641   0.70448   0.37782   0.00000  Uiso   1.00
H724   H     0.90950   0.75084   0.16519   0.00000  Uiso   1.00
H725   H     0.85174   0.87313   0.38513   0.00000  Uiso   1.00
H726   H     0.03946   0.63205   0.46968   0.00000  Uiso   1.00
H727   H     0.87728   0.72981   0.02131   0.00000  Uiso   1.00
O728   O     0.79391   0.85690   0.40752   0.00000  Uiso   1.00
O729   O     0.04018   0.54060   0.51844   0.00000  Uiso   1.00
O730   O     0.82740   0.66886   0.93018   0.00000  Uiso   1.00
N731   N     0.80150   0.77835   0.36880   0.00000  Uiso   1.00
N732   N     0.97700   0.55296   0.44786   0.00000  Uiso   1.00
N733   N     0.32538   0.14435   0.02866   0.00000  Uiso   1.00
N734   N     0.83989   0.83884   0.37598   0.00000  Uiso   1.00
N735   N     0.01539   0.61344   0.45504   0.00000  Uiso   1.00
N736   N     0.86377   0.70483   0.03584   0.00000  Uiso   1.00
C737   C     0.20209   0.50790   0.96707   0.00000  Uiso   1.00
C738   C     0.16172   0.49274   0.92320   0.00000  Uiso   1.00
C739   C     0.13616   0.48180   0.94630   0.00000  Uiso   1.00
C740   C     0.10061   0.46871   0.89813   0.00000  Uiso   1.00
C741   C     0.53939   0.94551   0.84047   0.00000  Uiso   1.00
C742   C     0.20704   0.55832   0.93955   0.00000  Uiso   1.00
C743   C     0.21960   0.60252   0.97640   0.00000  Uiso   1.00
C744   C     0.22220   0.64464   0.94198   0.00000  Uiso   1.00
C745   C     0.23137   0.72325   0.90972   0.00000  Uiso   1.00
C746   C     0.22536   0.47003   0.95168   0.00000  Uiso   1.00
C747   C     0.25333   0.44001   0.99872   0.00000  Uiso   1.00
C748   C     0.27136   0.40779   0.97452   0.00000  Uiso   1.00
C749   C     0.80898   0.84932   0.96108   0.00000  Uiso   1.00
C750   C     0.18439   0.50410   0.84044   0.00000  Uiso   1.00
C751   C     0.15211   0.49068   0.85442   0.00000  Uiso   1.00
C752   C     0.11658   0.47759   0.80619   0.00000  Uiso   1.00
C753   C     0.09098   0.46664   0.82922   0.00000  Uiso   1.00
C754   C     0.19743   0.55626   0.87077   0.00000  Uiso   1.00
C755   C     0.20002   0.59832   0.83629   0.00000  Uiso   1.00
C756   C     0.21257   0.64257   0.87308   0.00000  Uiso   1.00
C757   C     0.21575   0.46797   0.88289   0.00000  Uiso   1.00
C758   C     0.23375   0.43580   0.85861   0.00000  Uiso   1.00
C759   C     0.26173   0.40573   0.90561   0.00000  Uiso   1.00
H760   H     0.20957   0.50951   0.02062   0.00000  Uiso   1.00
H761   H     0.14361   0.48341   0.99954   0.00000  Uiso   1.00
H762   H     0.22704   0.60411   0.02963   0.00000  Uiso   1.00
H763   H     0.26076   0.44161   0.05195   0.00000  Uiso   1.00
H764   H     0.06625   0.45358   0.94582   0.00000  Uiso   1.00
H765   H     0.24216   0.70808   0.00928   0.00000  Uiso   1.00
H766   H     0.81328   0.86543   0.05635   0.00000  Uiso   1.00
H767   H     0.17690   0.50249   0.78688   0.00000  Uiso   1.00
H768   H     0.10915   0.47600   0.75297   0.00000  Uiso   1.00
H769   H     0.19258   0.59671   0.78306   0.00000  Uiso   1.00
H770   H     0.22630   0.43421   0.80538   0.00000  Uiso   1.00
H771   H     0.53827   0.94757   0.74570   0.00000  Uiso   1.00
H772   H     0.21419   0.70207   0.80916   0.00000  Uiso   1.00
H773   H     0.78530   0.85942   0.85622   0.00000  Uiso   1.00
O774   O     0.50828   0.93329   0.82767   0.00000  Uiso   1.00
O775   O     0.23908   0.76718   0.91093   0.00000  Uiso   1.00
O776   O     0.83238   0.81763   0.97267   0.00000  Uiso   1.00
N777   N     0.06896   0.45579   0.90338   0.00000  Uiso   1.00
N778   N     0.23343   0.69374   0.96271   0.00000  Uiso   1.00
N779   N     0.79992   0.87339   0.00671   0.00000  Uiso   1.00
N780   N     0.05391   0.45255   0.79569   0.00000  Uiso   1.00
N781   N     0.21838   0.69050   0.85502   0.00000  Uiso   1.00
N782   N     0.78487   0.87016   0.89902   0.00000  Uiso   1.00
C783   C     0.11909   0.08018   0.80740   0.00000  Uiso   1.00
C784   C     0.13173   0.04449   0.86749   0.00000  Uiso   1.00
C785   C     0.11743   0.04258   0.91308   0.00000  Uiso   1.00
C786   C     0.13274   0.00726   0.96459   0.00000  Uiso   1.00
C787   C     0.14800   0.95673   0.05701   0.00000  Uiso   1.00
C788   C     0.10789   0.04684   0.74540   0.00000  Uiso   1.00
C789   C     0.07354   0.04691   0.68834   0.00000  Uiso   1.00
C790   C     0.06878   0.01357   0.63707   0.00000  Uiso   1.00
C791   C     0.04704   0.96671   0.53993   0.00000  Uiso   1.00
C792   C     0.15371   0.10856   0.81643   0.00000  Uiso   1.00
C793   C     0.15790   0.16052   0.81907   0.00000  Uiso   1.00
C794   C     0.19172   0.17914   0.82758   0.00000  Uiso   1.00
C795   C     0.24112   0.22810   0.84073   0.00000  Uiso   1.00
C796   C     0.17171   0.02085   0.81780   0.00000  Uiso   1.00
C797   C     0.16031   0.01227   0.87314   0.00000  Uiso   1.00
C798   C     0.17564   0.97694   0.92459   0.00000  Uiso   1.00
C799   C     0.16136   0.97498   0.97025   0.00000  Uiso   1.00
C800   C     0.13646   0.01462   0.75105   0.00000  Uiso   1.00
C801   C     0.13175   0.98127   0.69985   0.00000  Uiso   1.00
C802   C     0.09741   0.98128   0.64272   0.00000  Uiso   1.00
C803   C     0.18229   0.07633   0.82208   0.00000  Uiso   1.00
C804   C     0.21611   0.09487   0.83058   0.00000  Uiso   1.00
C805   C     0.22034   0.14685   0.83324   0.00000  Uiso   1.00
H806   H     0.09684   0.10527   0.80300   0.00000  Uiso   1.00
H807   H     0.09531   0.06753   0.90869   0.00000  Uiso   1.00
H808   H     0.05144   0.07186   0.68398   0.00000  Uiso   1.00
H809   H     0.13578   0.18544   0.81470   0.00000  Uiso   1.00
H810   H     0.10621   0.01145   0.02834   0.00000  Uiso   1.00
H811   H     0.01370   0.02060   0.55452   0.00000  Uiso   1.00
H812   H     0.19155   0.26012   0.83016   0.00000  Uiso   1.00
H813   H     0.19395   0.99576   0.82220   0.00000  Uiso   1.00
H814   H     0.19775   0.95201   0.92895   0.00000  Uiso   1.00
H815   H     0.15387   0.95634   0.70424   0.00000  Uiso   1.00
H816   H     0.23822   0.06992   0.83496   0.00000  Uiso   1.00
H817   H     0.18935   0.91769   0.04479   0.00000  Uiso   1.00
H818   H     0.09684   0.92684   0.57096   0.00000  Uiso   1.00
H819   H     0.27469   0.16636   0.84661   0.00000  Uiso   1.00
O820   O     0.14852   0.93775   0.10643   0.00000  Uiso   1.00
O821   O     0.02715   0.94976   0.48479   0.00000  Uiso   1.00
O822   O     0.76048   0.76400   0.84643   0.00000  Uiso   1.00
N823   N     0.12526   0.99540   0.01757   0.00000  Uiso   1.00
N824   N     0.03876   0.00394   0.57458   0.00000  Uiso   1.00
N825   N     0.20504   0.22787   0.83226   0.00000  Uiso   1.00
N826   N     0.17000   0.94495   0.02642   0.00000  Uiso   1.00
N827   N     0.08350   0.95349   0.58343   0.00000  Uiso   1.00
N828   N     0.24977   0.17742   0.84111   0.00000  Uiso   1.00
C829   C     0.63543   0.15325   0.21888   0.00000  Uiso   1.00
C830   C     0.64344   0.20251   0.19297   0.00000  Uiso   1.00
C831   C     0.67155   0.21024   0.17518   0.00000  Uiso   1.00
C832   C     0.67427   0.25802   0.15261   0.00000  Uiso   1.00
C833   C     0.69042   0.32863   0.11304   0.00000  Uiso   1.00
C834   C     0.59507   0.14039   0.17117   0.00000  Uiso   1.00
C835   C     0.58251   0.09589   0.13506   0.00000  Uiso   1.00
C836   C     0.54452   0.09138   0.09414   0.00000  Uiso   1.00
C837   C     0.48556   0.06553   0.02077   0.00000  Uiso   1.00
C838   C     0.63686   0.16558   0.28670   0.00000  Uiso   1.00
C839   C     0.15943   0.64225   0.34773   0.00000  Uiso   1.00
C840   C     0.65661   0.15895   0.40408   0.00000  Uiso   1.00
C841   C     0.66255   0.17221   0.51008   0.00000  Uiso   1.00
C842   C     0.59029   0.22437   0.21043   0.00000  Uiso   1.00
C843   C     0.61891   0.24114   0.18838   0.00000  Uiso   1.00
C844   C     0.62160   0.28893   0.16583   0.00000  Uiso   1.00
C845   C     0.64971   0.29672   0.14801   0.00000  Uiso   1.00
C846   C     0.57055   0.17902   0.16658   0.00000  Uiso   1.00
C847   C     0.53256   0.17458   0.12571   0.00000  Uiso   1.00
C848   C     0.51995   0.13008   0.08954   0.00000  Uiso   1.00
C849   C     0.61234   0.20422   0.28211   0.00000  Uiso   1.00
C850   C     0.60948   0.22095   0.33838   0.00000  Uiso   1.00
C851   C     0.63205   0.19765   0.39948   0.00000  Uiso   1.00
H852   H     0.15452   0.62317   0.22245   0.00000  Uiso   1.00
H853   H     0.69052   0.18033   0.17873   0.00000  Uiso   1.00
H854   H     0.10149   0.56600   0.13862   0.00000  Uiso   1.00
H855   H     0.17840   0.61236   0.35126   0.00000  Uiso   1.00
H856   H     0.71960   0.26073   0.12822   0.00000  Uiso   1.00
H857   H     0.03189   0.51965   0.04366   0.00000  Uiso   1.00
H858   H     0.19406   0.61741   0.49204   0.00000  Uiso   1.00
H859   H     0.57120   0.25445   0.20686   0.00000  Uiso   1.00
H860   H     0.60262   0.31882   0.16229   0.00000  Uiso   1.00
H861   H     0.51359   0.20448   0.12218   0.00000  Uiso   1.00
H862   H     0.59050   0.25084   0.33481   0.00000  Uiso   1.00
H863   H     0.64826   0.37313   0.11487   0.00000  Uiso   1.00
H864   H     0.46054   0.13205   0.03032   0.00000  Uiso   1.00
H865   H     0.62272   0.22981   0.47869   0.00000  Uiso   1.00
O866   O     0.70609   0.35690   0.09248   0.00000  Uiso   1.00
O867   O     0.45982   0.04060   0.98156   0.00000  Uiso   1.00
O868   O     0.67260   0.16886   0.56982   0.00000  Uiso   1.00
N869   N     0.69850   0.27835   0.13120   0.00000  Uiso   1.00
N870   N     0.52300   0.05296   0.05214   0.00000  Uiso   1.00
N871   N     0.17462   0.64435   0.47134   0.00000  Uiso   1.00
N872   N     0.66011   0.33884   0.12402   0.00000  Uiso   1.00
N873   N     0.48461   0.11344   0.04496   0.00000  Uiso   1.00
N874   N     0.63623   0.20483   0.46416   0.00000  Uiso   1.00
C875   C     0.29791   0.00790   0.53293   0.00000  Uiso   1.00
C876   C     0.33828   0.99274   0.57680   0.00000  Uiso   1.00
C877   C     0.36384   0.98180   0.55370   0.00000  Uiso   1.00
C878   C     0.39939   0.96871   0.60187   0.00000  Uiso   1.00
C879   C     0.96061   0.44551   0.65953   0.00000  Uiso   1.00
C880   C     0.29296   0.05832   0.56045   0.00000  Uiso   1.00
C881   C     0.28040   0.10252   0.52360   0.00000  Uiso   1.00
C882   C     0.27780   0.14464   0.55802   0.00000  Uiso   1.00
C883   C     0.26863   0.22325   0.59028   0.00000  Uiso   1.00
C884   C     0.27464   0.97003   0.54832   0.00000  Uiso   1.00
C885   C     0.24667   0.94001   0.50128   0.00000  Uiso   1.00
C886   C     0.22864   0.90779   0.52548   0.00000  Uiso   1.00
C887   C     0.69102   0.34932   0.53892   0.00000  Uiso   1.00
C888   C     0.31561   0.00410   0.65956   0.00000  Uiso   1.00
C889   C     0.34789   0.99068   0.64558   0.00000  Uiso   1.00
C890   C     0.38342   0.97759   0.69381   0.00000  Uiso   1.00
C891   C     0.40902   0.96664   0.67078   0.00000  Uiso   1.00
C892   C     0.30257   0.05626   0.62923   0.00000  Uiso   1.00
C893   C     0.29998   0.09832   0.66371   0.00000  Uiso   1.00
C894   C     0.28743   0.14257   0.62692   0.00000  Uiso   1.00
C895   C     0.28425   0.96797   0.61711   0.00000  Uiso   1.00
C896   C     0.26625   0.93580   0.64139   0.00000  Uiso   1.00
C897   C     0.23827   0.90573   0.59439   0.00000  Uiso   1.00
H898   H     0.29043   0.00951   0.47938   0.00000  Uiso   1.00
H899   H     0.35639   0.98341   0.50046   0.00000  Uiso   1.00
H900   H     0.27296   0.10411   0.47037   0.00000  Uiso   1.00
H901   H     0.23924   0.94161   0.44805   0.00000  Uiso   1.00
H902   H     0.43375   0.95358   0.55418   0.00000  Uiso   1.00
H903   H     0.25784   0.20808   0.49072   0.00000  Uiso   1.00
H904   H     0.68672   0.36543   0.44365   0.00000  Uiso   1.00
H905   H     0.32310   0.00249   0.71312   0.00000  Uiso   1.00
H906   H     0.39085   0.97600   0.74703   0.00000  Uiso   1.00
H907   H     0.30742   0.09671   0.71694   0.00000  Uiso   1.00
H908   H     0.27370   0.93421   0.69462   0.00000  Uiso   1.00
H909   H     0.96173   0.44757   0.75430   0.00000  Uiso   1.00
H910   H     0.28581   0.20207   0.69084   0.00000  Uiso   1.00
H911   H     0.71470   0.35942   0.64378   0.00000  Uiso   1.00
O912   O     0.99172   0.43329   0.67233   0.00000  Uiso   1.00
O913   O     0.26092   0.26718   0.58907   0.00000  Uiso   1.00
O914   O     0.66762   0.31763   0.52733   0.00000  Uiso   1.00
N915   N     0.43104   0.95579   0.59662   0.00000  Uiso   1.00
N916   N     0.26657   0.19374   0.53729   0.00000  Uiso   1.00
N917   N     0.70008   0.37339   0.49329   0.00000  Uiso   1.00
N918   N     0.44609   0.95255   0.70431   0.00000  Uiso   1.00
N919   N     0.28162   0.19050   0.64498   0.00000  Uiso   1.00
N920   N     0.71513   0.37016   0.60098   0.00000  Uiso   1.00
C921   C     0.38091   0.58018   0.69260   0.00000  Uiso   1.00
C922   C     0.36827   0.54449   0.63251   0.00000  Uiso   1.00
C923   C     0.38257   0.54258   0.58692   0.00000  Uiso   1.00
C924   C     0.36726   0.50726   0.53541   0.00000  Uiso   1.00
C925   C     0.35200   0.45673   0.44299   0.00000  Uiso   1.00
C926   C     0.39211   0.54684   0.75460   0.00000  Uiso   1.00
C927   C     0.42646   0.54691   0.81166   0.00000  Uiso   1.00
C928   C     0.43122   0.51357   0.86293   0.00000  Uiso   1.00
C929   C     0.45296   0.46671   0.96007   0.00000  Uiso   1.00
C930   C     0.34629   0.60856   0.68357   0.00000  Uiso   1.00
C931   C     0.34210   0.66052   0.68093   0.00000  Uiso   1.00
C932   C     0.30828   0.67914   0.67242   0.00000  Uiso   1.00
C933   C     0.25888   0.72810   0.65927   0.00000  Uiso   1.00
C934   C     0.32829   0.52085   0.68220   0.00000  Uiso   1.00
C935   C     0.33969   0.51227   0.62686   0.00000  Uiso   1.00
C936   C     0.32436   0.47694   0.57541   0.00000  Uiso   1.00
C937   C     0.33864   0.47498   0.52975   0.00000  Uiso   1.00
C938   C     0.36354   0.51462   0.74895   0.00000  Uiso   1.00
C939   C     0.36825   0.48127   0.80015   0.00000  Uiso   1.00
C940   C     0.40259   0.48128   0.85728   0.00000  Uiso   1.00
C941   C     0.31771   0.57633   0.67792   0.00000  Uiso   1.00
C942   C     0.28389   0.59487   0.66942   0.00000  Uiso   1.00
C943   C     0.27966   0.64685   0.66676   0.00000  Uiso   1.00
H944   H     0.40316   0.60527   0.69700   0.00000  Uiso   1.00
H945   H     0.40469   0.56753   0.59131   0.00000  Uiso   1.00
H946   H     0.44856   0.57186   0.81602   0.00000  Uiso   1.00
H947   H     0.36422   0.68544   0.68530   0.00000  Uiso   1.00
H948   H     0.39379   0.51145   0.47166   0.00000  Uiso   1.00
H949   H     0.48630   0.52060   0.94548   0.00000  Uiso   1.00
H950   H     0.30845   0.76012   0.66984   0.00000  Uiso   1.00
H951   H     0.30605   0.49576   0.67780   0.00000  Uiso   1.00
H952   H     0.30225   0.45201   0.57105   0.00000  Uiso   1.00
H953   H     0.34613   0.45634   0.79576   0.00000  Uiso   1.00
H954   H     0.26178   0.56992   0.66504   0.00000  Uiso   1.00
H955   H     0.31065   0.41769   0.45521   0.00000  Uiso   1.00
H956   H     0.40316   0.42684   0.92904   0.00000  Uiso   1.00
H957   H     0.22531   0.66636   0.65339   0.00000  Uiso   1.00
O958   O     0.35148   0.43775   0.39357   0.00000  Uiso   1.00
O959   O     0.47285   0.44976   0.01521   0.00000  Uiso   1.00
O960   O     0.73952   0.26400   0.65357   0.00000  Uiso   1.00
N961   N     0.37474   0.49540   0.48243   0.00000  Uiso   1.00
N962   N     0.46124   0.50394   0.92542   0.00000  Uiso   1.00
N963   N     0.29496   0.72787   0.66774   0.00000  Uiso   1.00
N964   N     0.33000   0.44495   0.47358   0.00000  Uiso   1.00
N965   N     0.41650   0.45349   0.91657   0.00000  Uiso   1.00
N966   N     0.25023   0.67742   0.65889   0.00000  Uiso   1.00
C967   C     0.13543   0.65325   0.21888   0.00000  Uiso   1.00
C968   C     0.14344   0.70251   0.19297   0.00000  Uiso   1.00
C969   C     0.17155   0.71024   0.17518   0.00000  Uiso   1.00
C970   C     0.17427   0.75802   0.15261   0.00000  Uiso   1.00
C971   C     0.19042   0.82863   0.11304   0.00000  Uiso   1.00
C972   C     0.09507   0.64039   0.17117   0.00000  Uiso   1.00
C973   C     0.08251   0.59589   0.13506   0.00000  Uiso   1.00
C974   C     0.04452   0.59138   0.09414   0.00000  Uiso   1.00
C975   C     0.98556   0.56553   0.02077   0.00000  Uiso   1.00
C976   C     0.13686   0.66558   0.28670   0.00000  Uiso   1.00
C977   C     0.65943   0.14225   0.34773   0.00000  Uiso   1.00
C978   C     0.15661   0.65895   0.40408   0.00000  Uiso   1.00
C979   C     0.16255   0.67221   0.51008   0.00000  Uiso   1.00
C980   C     0.09029   0.72437   0.21043   0.00000  Uiso   1.00
C981   C     0.11891   0.74114   0.18838   0.00000  Uiso   1.00
C982   C     0.12160   0.78893   0.16583   0.00000  Uiso   1.00
C983   C     0.14971   0.79672   0.14801   0.00000  Uiso   1.00
C984   C     0.07055   0.67902   0.16658   0.00000  Uiso   1.00
C985   C     0.03256   0.67458   0.12571   0.00000  Uiso   1.00
C986   C     0.01995   0.63008   0.08954   0.00000  Uiso   1.00
C987   C     0.11234   0.70422   0.28211   0.00000  Uiso   1.00
C988   C     0.10948   0.72095   0.33838   0.00000  Uiso   1.00
C989   C     0.13205   0.69765   0.39948   0.00000  Uiso   1.00
H990   H     0.65452   0.12317   0.22245   0.00000  Uiso   1.00
H991   H     0.19052   0.68033   0.17873   0.00000  Uiso   1.00
H992   H     0.60149   0.06600   0.13862   0.00000  Uiso   1.00
H993   H     0.67840   0.11236   0.35126   0.00000  Uiso   1.00
H994   H     0.21960   0.76073   0.12822   0.00000  Uiso   1.00
H995   H     0.53189   0.01965   0.04366   0.00000  Uiso   1.00
H996   H     0.69406   0.11741   0.49204   0.00000  Uiso   1.00
H997   H     0.07120   0.75445   0.20686   0.00000  Uiso   1.00
H998   H     0.10262   0.81882   0.16229   0.00000  Uiso   1.00
H999   H     0.01359   0.70448   0.12218   0.00000  Uiso   1.00
H1000  H     0.09050   0.75084   0.33481   0.00000  Uiso   1.00
H1001  H     0.14826   0.87313   0.11487   0.00000  Uiso   1.00
H1002  H     0.96054   0.63205   0.03032   0.00000  Uiso   1.00
H1003  H     0.12272   0.72981   0.47869   0.00000  Uiso   1.00
O1004  O     0.20609   0.85690   0.09248   0.00000  Uiso   1.00
O1005  O     0.95982   0.54060   0.98156   0.00000  Uiso   1.00
O1006  O     0.17260   0.66886   0.56982   0.00000  Uiso   1.00
N1007  N     0.19850   0.77835   0.13120   0.00000  Uiso   1.00
N1008  N     0.02300   0.55296   0.05214   0.00000  Uiso   1.00
N1009  N     0.67462   0.14435   0.47134   0.00000  Uiso   1.00
N1010  N     0.16011   0.83884   0.12402   0.00000  Uiso   1.00
N1011  N     0.98461   0.61344   0.04496   0.00000  Uiso   1.00
N1012  N     0.13623   0.70483   0.46416   0.00000  Uiso   1.00
C1013  C     0.79791   0.50790   0.53293   0.00000  Uiso   1.00
C1014  C     0.83828   0.49274   0.57680   0.00000  Uiso   1.00
C1015  C     0.86384   0.48180   0.55370   0.00000  Uiso   1.00
C1016  C     0.89939   0.46871   0.60187   0.00000  Uiso   1.00
C1017  C     0.46061   0.94551   0.65953   0.00000  Uiso   1.00
C1018  C     0.79296   0.55832   0.56045   0.00000  Uiso   1.00
C1019  C     0.78040   0.60252   0.52360   0.00000  Uiso   1.00
C1020  C     0.77780   0.64464   0.55802   0.00000  Uiso   1.00
C1021  C     0.76863   0.72325   0.59028   0.00000  Uiso   1.00
C1022  C     0.77464   0.47003   0.54832   0.00000  Uiso   1.00
C1023  C     0.74667   0.44001   0.50128   0.00000  Uiso   1.00
C1024  C     0.72864   0.40779   0.52548   0.00000  Uiso   1.00
C1025  C     0.19102   0.84932   0.53892   0.00000  Uiso   1.00
C1026  C     0.81561   0.50410   0.65956   0.00000  Uiso   1.00
C1027  C     0.84789   0.49068   0.64558   0.00000  Uiso   1.00
C1028  C     0.88342   0.47759   0.69381   0.00000  Uiso   1.00
C1029  C     0.90902   0.46664   0.67078   0.00000  Uiso   1.00
C1030  C     0.80257   0.55626   0.62923   0.00000  Uiso   1.00
C1031  C     0.79998   0.59832   0.66371   0.00000  Uiso   1.00
C1032  C     0.78743   0.64257   0.62692   0.00000  Uiso   1.00
C1033  C     0.78425   0.46797   0.61711   0.00000  Uiso   1.00
C1034  C     0.76625   0.43580   0.64139   0.00000  Uiso   1.00
C1035  C     0.73827   0.40573   0.59439   0.00000  Uiso   1.00
H1036  H     0.79043   0.50951   0.47938   0.00000  Uiso   1.00
H1037  H     0.85639   0.48341   0.50046   0.00000  Uiso   1.00
H1038  H     0.77296   0.60411   0.47037   0.00000  Uiso   1.00
H1039  H     0.73924   0.44161   0.44805   0.00000  Uiso   1.00
H1040  H     0.93375   0.45358   0.55418   0.00000  Uiso   1.00
H1041  H     0.75784   0.70808   0.49072   0.00000  Uiso   1.00
H1042  H     0.18672   0.86543   0.44365   0.00000  Uiso   1.00
H1043  H     0.82310   0.50249   0.71312   0.00000  Uiso   1.00
H1044  H     0.89085   0.47600   0.74703   0.00000  Uiso   1.00
H1045  H     0.80742   0.59671   0.71694   0.00000  Uiso   1.00
H1046  H     0.77370   0.43421   0.69462   0.00000  Uiso   1.00
H1047  H     0.46173   0.94757   0.75430   0.00000  Uiso   1.00
H1048  H     0.78581   0.70207   0.69084   0.00000  Uiso   1.00
H1049  H     0.21470   0.85942   0.64378   0.00000  Uiso   1.00
O1050  O     0.49172   0.93329   0.67233   0.00000  Uiso   1.00
O1051  O     0.76092   0.76718   0.58907   0.00000  Uiso   1.00
O1052  O     0.16762   0.81763   0.52733   0.00000  Uiso   1.00
N1053  N     0.93104   0.45579   0.59662   0.00000  Uiso   1.00
N1054  N     0.76657   0.69374   0.53729   0.00000  Uiso   1.00
N1055  N     0.20008   0.87339   0.49329   0.00000  Uiso   1.00
N1056  N     0.94609   0.45255   0.70431   0.00000  Uiso   1.00
N1057  N     0.78162   0.69050   0.64498   0.00000  Uiso   1.00
N1058  N     0.21513   0.87016   0.60098   0.00000  Uiso   1.00
C1059  C     0.88091   0.08018   0.69260   0.00000  Uiso   1.00
C1060  C     0.86827   0.04449   0.63251   0.00000  Uiso   1.00
C1061  C     0.88257   0.04258   0.58692   0.00000  Uiso   1.00
C1062  C     0.86726   0.00726   0.53541   0.00000  Uiso   1.00
C1063  C     0.85200   0.95673   0.44299   0.00000  Uiso   1.00
C1064  C     0.89211   0.04684   0.75460   0.00000  Uiso   1.00
C1065  C     0.92646   0.04691   0.81166   0.00000  Uiso   1.00
C1066  C     0.93122   0.01357   0.86293   0.00000  Uiso   1.00
C1067  C     0.95296   0.96671   0.96007   0.00000  Uiso   1.00
C1068  C     0.84629   0.10856   0.68357   0.00000  Uiso   1.00
C1069  C     0.84210   0.16052   0.68093   0.00000  Uiso   1.00
C1070  C     0.80828   0.17914   0.67242   0.00000  Uiso   1.00
C1071  C     0.75888   0.22810   0.65927   0.00000  Uiso   1.00
C1072  C     0.82829   0.02085   0.68220   0.00000  Uiso   1.00
C1073  C     0.83969   0.01227   0.62686   0.00000  Uiso   1.00
C1074  C     0.82436   0.97694   0.57541   0.00000  Uiso   1.00
C1075  C     0.83864   0.97498   0.52975   0.00000  Uiso   1.00
C1076  C     0.86354   0.01462   0.74895   0.00000  Uiso   1.00
C1077  C     0.86825   0.98127   0.80015   0.00000  Uiso   1.00
C1078  C     0.90259   0.98128   0.85728   0.00000  Uiso   1.00
C1079  C     0.81771   0.07633   0.67792   0.00000  Uiso   1.00
C1080  C     0.78389   0.09487   0.66942   0.00000  Uiso   1.00
C1081  C     0.77966   0.14685   0.66676   0.00000  Uiso   1.00
H1082  H     0.90316   0.10527   0.69700   0.00000  Uiso   1.00
H1083  H     0.90469   0.06753   0.59131   0.00000  Uiso   1.00
H1084  H     0.94856   0.07186   0.81602   0.00000  Uiso   1.00
H1085  H     0.86422   0.18544   0.68530   0.00000  Uiso   1.00
H1086  H     0.89379   0.01145   0.47166   0.00000  Uiso   1.00
H1087  H     0.98630   0.02060   0.94548   0.00000  Uiso   1.00
H1088  H     0.80845   0.26012   0.66984   0.00000  Uiso   1.00
H1089  H     0.80605   0.99576   0.67780   0.00000  Uiso   1.00
H1090  H     0.80225   0.95201   0.57105   0.00000  Uiso   1.00
H1091  H     0.84613   0.95634   0.79576   0.00000  Uiso   1.00
H1092  H     0.76178   0.06992   0.66504   0.00000  Uiso   1.00
H1093  H     0.81065   0.91769   0.45521   0.00000  Uiso   1.00
H1094  H     0.90316   0.92684   0.92904   0.00000  Uiso   1.00
H1095  H     0.72531   0.16636   0.65339   0.00000  Uiso   1.00
O1096  O     0.85148   0.93775   0.39357   0.00000  Uiso   1.00
O1097  O     0.97285   0.94976   0.01521   0.00000  Uiso   1.00
O1098  O     0.23952   0.76400   0.65357   0.00000  Uiso   1.00
N1099  N     0.87474   0.99540   0.48243   0.00000  Uiso   1.00
N1100  N     0.96124   0.00394   0.92542   0.00000  Uiso   1.00
N1101  N     0.79496   0.22787   0.66774   0.00000  Uiso   1.00
N1102  N     0.83000   0.94495   0.47358   0.00000  Uiso   1.00
N1103  N     0.91650   0.95349   0.91657   0.00000  Uiso   1.00
N1104  N     0.75023   0.17742   0.65889   0.00000  Uiso   1.00
