data_job_04145
_audit_creation_date              2018-12-19
_audit_creation_method            'Materials Studio'
_symmetry_space_group_name_H-M    'P1'
_symmetry_Int_Tables_number       1
_symmetry_cell_setting            triclinic
loop_
_symmetry_equiv_pos_as_xyz
  x,y,z
_cell_length_a                    39.1344
_cell_length_b                    39.1344
_cell_length_c                    10.4587
_cell_angle_alpha                 90.0000
_cell_angle_beta                  90.0000
_cell_angle_gamma                 90.0000
loop_
_atom_site_label
_atom_site_type_symbol
_atom_site_fract_x
_atom_site_fract_y
_atom_site_fract_z
_atom_site_U_iso_or_equiv
_atom_site_adp_type
_atom_site_occupancy
C1     C     0.89880   0.25984   0.33050   0.00000  Uiso   1.00
C2     C     0.90380   0.28891   0.42577   0.00000  Uiso   1.00
C3     C     0.89933   0.28669   0.55714   0.00000  Uiso   1.00
C4     C     0.90516   0.31616   0.62774   0.00000  Uiso   1.00
C5     C     0.91139   0.35665   0.78462   0.00000  Uiso   1.00
C6     C     0.87268   0.27263   0.23344   0.00000  Uiso   1.00
C7     C     0.84205   0.25671   0.20308   0.00000  Uiso   1.00
C8     C     0.82169   0.27248   0.11175   0.00000  Uiso   1.00
C9     C     0.77963   0.28768   0.96996   0.00000  Uiso   1.00
C10    C     0.93246   0.25656   0.25811   0.00000  Uiso   1.00
C11    C     0.95209   0.22713   0.24847   0.00000  Uiso   1.00
C12    C     0.98206   0.22936   0.17790   0.00000  Uiso   1.00
C13    C     0.03281   0.21961   0.07442   0.00000  Uiso   1.00
C14    C     0.91712   0.31613   0.22227   0.00000  Uiso   1.00
C15    C     0.91375   0.31948   0.36699   0.00000  Uiso   1.00
C16    C     0.91960   0.34896   0.43741   0.00000  Uiso   1.00
C17    C     0.91513   0.34679   0.56886   0.00000  Uiso   1.00
C18    C     0.88263   0.30320   0.17466   0.00000  Uiso   1.00
C19    C     0.86232   0.31899   0.08335   0.00000  Uiso   1.00
C20    C     0.83166   0.30311   0.05287   0.00000  Uiso   1.00
C21    C     0.94242   0.28713   0.19933   0.00000  Uiso   1.00
C22    C     0.97236   0.28941   0.12875   0.00000  Uiso   1.00
C23    C     0.99202   0.25999   0.11901   0.00000  Uiso   1.00
H24    H     0.89105   0.23603   0.37625   0.00000  Uiso   1.00
H25    H     0.89162   0.26302   0.60259   0.00000  Uiso   1.00
H26    H     0.83435   0.23305   0.24857   0.00000  Uiso   1.00
H27    H     0.94438   0.20347   0.29397   0.00000  Uiso   1.00
H28    H     0.89663   0.30643   0.82760   0.00000  Uiso   1.00
H29    H     0.77589   0.24323   0.08111   0.00000  Uiso   1.00
H30    H     0.00789   0.18086   0.17683   0.00000  Uiso   1.00
H31    H     0.92487   0.33993   0.17651   0.00000  Uiso   1.00
H32    H     0.92730   0.37262   0.39189   0.00000  Uiso   1.00
H33    H     0.87003   0.34265   0.03788   0.00000  Uiso   1.00
H34    H     0.98005   0.31307   0.08327   0.00000  Uiso   1.00
H35    H     0.92558   0.39538   0.65659   0.00000  Uiso   1.00
H36    H     0.80484   0.33218   0.91009   0.00000  Uiso   1.00
H37    H     0.03684   0.26981   0.00582   0.00000  Uiso   1.00
O38    O     0.91208   0.37054   0.88738   0.00000  Uiso   1.00
O39    O     0.75367   0.28762   0.90799   0.00000  Uiso   1.00
O40    O     0.05806   0.20579   0.03359   0.00000  Uiso   1.00
N41    N     0.90312   0.32288   0.75780   0.00000  Uiso   1.00
N42    N     0.79023   0.26379   0.05989   0.00000  Uiso   1.00
N43    N     0.00713   0.20548   0.14935   0.00000  Uiso   1.00
N44    N     0.91870   0.37074   0.66578   0.00000  Uiso   1.00
N45    N     0.80581   0.31166   0.96787   0.00000  Uiso   1.00
N46    N     0.02271   0.25334   0.05733   0.00000  Uiso   1.00
C47    C     0.10120   0.74016   0.33050   0.00000  Uiso   1.00
C48    C     0.09620   0.71109   0.42577   0.00000  Uiso   1.00
C49    C     0.10067   0.71331   0.55714   0.00000  Uiso   1.00
C50    C     0.09484   0.68384   0.62774   0.00000  Uiso   1.00
C51    C     0.08861   0.64335   0.78462   0.00000  Uiso   1.00
C52    C     0.12732   0.72737   0.23344   0.00000  Uiso   1.00
C53    C     0.15795   0.74329   0.20308   0.00000  Uiso   1.00
C54    C     0.17831   0.72752   0.11175   0.00000  Uiso   1.00
C55    C     0.22037   0.71232   0.96996   0.00000  Uiso   1.00
C56    C     0.06754   0.74344   0.25811   0.00000  Uiso   1.00
C57    C     0.04791   0.77287   0.24847   0.00000  Uiso   1.00
C58    C     0.01794   0.77064   0.17790   0.00000  Uiso   1.00
C59    C     0.96719   0.78039   0.07442   0.00000  Uiso   1.00
C60    C     0.08288   0.68387   0.22227   0.00000  Uiso   1.00
C61    C     0.08625   0.68052   0.36699   0.00000  Uiso   1.00
C62    C     0.08040   0.65104   0.43741   0.00000  Uiso   1.00
C63    C     0.08487   0.65321   0.56886   0.00000  Uiso   1.00
C64    C     0.11737   0.69680   0.17466   0.00000  Uiso   1.00
C65    C     0.13768   0.68101   0.08335   0.00000  Uiso   1.00
C66    C     0.16834   0.69689   0.05287   0.00000  Uiso   1.00
C67    C     0.05758   0.71287   0.19933   0.00000  Uiso   1.00
C68    C     0.02764   0.71059   0.12875   0.00000  Uiso   1.00
C69    C     0.00798   0.74001   0.11901   0.00000  Uiso   1.00
H70    H     0.10895   0.76397   0.37625   0.00000  Uiso   1.00
H71    H     0.10838   0.73698   0.60259   0.00000  Uiso   1.00
H72    H     0.16565   0.76695   0.24857   0.00000  Uiso   1.00
H73    H     0.05562   0.79653   0.29397   0.00000  Uiso   1.00
H74    H     0.10337   0.69357   0.82760   0.00000  Uiso   1.00
H75    H     0.22411   0.75677   0.08111   0.00000  Uiso   1.00
H76    H     0.99211   0.81914   0.17683   0.00000  Uiso   1.00
H77    H     0.07513   0.66007   0.17651   0.00000  Uiso   1.00
H78    H     0.07270   0.62738   0.39189   0.00000  Uiso   1.00
H79    H     0.12997   0.65735   0.03788   0.00000  Uiso   1.00
H80    H     0.01995   0.68693   0.08327   0.00000  Uiso   1.00
H81    H     0.07442   0.60462   0.65659   0.00000  Uiso   1.00
H82    H     0.19516   0.66782   0.91009   0.00000  Uiso   1.00
H83    H     0.96316   0.73019   0.00582   0.00000  Uiso   1.00
O84    O     0.08792   0.62946   0.88738   0.00000  Uiso   1.00
O85    O     0.24633   0.71238   0.90799   0.00000  Uiso   1.00
O86    O     0.94194   0.79421   0.03359   0.00000  Uiso   1.00
N87    N     0.09688   0.67712   0.75780   0.00000  Uiso   1.00
N88    N     0.20977   0.73621   0.05989   0.00000  Uiso   1.00
N89    N     0.99287   0.79452   0.14935   0.00000  Uiso   1.00
N90    N     0.08130   0.62926   0.66578   0.00000  Uiso   1.00
N91    N     0.19419   0.68834   0.96787   0.00000  Uiso   1.00
N92    N     0.97729   0.74666   0.05733   0.00000  Uiso   1.00
C93    C     0.24016   0.39880   0.33050   0.00000  Uiso   1.00
C94    C     0.21109   0.40380   0.42577   0.00000  Uiso   1.00
C95    C     0.21331   0.39933   0.55714   0.00000  Uiso   1.00
C96    C     0.18384   0.40516   0.62774   0.00000  Uiso   1.00
C97    C     0.14335   0.41139   0.78462   0.00000  Uiso   1.00
C98    C     0.22737   0.37268   0.23344   0.00000  Uiso   1.00
C99    C     0.24329   0.34205   0.20308   0.00000  Uiso   1.00
C100   C     0.22752   0.32169   0.11175   0.00000  Uiso   1.00
C101   C     0.21232   0.27963   0.96996   0.00000  Uiso   1.00
C102   C     0.24344   0.43246   0.25811   0.00000  Uiso   1.00
C103   C     0.27287   0.45209   0.24847   0.00000  Uiso   1.00
C104   C     0.27064   0.48206   0.17790   0.00000  Uiso   1.00
C105   C     0.28039   0.53281   0.07442   0.00000  Uiso   1.00
C106   C     0.18387   0.41712   0.22227   0.00000  Uiso   1.00
C107   C     0.18052   0.41375   0.36699   0.00000  Uiso   1.00
C108   C     0.15104   0.41960   0.43741   0.00000  Uiso   1.00
C109   C     0.15321   0.41513   0.56886   0.00000  Uiso   1.00
C110   C     0.19680   0.38263   0.17466   0.00000  Uiso   1.00
C111   C     0.18101   0.36232   0.08335   0.00000  Uiso   1.00
C112   C     0.19689   0.33166   0.05287   0.00000  Uiso   1.00
C113   C     0.21287   0.44242   0.19933   0.00000  Uiso   1.00
C114   C     0.21059   0.47236   0.12875   0.00000  Uiso   1.00
C115   C     0.24001   0.49202   0.11901   0.00000  Uiso   1.00
H116   H     0.26397   0.39105   0.37625   0.00000  Uiso   1.00
H117   H     0.23698   0.39162   0.60259   0.00000  Uiso   1.00
H118   H     0.26695   0.33435   0.24857   0.00000  Uiso   1.00
H119   H     0.29653   0.44438   0.29397   0.00000  Uiso   1.00
H120   H     0.19357   0.39663   0.82760   0.00000  Uiso   1.00
H121   H     0.25677   0.27589   0.08111   0.00000  Uiso   1.00
H122   H     0.31914   0.50789   0.17683   0.00000  Uiso   1.00
H123   H     0.16007   0.42487   0.17651   0.00000  Uiso   1.00
H124   H     0.12738   0.42730   0.39189   0.00000  Uiso   1.00
H125   H     0.15735   0.37003   0.03788   0.00000  Uiso   1.00
H126   H     0.18693   0.48005   0.08327   0.00000  Uiso   1.00
H127   H     0.10462   0.42558   0.65659   0.00000  Uiso   1.00
H128   H     0.16782   0.30484   0.91009   0.00000  Uiso   1.00
H129   H     0.23019   0.53684   0.00582   0.00000  Uiso   1.00
O130   O     0.12946   0.41208   0.88738   0.00000  Uiso   1.00
O131   O     0.21238   0.25367   0.90799   0.00000  Uiso   1.00
O132   O     0.29421   0.55806   0.03359   0.00000  Uiso   1.00
N133   N     0.17712   0.40312   0.75780   0.00000  Uiso   1.00
N134   N     0.23621   0.29023   0.05989   0.00000  Uiso   1.00
N135   N     0.29452   0.50713   0.14935   0.00000  Uiso   1.00
N136   N     0.12926   0.41870   0.66578   0.00000  Uiso   1.00
N137   N     0.18834   0.30581   0.96787   0.00000  Uiso   1.00
N138   N     0.24666   0.52271   0.05733   0.00000  Uiso   1.00
C139   C     0.75984   0.60120   0.33050   0.00000  Uiso   1.00
C140   C     0.78891   0.59620   0.42577   0.00000  Uiso   1.00
C141   C     0.78669   0.60067   0.55714   0.00000  Uiso   1.00
C142   C     0.81616   0.59484   0.62774   0.00000  Uiso   1.00
C143   C     0.85665   0.58861   0.78462   0.00000  Uiso   1.00
C144   C     0.77263   0.62732   0.23344   0.00000  Uiso   1.00
C145   C     0.75671   0.65795   0.20308   0.00000  Uiso   1.00
C146   C     0.77248   0.67831   0.11175   0.00000  Uiso   1.00
C147   C     0.78768   0.72037   0.96996   0.00000  Uiso   1.00
C148   C     0.75656   0.56754   0.25811   0.00000  Uiso   1.00
C149   C     0.72713   0.54791   0.24847   0.00000  Uiso   1.00
C150   C     0.72936   0.51794   0.17790   0.00000  Uiso   1.00
C151   C     0.71961   0.46719   0.07442   0.00000  Uiso   1.00
C152   C     0.81613   0.58288   0.22227   0.00000  Uiso   1.00
C153   C     0.81948   0.58625   0.36699   0.00000  Uiso   1.00
C154   C     0.84896   0.58040   0.43741   0.00000  Uiso   1.00
C155   C     0.84679   0.58487   0.56886   0.00000  Uiso   1.00
C156   C     0.80320   0.61737   0.17466   0.00000  Uiso   1.00
C157   C     0.81899   0.63768   0.08335   0.00000  Uiso   1.00
C158   C     0.80311   0.66834   0.05287   0.00000  Uiso   1.00
C159   C     0.78713   0.55758   0.19933   0.00000  Uiso   1.00
C160   C     0.78941   0.52764   0.12875   0.00000  Uiso   1.00
C161   C     0.75999   0.50798   0.11901   0.00000  Uiso   1.00
H162   H     0.73603   0.60895   0.37625   0.00000  Uiso   1.00
H163   H     0.76302   0.60838   0.60259   0.00000  Uiso   1.00
H164   H     0.73305   0.66565   0.24857   0.00000  Uiso   1.00
H165   H     0.70347   0.55562   0.29397   0.00000  Uiso   1.00
H166   H     0.80643   0.60337   0.82760   0.00000  Uiso   1.00
H167   H     0.74323   0.72411   0.08111   0.00000  Uiso   1.00
H168   H     0.68086   0.49211   0.17683   0.00000  Uiso   1.00
H169   H     0.83993   0.57513   0.17651   0.00000  Uiso   1.00
H170   H     0.87262   0.57270   0.39189   0.00000  Uiso   1.00
H171   H     0.84265   0.62997   0.03788   0.00000  Uiso   1.00
H172   H     0.81307   0.51995   0.08327   0.00000  Uiso   1.00
H173   H     0.89538   0.57442   0.65659   0.00000  Uiso   1.00
H174   H     0.83218   0.69516   0.91009   0.00000  Uiso   1.00
H175   H     0.76981   0.46316   0.00582   0.00000  Uiso   1.00
O176   O     0.87054   0.58792   0.88738   0.00000  Uiso   1.00
O177   O     0.78762   0.74633   0.90799   0.00000  Uiso   1.00
O178   O     0.70579   0.44194   0.03359   0.00000  Uiso   1.00
N179   N     0.82288   0.59688   0.75780   0.00000  Uiso   1.00
N180   N     0.76379   0.70977   0.05989   0.00000  Uiso   1.00
N181   N     0.70548   0.49287   0.14935   0.00000  Uiso   1.00
N182   N     0.87074   0.58130   0.66578   0.00000  Uiso   1.00
N183   N     0.81166   0.69419   0.96787   0.00000  Uiso   1.00
N184   N     0.75334   0.47729   0.05733   0.00000  Uiso   1.00
C185   C     0.60120   0.75984   0.16950   0.00000  Uiso   1.00
C186   C     0.59620   0.78891   0.07423   0.00000  Uiso   1.00
C187   C     0.60067   0.78669   0.94286   0.00000  Uiso   1.00
C188   C     0.59484   0.81616   0.87226   0.00000  Uiso   1.00
C189   C     0.58861   0.85665   0.71538   0.00000  Uiso   1.00
C190   C     0.62732   0.77263   0.26656   0.00000  Uiso   1.00
C191   C     0.65795   0.75671   0.29692   0.00000  Uiso   1.00
C192   C     0.67831   0.77248   0.38825   0.00000  Uiso   1.00
C193   C     0.72037   0.78768   0.53004   0.00000  Uiso   1.00
C194   C     0.56754   0.75656   0.24189   0.00000  Uiso   1.00
C195   C     0.54791   0.72713   0.25153   0.00000  Uiso   1.00
C196   C     0.51794   0.72936   0.32210   0.00000  Uiso   1.00
C197   C     0.46719   0.71961   0.42558   0.00000  Uiso   1.00
C198   C     0.58288   0.81613   0.27773   0.00000  Uiso   1.00
C199   C     0.58625   0.81948   0.13301   0.00000  Uiso   1.00
C200   C     0.58040   0.84896   0.06259   0.00000  Uiso   1.00
C201   C     0.58487   0.84679   0.93114   0.00000  Uiso   1.00
C202   C     0.61737   0.80320   0.32534   0.00000  Uiso   1.00
C203   C     0.63768   0.81899   0.41665   0.00000  Uiso   1.00
C204   C     0.66834   0.80311   0.44713   0.00000  Uiso   1.00
C205   C     0.55758   0.78713   0.30067   0.00000  Uiso   1.00
C206   C     0.52764   0.78941   0.37125   0.00000  Uiso   1.00
C207   C     0.50798   0.75999   0.38099   0.00000  Uiso   1.00
H208   H     0.60895   0.73603   0.12375   0.00000  Uiso   1.00
H209   H     0.60838   0.76302   0.89741   0.00000  Uiso   1.00
H210   H     0.66565   0.73305   0.25143   0.00000  Uiso   1.00
H211   H     0.55562   0.70347   0.20603   0.00000  Uiso   1.00
H212   H     0.60337   0.80643   0.67240   0.00000  Uiso   1.00
H213   H     0.72411   0.74323   0.41889   0.00000  Uiso   1.00
H214   H     0.49211   0.68086   0.32317   0.00000  Uiso   1.00
H215   H     0.57513   0.83993   0.32349   0.00000  Uiso   1.00
H216   H     0.57270   0.87262   0.10811   0.00000  Uiso   1.00
H217   H     0.62997   0.84265   0.46212   0.00000  Uiso   1.00
H218   H     0.51995   0.81307   0.41673   0.00000  Uiso   1.00
H219   H     0.57442   0.89538   0.84341   0.00000  Uiso   1.00
H220   H     0.69516   0.83218   0.58991   0.00000  Uiso   1.00
H221   H     0.46316   0.76981   0.49418   0.00000  Uiso   1.00
O222   O     0.58792   0.87054   0.61262   0.00000  Uiso   1.00
O223   O     0.74633   0.78762   0.59201   0.00000  Uiso   1.00
O224   O     0.44194   0.70579   0.46641   0.00000  Uiso   1.00
N225   N     0.59688   0.82288   0.74220   0.00000  Uiso   1.00
N226   N     0.70977   0.76379   0.44011   0.00000  Uiso   1.00
N227   N     0.49287   0.70548   0.35065   0.00000  Uiso   1.00
N228   N     0.58130   0.87074   0.83422   0.00000  Uiso   1.00
N229   N     0.69419   0.81166   0.53213   0.00000  Uiso   1.00
N230   N     0.47729   0.75334   0.44267   0.00000  Uiso   1.00
C231   C     0.39880   0.24016   0.16950   0.00000  Uiso   1.00
C232   C     0.40380   0.21109   0.07423   0.00000  Uiso   1.00
C233   C     0.39933   0.21331   0.94286   0.00000  Uiso   1.00
C234   C     0.40516   0.18384   0.87226   0.00000  Uiso   1.00
C235   C     0.41139   0.14335   0.71538   0.00000  Uiso   1.00
C236   C     0.37268   0.22737   0.26656   0.00000  Uiso   1.00
C237   C     0.34205   0.24329   0.29692   0.00000  Uiso   1.00
C238   C     0.32169   0.22752   0.38825   0.00000  Uiso   1.00
C239   C     0.27963   0.21232   0.53004   0.00000  Uiso   1.00
C240   C     0.43246   0.24344   0.24189   0.00000  Uiso   1.00
C241   C     0.45209   0.27287   0.25153   0.00000  Uiso   1.00
C242   C     0.48206   0.27064   0.32210   0.00000  Uiso   1.00
C243   C     0.53281   0.28039   0.42558   0.00000  Uiso   1.00
C244   C     0.41712   0.18387   0.27773   0.00000  Uiso   1.00
C245   C     0.41375   0.18052   0.13301   0.00000  Uiso   1.00
C246   C     0.41960   0.15104   0.06259   0.00000  Uiso   1.00
C247   C     0.41513   0.15321   0.93114   0.00000  Uiso   1.00
C248   C     0.38263   0.19680   0.32534   0.00000  Uiso   1.00
C249   C     0.36232   0.18101   0.41665   0.00000  Uiso   1.00
C250   C     0.33166   0.19689   0.44713   0.00000  Uiso   1.00
C251   C     0.44242   0.21287   0.30067   0.00000  Uiso   1.00
C252   C     0.47236   0.21059   0.37125   0.00000  Uiso   1.00
C253   C     0.49202   0.24001   0.38099   0.00000  Uiso   1.00
H254   H     0.39105   0.26397   0.12375   0.00000  Uiso   1.00
H255   H     0.39162   0.23698   0.89741   0.00000  Uiso   1.00
H256   H     0.33435   0.26695   0.25143   0.00000  Uiso   1.00
H257   H     0.44438   0.29653   0.20603   0.00000  Uiso   1.00
H258   H     0.39663   0.19357   0.67240   0.00000  Uiso   1.00
H259   H     0.27589   0.25677   0.41889   0.00000  Uiso   1.00
H260   H     0.50789   0.31914   0.32317   0.00000  Uiso   1.00
H261   H     0.42487   0.16007   0.32349   0.00000  Uiso   1.00
H262   H     0.42730   0.12738   0.10811   0.00000  Uiso   1.00
H263   H     0.37003   0.15735   0.46212   0.00000  Uiso   1.00
H264   H     0.48005   0.18693   0.41673   0.00000  Uiso   1.00
H265   H     0.42558   0.10462   0.84341   0.00000  Uiso   1.00
H266   H     0.30484   0.16782   0.58991   0.00000  Uiso   1.00
H267   H     0.53684   0.23019   0.49418   0.00000  Uiso   1.00
O268   O     0.41208   0.12946   0.61262   0.00000  Uiso   1.00
O269   O     0.25367   0.21238   0.59201   0.00000  Uiso   1.00
O270   O     0.55806   0.29421   0.46641   0.00000  Uiso   1.00
N271   N     0.40312   0.17712   0.74220   0.00000  Uiso   1.00
N272   N     0.29023   0.23621   0.44011   0.00000  Uiso   1.00
N273   N     0.50713   0.29452   0.35065   0.00000  Uiso   1.00
N274   N     0.41870   0.12926   0.83422   0.00000  Uiso   1.00
N275   N     0.30581   0.18834   0.53213   0.00000  Uiso   1.00
N276   N     0.52271   0.24666   0.44267   0.00000  Uiso   1.00
C277   C     0.25984   0.89880   0.16950   0.00000  Uiso   1.00
C278   C     0.28891   0.90380   0.07423   0.00000  Uiso   1.00
C279   C     0.28669   0.89933   0.94286   0.00000  Uiso   1.00
C280   C     0.31616   0.90516   0.87226   0.00000  Uiso   1.00
C281   C     0.35665   0.91139   0.71538   0.00000  Uiso   1.00
C282   C     0.27263   0.87268   0.26656   0.00000  Uiso   1.00
C283   C     0.25671   0.84205   0.29692   0.00000  Uiso   1.00
C284   C     0.27248   0.82169   0.38825   0.00000  Uiso   1.00
C285   C     0.28768   0.77963   0.53004   0.00000  Uiso   1.00
C286   C     0.25656   0.93246   0.24189   0.00000  Uiso   1.00
C287   C     0.22713   0.95209   0.25153   0.00000  Uiso   1.00
C288   C     0.22936   0.98206   0.32210   0.00000  Uiso   1.00
C289   C     0.21961   0.03281   0.42558   0.00000  Uiso   1.00
C290   C     0.31613   0.91712   0.27773   0.00000  Uiso   1.00
C291   C     0.31948   0.91375   0.13301   0.00000  Uiso   1.00
C292   C     0.34896   0.91960   0.06259   0.00000  Uiso   1.00
C293   C     0.34679   0.91513   0.93114   0.00000  Uiso   1.00
C294   C     0.30320   0.88263   0.32534   0.00000  Uiso   1.00
C295   C     0.31899   0.86232   0.41665   0.00000  Uiso   1.00
C296   C     0.30311   0.83166   0.44713   0.00000  Uiso   1.00
C297   C     0.28713   0.94242   0.30067   0.00000  Uiso   1.00
C298   C     0.28941   0.97236   0.37125   0.00000  Uiso   1.00
C299   C     0.25999   0.99202   0.38099   0.00000  Uiso   1.00
H300   H     0.23603   0.89105   0.12375   0.00000  Uiso   1.00
H301   H     0.26302   0.89162   0.89741   0.00000  Uiso   1.00
H302   H     0.23305   0.83435   0.25143   0.00000  Uiso   1.00
H303   H     0.20347   0.94438   0.20603   0.00000  Uiso   1.00
H304   H     0.30643   0.89663   0.67240   0.00000  Uiso   1.00
H305   H     0.24323   0.77589   0.41889   0.00000  Uiso   1.00
H306   H     0.18086   0.00789   0.32317   0.00000  Uiso   1.00
H307   H     0.33993   0.92487   0.32349   0.00000  Uiso   1.00
H308   H     0.37262   0.92730   0.10811   0.00000  Uiso   1.00
H309   H     0.34265   0.87003   0.46212   0.00000  Uiso   1.00
H310   H     0.31307   0.98005   0.41673   0.00000  Uiso   1.00
H311   H     0.39538   0.92558   0.84341   0.00000  Uiso   1.00
H312   H     0.33218   0.80484   0.58991   0.00000  Uiso   1.00
H313   H     0.26981   0.03684   0.49418   0.00000  Uiso   1.00
O314   O     0.37054   0.91208   0.61262   0.00000  Uiso   1.00
O315   O     0.28762   0.75367   0.59201   0.00000  Uiso   1.00
O316   O     0.20579   0.05806   0.46641   0.00000  Uiso   1.00
N317   N     0.32288   0.90312   0.74220   0.00000  Uiso   1.00
N318   N     0.26379   0.79023   0.44011   0.00000  Uiso   1.00
N319   N     0.20548   0.00713   0.35065   0.00000  Uiso   1.00
N320   N     0.37074   0.91870   0.83422   0.00000  Uiso   1.00
N321   N     0.31166   0.80581   0.53213   0.00000  Uiso   1.00
N322   N     0.25334   0.02271   0.44267   0.00000  Uiso   1.00
C323   C     0.74016   0.10120   0.16950   0.00000  Uiso   1.00
C324   C     0.71109   0.09620   0.07423   0.00000  Uiso   1.00
C325   C     0.71331   0.10067   0.94286   0.00000  Uiso   1.00
C326   C     0.68384   0.09484   0.87226   0.00000  Uiso   1.00
C327   C     0.64335   0.08861   0.71538   0.00000  Uiso   1.00
C328   C     0.72737   0.12732   0.26656   0.00000  Uiso   1.00
C329   C     0.74329   0.15795   0.29692   0.00000  Uiso   1.00
C330   C     0.72752   0.17831   0.38825   0.00000  Uiso   1.00
C331   C     0.71232   0.22037   0.53004   0.00000  Uiso   1.00
C332   C     0.74344   0.06754   0.24189   0.00000  Uiso   1.00
C333   C     0.77287   0.04791   0.25153   0.00000  Uiso   1.00
C334   C     0.77064   0.01794   0.32210   0.00000  Uiso   1.00
C335   C     0.78039   0.96719   0.42558   0.00000  Uiso   1.00
C336   C     0.68387   0.08288   0.27773   0.00000  Uiso   1.00
C337   C     0.68052   0.08625   0.13301   0.00000  Uiso   1.00
C338   C     0.65104   0.08040   0.06259   0.00000  Uiso   1.00
C339   C     0.65321   0.08487   0.93114   0.00000  Uiso   1.00
C340   C     0.69680   0.11737   0.32534   0.00000  Uiso   1.00
C341   C     0.68101   0.13768   0.41665   0.00000  Uiso   1.00
C342   C     0.69689   0.16834   0.44713   0.00000  Uiso   1.00
C343   C     0.71287   0.05758   0.30067   0.00000  Uiso   1.00
C344   C     0.71059   0.02764   0.37125   0.00000  Uiso   1.00
C345   C     0.74001   0.00798   0.38099   0.00000  Uiso   1.00
H346   H     0.76397   0.10895   0.12375   0.00000  Uiso   1.00
H347   H     0.73698   0.10838   0.89741   0.00000  Uiso   1.00
H348   H     0.76695   0.16565   0.25143   0.00000  Uiso   1.00
H349   H     0.79653   0.05562   0.20603   0.00000  Uiso   1.00
H350   H     0.69357   0.10337   0.67240   0.00000  Uiso   1.00
H351   H     0.75677   0.22411   0.41889   0.00000  Uiso   1.00
H352   H     0.81914   0.99211   0.32317   0.00000  Uiso   1.00
H353   H     0.66007   0.07513   0.32349   0.00000  Uiso   1.00
H354   H     0.62738   0.07270   0.10811   0.00000  Uiso   1.00
H355   H     0.65735   0.12997   0.46212   0.00000  Uiso   1.00
H356   H     0.68693   0.01995   0.41673   0.00000  Uiso   1.00
H357   H     0.60462   0.07442   0.84341   0.00000  Uiso   1.00
H358   H     0.66782   0.19516   0.58991   0.00000  Uiso   1.00
H359   H     0.73019   0.96316   0.49418   0.00000  Uiso   1.00
O360   O     0.62946   0.08792   0.61262   0.00000  Uiso   1.00
O361   O     0.71238   0.24633   0.59201   0.00000  Uiso   1.00
O362   O     0.79421   0.94194   0.46641   0.00000  Uiso   1.00
N363   N     0.67712   0.09688   0.74220   0.00000  Uiso   1.00
N364   N     0.73621   0.20977   0.44011   0.00000  Uiso   1.00
N365   N     0.79452   0.99287   0.35065   0.00000  Uiso   1.00
N366   N     0.62926   0.08130   0.83422   0.00000  Uiso   1.00
N367   N     0.68834   0.19419   0.53213   0.00000  Uiso   1.00
N368   N     0.74666   0.97729   0.44267   0.00000  Uiso   1.00
C369   C     0.60120   0.24016   0.66950   0.00000  Uiso   1.00
C370   C     0.59620   0.21109   0.57423   0.00000  Uiso   1.00
C371   C     0.60067   0.21331   0.44286   0.00000  Uiso   1.00
C372   C     0.59484   0.18384   0.37226   0.00000  Uiso   1.00
C373   C     0.58861   0.14335   0.21538   0.00000  Uiso   1.00
C374   C     0.62732   0.22737   0.76656   0.00000  Uiso   1.00
C375   C     0.65795   0.24329   0.79692   0.00000  Uiso   1.00
C376   C     0.67831   0.22752   0.88825   0.00000  Uiso   1.00
C377   C     0.72037   0.21232   0.03004   0.00000  Uiso   1.00
C378   C     0.56754   0.24344   0.74189   0.00000  Uiso   1.00
C379   C     0.54791   0.27287   0.75153   0.00000  Uiso   1.00
C380   C     0.51794   0.27064   0.82210   0.00000  Uiso   1.00
C381   C     0.46719   0.28039   0.92558   0.00000  Uiso   1.00
C382   C     0.58288   0.18387   0.77773   0.00000  Uiso   1.00
C383   C     0.58625   0.18052   0.63301   0.00000  Uiso   1.00
C384   C     0.58040   0.15104   0.56259   0.00000  Uiso   1.00
C385   C     0.58487   0.15321   0.43114   0.00000  Uiso   1.00
C386   C     0.61737   0.19680   0.82534   0.00000  Uiso   1.00
C387   C     0.63768   0.18101   0.91665   0.00000  Uiso   1.00
C388   C     0.66834   0.19689   0.94713   0.00000  Uiso   1.00
C389   C     0.55758   0.21287   0.80067   0.00000  Uiso   1.00
C390   C     0.52764   0.21059   0.87125   0.00000  Uiso   1.00
C391   C     0.50798   0.24001   0.88099   0.00000  Uiso   1.00
H392   H     0.60895   0.26397   0.62375   0.00000  Uiso   1.00
H393   H     0.60838   0.23698   0.39741   0.00000  Uiso   1.00
H394   H     0.66565   0.26695   0.75143   0.00000  Uiso   1.00
H395   H     0.55562   0.29653   0.70603   0.00000  Uiso   1.00
H396   H     0.60337   0.19357   0.17240   0.00000  Uiso   1.00
H397   H     0.72411   0.25677   0.91889   0.00000  Uiso   1.00
H398   H     0.49211   0.31914   0.82317   0.00000  Uiso   1.00
H399   H     0.57513   0.16007   0.82349   0.00000  Uiso   1.00
H400   H     0.57270   0.12738   0.60811   0.00000  Uiso   1.00
H401   H     0.62997   0.15735   0.96212   0.00000  Uiso   1.00
H402   H     0.51995   0.18693   0.91673   0.00000  Uiso   1.00
H403   H     0.57442   0.10462   0.34341   0.00000  Uiso   1.00
H404   H     0.69516   0.16782   0.08991   0.00000  Uiso   1.00
H405   H     0.46316   0.23019   0.99418   0.00000  Uiso   1.00
O406   O     0.58792   0.12946   0.11262   0.00000  Uiso   1.00
O407   O     0.74633   0.21238   0.09201   0.00000  Uiso   1.00
O408   O     0.44194   0.29421   0.96641   0.00000  Uiso   1.00
N409   N     0.59688   0.17712   0.24220   0.00000  Uiso   1.00
N410   N     0.70977   0.23621   0.94011   0.00000  Uiso   1.00
N411   N     0.49287   0.29452   0.85065   0.00000  Uiso   1.00
N412   N     0.58130   0.12926   0.33422   0.00000  Uiso   1.00
N413   N     0.69419   0.18834   0.03213   0.00000  Uiso   1.00
N414   N     0.47729   0.24666   0.94267   0.00000  Uiso   1.00
C415   C     0.39880   0.75984   0.66950   0.00000  Uiso   1.00
C416   C     0.40380   0.78891   0.57423   0.00000  Uiso   1.00
C417   C     0.39933   0.78669   0.44286   0.00000  Uiso   1.00
C418   C     0.40516   0.81616   0.37226   0.00000  Uiso   1.00
C419   C     0.41139   0.85665   0.21538   0.00000  Uiso   1.00
C420   C     0.37268   0.77263   0.76656   0.00000  Uiso   1.00
C421   C     0.34205   0.75671   0.79692   0.00000  Uiso   1.00
C422   C     0.32169   0.77248   0.88825   0.00000  Uiso   1.00
C423   C     0.27963   0.78768   0.03004   0.00000  Uiso   1.00
C424   C     0.43246   0.75656   0.74189   0.00000  Uiso   1.00
C425   C     0.45209   0.72713   0.75153   0.00000  Uiso   1.00
C426   C     0.48206   0.72936   0.82210   0.00000  Uiso   1.00
C427   C     0.53281   0.71961   0.92558   0.00000  Uiso   1.00
C428   C     0.41712   0.81613   0.77773   0.00000  Uiso   1.00
C429   C     0.41375   0.81948   0.63301   0.00000  Uiso   1.00
C430   C     0.41960   0.84896   0.56259   0.00000  Uiso   1.00
C431   C     0.41513   0.84679   0.43114   0.00000  Uiso   1.00
C432   C     0.38263   0.80320   0.82534   0.00000  Uiso   1.00
C433   C     0.36232   0.81899   0.91665   0.00000  Uiso   1.00
C434   C     0.33166   0.80311   0.94713   0.00000  Uiso   1.00
C435   C     0.44242   0.78713   0.80067   0.00000  Uiso   1.00
C436   C     0.47236   0.78941   0.87125   0.00000  Uiso   1.00
C437   C     0.49202   0.75999   0.88099   0.00000  Uiso   1.00
H438   H     0.39105   0.73603   0.62375   0.00000  Uiso   1.00
H439   H     0.39162   0.76302   0.39741   0.00000  Uiso   1.00
H440   H     0.33435   0.73305   0.75143   0.00000  Uiso   1.00
H441   H     0.44438   0.70347   0.70603   0.00000  Uiso   1.00
H442   H     0.39663   0.80643   0.17240   0.00000  Uiso   1.00
H443   H     0.27589   0.74323   0.91889   0.00000  Uiso   1.00
H444   H     0.50789   0.68086   0.82317   0.00000  Uiso   1.00
H445   H     0.42487   0.83993   0.82349   0.00000  Uiso   1.00
H446   H     0.42730   0.87262   0.60811   0.00000  Uiso   1.00
H447   H     0.37003   0.84265   0.96212   0.00000  Uiso   1.00
H448   H     0.48005   0.81307   0.91673   0.00000  Uiso   1.00
H449   H     0.42558   0.89538   0.34341   0.00000  Uiso   1.00
H450   H     0.30484   0.83218   0.08991   0.00000  Uiso   1.00
H451   H     0.53684   0.76981   0.99418   0.00000  Uiso   1.00
O452   O     0.41208   0.87054   0.11262   0.00000  Uiso   1.00
O453   O     0.25367   0.78762   0.09201   0.00000  Uiso   1.00
O454   O     0.55806   0.70579   0.96641   0.00000  Uiso   1.00
N455   N     0.40312   0.82288   0.24220   0.00000  Uiso   1.00
N456   N     0.29023   0.76379   0.94011   0.00000  Uiso   1.00
N457   N     0.50713   0.70548   0.85065   0.00000  Uiso   1.00
N458   N     0.41870   0.87074   0.33422   0.00000  Uiso   1.00
N459   N     0.30581   0.81166   0.03213   0.00000  Uiso   1.00
N460   N     0.52271   0.75334   0.94267   0.00000  Uiso   1.00
C461   C     0.25984   0.10120   0.66950   0.00000  Uiso   1.00
C462   C     0.28891   0.09620   0.57423   0.00000  Uiso   1.00
C463   C     0.28669   0.10067   0.44286   0.00000  Uiso   1.00
C464   C     0.31616   0.09484   0.37226   0.00000  Uiso   1.00
C465   C     0.35665   0.08861   0.21538   0.00000  Uiso   1.00
C466   C     0.27263   0.12732   0.76656   0.00000  Uiso   1.00
C467   C     0.25671   0.15795   0.79692   0.00000  Uiso   1.00
C468   C     0.27248   0.17831   0.88825   0.00000  Uiso   1.00
C469   C     0.28768   0.22037   0.03004   0.00000  Uiso   1.00
C470   C     0.25656   0.06754   0.74189   0.00000  Uiso   1.00
C471   C     0.22713   0.04791   0.75153   0.00000  Uiso   1.00
C472   C     0.22936   0.01794   0.82210   0.00000  Uiso   1.00
C473   C     0.21961   0.96719   0.92558   0.00000  Uiso   1.00
C474   C     0.31613   0.08288   0.77773   0.00000  Uiso   1.00
C475   C     0.31948   0.08625   0.63301   0.00000  Uiso   1.00
C476   C     0.34896   0.08040   0.56259   0.00000  Uiso   1.00
C477   C     0.34679   0.08487   0.43114   0.00000  Uiso   1.00
C478   C     0.30320   0.11737   0.82534   0.00000  Uiso   1.00
C479   C     0.31899   0.13768   0.91665   0.00000  Uiso   1.00
C480   C     0.30311   0.16834   0.94713   0.00000  Uiso   1.00
C481   C     0.28713   0.05758   0.80067   0.00000  Uiso   1.00
C482   C     0.28941   0.02764   0.87125   0.00000  Uiso   1.00
C483   C     0.25999   0.00798   0.88099   0.00000  Uiso   1.00
H484   H     0.23603   0.10895   0.62375   0.00000  Uiso   1.00
H485   H     0.26302   0.10838   0.39741   0.00000  Uiso   1.00
H486   H     0.23305   0.16565   0.75143   0.00000  Uiso   1.00
H487   H     0.20347   0.05562   0.70603   0.00000  Uiso   1.00
H488   H     0.30643   0.10337   0.17240   0.00000  Uiso   1.00
H489   H     0.24323   0.22411   0.91889   0.00000  Uiso   1.00
H490   H     0.18086   0.99211   0.82317   0.00000  Uiso   1.00
H491   H     0.33993   0.07513   0.82349   0.00000  Uiso   1.00
H492   H     0.37262   0.07270   0.60811   0.00000  Uiso   1.00
H493   H     0.34265   0.12997   0.96212   0.00000  Uiso   1.00
H494   H     0.31307   0.01995   0.91673   0.00000  Uiso   1.00
H495   H     0.39538   0.07442   0.34341   0.00000  Uiso   1.00
H496   H     0.33218   0.19516   0.08991   0.00000  Uiso   1.00
H497   H     0.26981   0.96316   0.99418   0.00000  Uiso   1.00
O498   O     0.37054   0.08792   0.11262   0.00000  Uiso   1.00
O499   O     0.28762   0.24633   0.09201   0.00000  Uiso   1.00
O500   O     0.20579   0.94194   0.96641   0.00000  Uiso   1.00
N501   N     0.32288   0.09688   0.24220   0.00000  Uiso   1.00
N502   N     0.26379   0.20977   0.94011   0.00000  Uiso   1.00
N503   N     0.20548   0.99287   0.85065   0.00000  Uiso   1.00
N504   N     0.37074   0.08130   0.33422   0.00000  Uiso   1.00
N505   N     0.31166   0.19419   0.03213   0.00000  Uiso   1.00
N506   N     0.25334   0.97729   0.94267   0.00000  Uiso   1.00
C507   C     0.74016   0.89880   0.66950   0.00000  Uiso   1.00
C508   C     0.71109   0.90380   0.57423   0.00000  Uiso   1.00
C509   C     0.71331   0.89933   0.44286   0.00000  Uiso   1.00
C510   C     0.68384   0.90516   0.37226   0.00000  Uiso   1.00
C511   C     0.64335   0.91139   0.21538   0.00000  Uiso   1.00
C512   C     0.72737   0.87268   0.76656   0.00000  Uiso   1.00
C513   C     0.74329   0.84205   0.79692   0.00000  Uiso   1.00
C514   C     0.72752   0.82169   0.88825   0.00000  Uiso   1.00
C515   C     0.71232   0.77963   0.03004   0.00000  Uiso   1.00
C516   C     0.74344   0.93246   0.74189   0.00000  Uiso   1.00
C517   C     0.77287   0.95209   0.75153   0.00000  Uiso   1.00
C518   C     0.77064   0.98206   0.82210   0.00000  Uiso   1.00
C519   C     0.78039   0.03281   0.92558   0.00000  Uiso   1.00
C520   C     0.68387   0.91712   0.77773   0.00000  Uiso   1.00
C521   C     0.68052   0.91375   0.63301   0.00000  Uiso   1.00
C522   C     0.65104   0.91960   0.56259   0.00000  Uiso   1.00
C523   C     0.65321   0.91513   0.43114   0.00000  Uiso   1.00
C524   C     0.69680   0.88263   0.82534   0.00000  Uiso   1.00
C525   C     0.68101   0.86232   0.91665   0.00000  Uiso   1.00
C526   C     0.69689   0.83166   0.94713   0.00000  Uiso   1.00
C527   C     0.71287   0.94242   0.80067   0.00000  Uiso   1.00
C528   C     0.71059   0.97236   0.87125   0.00000  Uiso   1.00
C529   C     0.74001   0.99202   0.88099   0.00000  Uiso   1.00
H530   H     0.76397   0.89105   0.62375   0.00000  Uiso   1.00
H531   H     0.73698   0.89162   0.39741   0.00000  Uiso   1.00
H532   H     0.76695   0.83435   0.75143   0.00000  Uiso   1.00
H533   H     0.79653   0.94438   0.70603   0.00000  Uiso   1.00
H534   H     0.69357   0.89663   0.17240   0.00000  Uiso   1.00
H535   H     0.75677   0.77589   0.91889   0.00000  Uiso   1.00
H536   H     0.81914   0.00789   0.82317   0.00000  Uiso   1.00
H537   H     0.66007   0.92487   0.82349   0.00000  Uiso   1.00
H538   H     0.62738   0.92730   0.60811   0.00000  Uiso   1.00
H539   H     0.65735   0.87003   0.96212   0.00000  Uiso   1.00
H540   H     0.68693   0.98005   0.91673   0.00000  Uiso   1.00
H541   H     0.60462   0.92558   0.34341   0.00000  Uiso   1.00
H542   H     0.66782   0.80484   0.08991   0.00000  Uiso   1.00
H543   H     0.73019   0.03684   0.99418   0.00000  Uiso   1.00
O544   O     0.62946   0.91208   0.11262   0.00000  Uiso   1.00
O545   O     0.71238   0.75367   0.09201   0.00000  Uiso   1.00
O546   O     0.79421   0.05806   0.96641   0.00000  Uiso   1.00
N547   N     0.67712   0.90312   0.24220   0.00000  Uiso   1.00
N548   N     0.73621   0.79023   0.94011   0.00000  Uiso   1.00
N549   N     0.79452   0.00713   0.85065   0.00000  Uiso   1.00
N550   N     0.62926   0.91870   0.33422   0.00000  Uiso   1.00
N551   N     0.68834   0.80581   0.03213   0.00000  Uiso   1.00
N552   N     0.74666   0.02271   0.94267   0.00000  Uiso   1.00
C553   C     0.89880   0.74016   0.83050   0.00000  Uiso   1.00
C554   C     0.90380   0.71109   0.92577   0.00000  Uiso   1.00
C555   C     0.89933   0.71331   0.05714   0.00000  Uiso   1.00
C556   C     0.90516   0.68384   0.12774   0.00000  Uiso   1.00
C557   C     0.91139   0.64335   0.28462   0.00000  Uiso   1.00
C558   C     0.87268   0.72737   0.73344   0.00000  Uiso   1.00
C559   C     0.84205   0.74329   0.70308   0.00000  Uiso   1.00
C560   C     0.82169   0.72752   0.61175   0.00000  Uiso   1.00
C561   C     0.77963   0.71232   0.46996   0.00000  Uiso   1.00
C562   C     0.93246   0.74344   0.75811   0.00000  Uiso   1.00
C563   C     0.95209   0.77287   0.74847   0.00000  Uiso   1.00
C564   C     0.98206   0.77064   0.67790   0.00000  Uiso   1.00
C565   C     0.03281   0.78039   0.57442   0.00000  Uiso   1.00
C566   C     0.91712   0.68387   0.72227   0.00000  Uiso   1.00
C567   C     0.91375   0.68052   0.86699   0.00000  Uiso   1.00
C568   C     0.91960   0.65104   0.93741   0.00000  Uiso   1.00
C569   C     0.91513   0.65321   0.06886   0.00000  Uiso   1.00
C570   C     0.88263   0.69680   0.67466   0.00000  Uiso   1.00
C571   C     0.86232   0.68101   0.58335   0.00000  Uiso   1.00
C572   C     0.83166   0.69689   0.55287   0.00000  Uiso   1.00
C573   C     0.94242   0.71287   0.69933   0.00000  Uiso   1.00
C574   C     0.97236   0.71059   0.62875   0.00000  Uiso   1.00
C575   C     0.99202   0.74001   0.61901   0.00000  Uiso   1.00
H576   H     0.89105   0.76397   0.87625   0.00000  Uiso   1.00
H577   H     0.89162   0.73698   0.10259   0.00000  Uiso   1.00
H578   H     0.83435   0.76695   0.74857   0.00000  Uiso   1.00
H579   H     0.94438   0.79653   0.79397   0.00000  Uiso   1.00
H580   H     0.89663   0.69357   0.32760   0.00000  Uiso   1.00
H581   H     0.77589   0.75677   0.58111   0.00000  Uiso   1.00
H582   H     0.00789   0.81914   0.67683   0.00000  Uiso   1.00
H583   H     0.92487   0.66007   0.67651   0.00000  Uiso   1.00
H584   H     0.92730   0.62738   0.89189   0.00000  Uiso   1.00
H585   H     0.87003   0.65735   0.53788   0.00000  Uiso   1.00
H586   H     0.98005   0.68693   0.58327   0.00000  Uiso   1.00
H587   H     0.92558   0.60462   0.15659   0.00000  Uiso   1.00
H588   H     0.80484   0.66782   0.41009   0.00000  Uiso   1.00
H589   H     0.03684   0.73019   0.50582   0.00000  Uiso   1.00
O590   O     0.91208   0.62946   0.38738   0.00000  Uiso   1.00
O591   O     0.75367   0.71238   0.40799   0.00000  Uiso   1.00
O592   O     0.05806   0.79421   0.53359   0.00000  Uiso   1.00
N593   N     0.90312   0.67712   0.25780   0.00000  Uiso   1.00
N594   N     0.79023   0.73621   0.55989   0.00000  Uiso   1.00
N595   N     0.00713   0.79452   0.64935   0.00000  Uiso   1.00
N596   N     0.91870   0.62926   0.16578   0.00000  Uiso   1.00
N597   N     0.80581   0.68834   0.46787   0.00000  Uiso   1.00
N598   N     0.02271   0.74666   0.55733   0.00000  Uiso   1.00
C599   C     0.10120   0.25984   0.83050   0.00000  Uiso   1.00
C600   C     0.09620   0.28891   0.92577   0.00000  Uiso   1.00
C601   C     0.10067   0.28669   0.05714   0.00000  Uiso   1.00
C602   C     0.09484   0.31616   0.12774   0.00000  Uiso   1.00
C603   C     0.08861   0.35665   0.28462   0.00000  Uiso   1.00
C604   C     0.12732   0.27263   0.73344   0.00000  Uiso   1.00
C605   C     0.15795   0.25671   0.70308   0.00000  Uiso   1.00
C606   C     0.17831   0.27248   0.61175   0.00000  Uiso   1.00
C607   C     0.22037   0.28768   0.46996   0.00000  Uiso   1.00
C608   C     0.06754   0.25656   0.75811   0.00000  Uiso   1.00
C609   C     0.04791   0.22713   0.74847   0.00000  Uiso   1.00
C610   C     0.01794   0.22936   0.67790   0.00000  Uiso   1.00
C611   C     0.96719   0.21961   0.57442   0.00000  Uiso   1.00
C612   C     0.08288   0.31613   0.72227   0.00000  Uiso   1.00
C613   C     0.08625   0.31948   0.86699   0.00000  Uiso   1.00
C614   C     0.08040   0.34896   0.93741   0.00000  Uiso   1.00
C615   C     0.08487   0.34679   0.06886   0.00000  Uiso   1.00
C616   C     0.11737   0.30320   0.67466   0.00000  Uiso   1.00
C617   C     0.13768   0.31899   0.58335   0.00000  Uiso   1.00
C618   C     0.16834   0.30311   0.55287   0.00000  Uiso   1.00
C619   C     0.05758   0.28713   0.69933   0.00000  Uiso   1.00
C620   C     0.02764   0.28941   0.62875   0.00000  Uiso   1.00
C621   C     0.00798   0.25999   0.61901   0.00000  Uiso   1.00
H622   H     0.10895   0.23603   0.87625   0.00000  Uiso   1.00
H623   H     0.10838   0.26302   0.10259   0.00000  Uiso   1.00
H624   H     0.16565   0.23305   0.74857   0.00000  Uiso   1.00
H625   H     0.05562   0.20347   0.79397   0.00000  Uiso   1.00
H626   H     0.10337   0.30643   0.32760   0.00000  Uiso   1.00
H627   H     0.22411   0.24323   0.58111   0.00000  Uiso   1.00
H628   H     0.99211   0.18086   0.67683   0.00000  Uiso   1.00
H629   H     0.07513   0.33993   0.67651   0.00000  Uiso   1.00
H630   H     0.07270   0.37262   0.89189   0.00000  Uiso   1.00
H631   H     0.12997   0.34265   0.53788   0.00000  Uiso   1.00
H632   H     0.01995   0.31307   0.58327   0.00000  Uiso   1.00
H633   H     0.07442   0.39538   0.15659   0.00000  Uiso   1.00
H634   H     0.19516   0.33218   0.41009   0.00000  Uiso   1.00
H635   H     0.96316   0.26981   0.50582   0.00000  Uiso   1.00
O636   O     0.08792   0.37054   0.38738   0.00000  Uiso   1.00
O637   O     0.24633   0.28762   0.40799   0.00000  Uiso   1.00
O638   O     0.94194   0.20579   0.53359   0.00000  Uiso   1.00
N639   N     0.09688   0.32288   0.25780   0.00000  Uiso   1.00
N640   N     0.20977   0.26379   0.55989   0.00000  Uiso   1.00
N641   N     0.99287   0.20548   0.64935   0.00000  Uiso   1.00
N642   N     0.08130   0.37074   0.16578   0.00000  Uiso   1.00
N643   N     0.19419   0.31166   0.46787   0.00000  Uiso   1.00
N644   N     0.97729   0.25334   0.55733   0.00000  Uiso   1.00
C645   C     0.24016   0.60120   0.83050   0.00000  Uiso   1.00
C646   C     0.21109   0.59620   0.92577   0.00000  Uiso   1.00
C647   C     0.21331   0.60067   0.05714   0.00000  Uiso   1.00
C648   C     0.18384   0.59484   0.12774   0.00000  Uiso   1.00
C649   C     0.14335   0.58861   0.28462   0.00000  Uiso   1.00
C650   C     0.22737   0.62732   0.73344   0.00000  Uiso   1.00
C651   C     0.24329   0.65795   0.70308   0.00000  Uiso   1.00
C652   C     0.22752   0.67831   0.61175   0.00000  Uiso   1.00
C653   C     0.21232   0.72037   0.46996   0.00000  Uiso   1.00
C654   C     0.24344   0.56754   0.75811   0.00000  Uiso   1.00
C655   C     0.27287   0.54791   0.74847   0.00000  Uiso   1.00
C656   C     0.27064   0.51794   0.67790   0.00000  Uiso   1.00
C657   C     0.28039   0.46719   0.57442   0.00000  Uiso   1.00
C658   C     0.18387   0.58288   0.72227   0.00000  Uiso   1.00
C659   C     0.18052   0.58625   0.86699   0.00000  Uiso   1.00
C660   C     0.15104   0.58040   0.93741   0.00000  Uiso   1.00
C661   C     0.15321   0.58487   0.06886   0.00000  Uiso   1.00
C662   C     0.19680   0.61737   0.67466   0.00000  Uiso   1.00
C663   C     0.18101   0.63768   0.58335   0.00000  Uiso   1.00
C664   C     0.19689   0.66834   0.55287   0.00000  Uiso   1.00
C665   C     0.21287   0.55758   0.69933   0.00000  Uiso   1.00
C666   C     0.21059   0.52764   0.62875   0.00000  Uiso   1.00
C667   C     0.24001   0.50798   0.61901   0.00000  Uiso   1.00
H668   H     0.26397   0.60895   0.87625   0.00000  Uiso   1.00
H669   H     0.23698   0.60838   0.10259   0.00000  Uiso   1.00
H670   H     0.26695   0.66565   0.74857   0.00000  Uiso   1.00
H671   H     0.29653   0.55562   0.79397   0.00000  Uiso   1.00
H672   H     0.19357   0.60337   0.32760   0.00000  Uiso   1.00
H673   H     0.25677   0.72411   0.58111   0.00000  Uiso   1.00
H674   H     0.31914   0.49211   0.67683   0.00000  Uiso   1.00
H675   H     0.16007   0.57513   0.67651   0.00000  Uiso   1.00
H676   H     0.12738   0.57270   0.89189   0.00000  Uiso   1.00
H677   H     0.15735   0.62997   0.53788   0.00000  Uiso   1.00
H678   H     0.18693   0.51995   0.58327   0.00000  Uiso   1.00
H679   H     0.10462   0.57442   0.15659   0.00000  Uiso   1.00
H680   H     0.16782   0.69516   0.41009   0.00000  Uiso   1.00
H681   H     0.23019   0.46316   0.50582   0.00000  Uiso   1.00
O682   O     0.12946   0.58792   0.38738   0.00000  Uiso   1.00
O683   O     0.21238   0.74633   0.40799   0.00000  Uiso   1.00
O684   O     0.29421   0.44194   0.53359   0.00000  Uiso   1.00
N685   N     0.17712   0.59688   0.25780   0.00000  Uiso   1.00
N686   N     0.23621   0.70977   0.55989   0.00000  Uiso   1.00
N687   N     0.29452   0.49287   0.64935   0.00000  Uiso   1.00
N688   N     0.12926   0.58130   0.16578   0.00000  Uiso   1.00
N689   N     0.18834   0.69419   0.46787   0.00000  Uiso   1.00
N690   N     0.24666   0.47729   0.55733   0.00000  Uiso   1.00
C691   C     0.75984   0.39880   0.83050   0.00000  Uiso   1.00
C692   C     0.78891   0.40380   0.92577   0.00000  Uiso   1.00
C693   C     0.78669   0.39933   0.05714   0.00000  Uiso   1.00
C694   C     0.81616   0.40516   0.12774   0.00000  Uiso   1.00
C695   C     0.85665   0.41139   0.28462   0.00000  Uiso   1.00
C696   C     0.77263   0.37268   0.73344   0.00000  Uiso   1.00
C697   C     0.75671   0.34205   0.70308   0.00000  Uiso   1.00
C698   C     0.77248   0.32169   0.61175   0.00000  Uiso   1.00
C699   C     0.78768   0.27963   0.46996   0.00000  Uiso   1.00
C700   C     0.75656   0.43246   0.75811   0.00000  Uiso   1.00
C701   C     0.72713   0.45209   0.74847   0.00000  Uiso   1.00
C702   C     0.72936   0.48206   0.67790   0.00000  Uiso   1.00
C703   C     0.71961   0.53281   0.57442   0.00000  Uiso   1.00
C704   C     0.81613   0.41712   0.72227   0.00000  Uiso   1.00
C705   C     0.81948   0.41375   0.86699   0.00000  Uiso   1.00
C706   C     0.84896   0.41960   0.93741   0.00000  Uiso   1.00
C707   C     0.84679   0.41513   0.06886   0.00000  Uiso   1.00
C708   C     0.80320   0.38263   0.67466   0.00000  Uiso   1.00
C709   C     0.81899   0.36232   0.58335   0.00000  Uiso   1.00
C710   C     0.80311   0.33166   0.55287   0.00000  Uiso   1.00
C711   C     0.78713   0.44242   0.69933   0.00000  Uiso   1.00
C712   C     0.78941   0.47236   0.62875   0.00000  Uiso   1.00
C713   C     0.75999   0.49202   0.61901   0.00000  Uiso   1.00
H714   H     0.73603   0.39105   0.87625   0.00000  Uiso   1.00
H715   H     0.76302   0.39162   0.10259   0.00000  Uiso   1.00
H716   H     0.73305   0.33435   0.74857   0.00000  Uiso   1.00
H717   H     0.70347   0.44438   0.79397   0.00000  Uiso   1.00
H718   H     0.80643   0.39663   0.32760   0.00000  Uiso   1.00
H719   H     0.74323   0.27589   0.58111   0.00000  Uiso   1.00
H720   H     0.68086   0.50789   0.67683   0.00000  Uiso   1.00
H721   H     0.83993   0.42487   0.67651   0.00000  Uiso   1.00
H722   H     0.87262   0.42730   0.89189   0.00000  Uiso   1.00
H723   H     0.84265   0.37003   0.53788   0.00000  Uiso   1.00
H724   H     0.81307   0.48005   0.58327   0.00000  Uiso   1.00
H725   H     0.89538   0.42558   0.15659   0.00000  Uiso   1.00
H726   H     0.83218   0.30484   0.41009   0.00000  Uiso   1.00
H727   H     0.76981   0.53684   0.50582   0.00000  Uiso   1.00
O728   O     0.87054   0.41208   0.38738   0.00000  Uiso   1.00
O729   O     0.78762   0.25367   0.40799   0.00000  Uiso   1.00
O730   O     0.70579   0.55806   0.53359   0.00000  Uiso   1.00
N731   N     0.82288   0.40312   0.25780   0.00000  Uiso   1.00
N732   N     0.76379   0.29023   0.55989   0.00000  Uiso   1.00
N733   N     0.70548   0.50713   0.64935   0.00000  Uiso   1.00
N734   N     0.87074   0.41870   0.16578   0.00000  Uiso   1.00
N735   N     0.81166   0.30581   0.46787   0.00000  Uiso   1.00
N736   N     0.75334   0.52271   0.55733   0.00000  Uiso   1.00
