data_job_03157
_audit_creation_date              2018-12-19
_audit_creation_method            'Materials Studio'
_symmetry_space_group_name_H-M    'P1'
_symmetry_Int_Tables_number       1
_symmetry_cell_setting            triclinic
loop_
_symmetry_equiv_pos_as_xyz
  x,y,z
_cell_length_a                    21.9592
_cell_length_b                    21.9592
_cell_length_c                    24.6112
_cell_angle_alpha                 90.0000
_cell_angle_beta                  90.0000
_cell_angle_gamma                 90.0000
loop_
_atom_site_label
_atom_site_type_symbol
_atom_site_fract_x
_atom_site_fract_y
_atom_site_fract_z
_atom_site_U_iso_or_equiv
_atom_site_adp_type
_atom_site_occupancy
C1     C     0.29281   0.93889   0.60035   0.00000  Uiso   1.00
C2     C     0.31131   0.93221   0.65977   0.00000  Uiso   1.00
C3     C     0.33685   0.97749   0.69183   0.00000  Uiso   1.00
C4     C     0.35057   0.96233   0.74521   0.00000  Uiso   1.00
C5     C     0.38106   0.96083   0.83435   0.00000  Uiso   1.00
C6     C     0.32704   0.88927   0.56958   0.00000  Uiso   1.00
C7     C     0.36581   0.89846   0.52580   0.00000  Uiso   1.00
C8     C     0.39276   0.84715   0.50326   0.00000  Uiso   1.00
C9     C     0.44764   0.77899   0.45235   0.00000  Uiso   1.00
C10    C     0.22564   0.92153   0.59759   0.00000  Uiso   1.00
C11    C     0.17915   0.95784   0.57735   0.00000  Uiso   1.00
C12    C     0.12073   0.93368   0.57838   0.00000  Uiso   1.00
C13    C     0.01817   0.91561   0.57096   0.00000  Uiso   1.00
C14    C     0.27174   0.83143   0.63815   0.00000  Uiso   1.00
C15    C     0.29987   0.87384   0.68030   0.00000  Uiso   1.00
C16    C     0.31354   0.85860   0.73365   0.00000  Uiso   1.00
C17    C     0.33910   0.90385   0.76578   0.00000  Uiso   1.00
C18    C     0.31560   0.83091   0.59011   0.00000  Uiso   1.00
C19    C     0.34250   0.77957   0.56762   0.00000  Uiso   1.00
C20    C     0.38129   0.78867   0.52382   0.00000  Uiso   1.00
C21    C     0.21420   0.86317   0.61812   0.00000  Uiso   1.00
C22    C     0.15584   0.83895   0.61917   0.00000  Uiso   1.00
C23    C     0.10926   0.87520   0.59894   0.00000  Uiso   1.00
H24    H     0.30172   0.98433   0.58436   0.00000  Uiso   1.00
H25    H     0.34571   0.02266   0.67593   0.00000  Uiso   1.00
H26    H     0.37465   0.94363   0.50992   0.00000  Uiso   1.00
H27    H     0.18802   0.00300   0.56147   0.00000  Uiso   1.00
H28    H     0.38945   0.03940   0.78649   0.00000  Uiso   1.00
H29    H     0.45046   0.87278   0.43645   0.00000  Uiso   1.00
H30    H     0.05691   0.99797   0.54514   0.00000  Uiso   1.00
H31    H     0.26283   0.78598   0.65413   0.00000  Uiso   1.00
H32    H     0.30468   0.81343   0.74952   0.00000  Uiso   1.00
H33    H     0.33363   0.73441   0.58352   0.00000  Uiso   1.00
H34    H     0.14700   0.79378   0.63506   0.00000  Uiso   1.00
H35    H     0.35616   0.86959   0.84622   0.00000  Uiso   1.00
H36    H     0.41716   0.70296   0.49618   0.00000  Uiso   1.00
H37    H     0.02362   0.82815   0.60487   0.00000  Uiso   1.00
O38    O     0.40106   0.97612   0.87785   0.00000  Uiso   1.00
O39    O     0.48109   0.75752   0.41860   0.00000  Uiso   1.00
O40    O     0.96477   0.92177   0.56120   0.00000  Uiso   1.00
N41    N     0.37586   0.99567   0.78746   0.00000  Uiso   1.00
N42    N     0.43291   0.83989   0.46020   0.00000  Uiso   1.00
N43    N     0.06498   0.95693   0.56180   0.00000  Uiso   1.00
N44    N     0.35794   0.90430   0.81960   0.00000  Uiso   1.00
N45    N     0.41499   0.74852   0.49234   0.00000  Uiso   1.00
N46    N     0.04706   0.86555   0.59394   0.00000  Uiso   1.00
C47    C     0.70719   0.06111   0.60035   0.00000  Uiso   1.00
C48    C     0.68869   0.06779   0.65977   0.00000  Uiso   1.00
C49    C     0.66315   0.02251   0.69183   0.00000  Uiso   1.00
C50    C     0.64943   0.03767   0.74521   0.00000  Uiso   1.00
C51    C     0.61894   0.03917   0.83435   0.00000  Uiso   1.00
C52    C     0.67296   0.11073   0.56958   0.00000  Uiso   1.00
C53    C     0.63419   0.10154   0.52580   0.00000  Uiso   1.00
C54    C     0.60724   0.15285   0.50326   0.00000  Uiso   1.00
C55    C     0.55236   0.22101   0.45235   0.00000  Uiso   1.00
C56    C     0.77436   0.07847   0.59759   0.00000  Uiso   1.00
C57    C     0.82085   0.04216   0.57735   0.00000  Uiso   1.00
C58    C     0.87927   0.06632   0.57838   0.00000  Uiso   1.00
C59    C     0.98183   0.08439   0.57096   0.00000  Uiso   1.00
C60    C     0.72826   0.16857   0.63815   0.00000  Uiso   1.00
C61    C     0.70013   0.12616   0.68030   0.00000  Uiso   1.00
C62    C     0.68646   0.14140   0.73365   0.00000  Uiso   1.00
C63    C     0.66090   0.09615   0.76578   0.00000  Uiso   1.00
C64    C     0.68440   0.16909   0.59011   0.00000  Uiso   1.00
C65    C     0.65750   0.22043   0.56762   0.00000  Uiso   1.00
C66    C     0.61871   0.21133   0.52382   0.00000  Uiso   1.00
C67    C     0.78580   0.13683   0.61812   0.00000  Uiso   1.00
C68    C     0.84416   0.16105   0.61917   0.00000  Uiso   1.00
C69    C     0.89074   0.12480   0.59894   0.00000  Uiso   1.00
H70    H     0.69828   0.01567   0.58436   0.00000  Uiso   1.00
H71    H     0.65429   0.97734   0.67593   0.00000  Uiso   1.00
H72    H     0.62535   0.05637   0.50992   0.00000  Uiso   1.00
H73    H     0.81198   0.99700   0.56147   0.00000  Uiso   1.00
H74    H     0.61055   0.96060   0.78649   0.00000  Uiso   1.00
H75    H     0.54954   0.12722   0.43645   0.00000  Uiso   1.00
H76    H     0.94309   0.00203   0.54514   0.00000  Uiso   1.00
H77    H     0.73717   0.21402   0.65413   0.00000  Uiso   1.00
H78    H     0.69532   0.18657   0.74952   0.00000  Uiso   1.00
H79    H     0.66637   0.26559   0.58352   0.00000  Uiso   1.00
H80    H     0.85300   0.20622   0.63506   0.00000  Uiso   1.00
H81    H     0.64384   0.13041   0.84622   0.00000  Uiso   1.00
H82    H     0.58284   0.29704   0.49618   0.00000  Uiso   1.00
H83    H     0.97638   0.17185   0.60487   0.00000  Uiso   1.00
O84    O     0.59894   0.02388   0.87785   0.00000  Uiso   1.00
O85    O     0.51891   0.24248   0.41860   0.00000  Uiso   1.00
O86    O     0.03523   0.07823   0.56120   0.00000  Uiso   1.00
N87    N     0.62414   0.00433   0.78746   0.00000  Uiso   1.00
N88    N     0.56709   0.16011   0.46020   0.00000  Uiso   1.00
N89    N     0.93502   0.04307   0.56180   0.00000  Uiso   1.00
N90    N     0.64206   0.09570   0.81960   0.00000  Uiso   1.00
N91    N     0.58501   0.25148   0.49234   0.00000  Uiso   1.00
N92    N     0.95294   0.13445   0.59394   0.00000  Uiso   1.00
C93    C     0.56111   0.79281   0.60035   0.00000  Uiso   1.00
C94    C     0.56779   0.81131   0.65977   0.00000  Uiso   1.00
C95    C     0.52251   0.83685   0.69183   0.00000  Uiso   1.00
C96    C     0.53767   0.85057   0.74521   0.00000  Uiso   1.00
C97    C     0.53917   0.88106   0.83435   0.00000  Uiso   1.00
C98    C     0.61073   0.82704   0.56958   0.00000  Uiso   1.00
C99    C     0.60154   0.86581   0.52580   0.00000  Uiso   1.00
C100   C     0.65285   0.89276   0.50326   0.00000  Uiso   1.00
C101   C     0.72101   0.94764   0.45235   0.00000  Uiso   1.00
C102   C     0.57847   0.72564   0.59759   0.00000  Uiso   1.00
C103   C     0.54216   0.67915   0.57735   0.00000  Uiso   1.00
C104   C     0.56632   0.62073   0.57838   0.00000  Uiso   1.00
C105   C     0.58439   0.51817   0.57096   0.00000  Uiso   1.00
C106   C     0.66857   0.77174   0.63815   0.00000  Uiso   1.00
C107   C     0.62616   0.79987   0.68030   0.00000  Uiso   1.00
C108   C     0.64140   0.81354   0.73365   0.00000  Uiso   1.00
C109   C     0.59615   0.83910   0.76578   0.00000  Uiso   1.00
C110   C     0.66909   0.81560   0.59011   0.00000  Uiso   1.00
C111   C     0.72043   0.84250   0.56762   0.00000  Uiso   1.00
C112   C     0.71133   0.88129   0.52382   0.00000  Uiso   1.00
C113   C     0.63683   0.71420   0.61812   0.00000  Uiso   1.00
C114   C     0.66105   0.65584   0.61917   0.00000  Uiso   1.00
C115   C     0.62480   0.60926   0.59894   0.00000  Uiso   1.00
H116   H     0.51567   0.80172   0.58436   0.00000  Uiso   1.00
H117   H     0.47734   0.84571   0.67593   0.00000  Uiso   1.00
H118   H     0.55637   0.87465   0.50992   0.00000  Uiso   1.00
H119   H     0.49700   0.68802   0.56147   0.00000  Uiso   1.00
H120   H     0.46060   0.88945   0.78649   0.00000  Uiso   1.00
H121   H     0.62722   0.95046   0.43645   0.00000  Uiso   1.00
H122   H     0.50203   0.55691   0.54514   0.00000  Uiso   1.00
H123   H     0.71402   0.76283   0.65413   0.00000  Uiso   1.00
H124   H     0.68657   0.80468   0.74952   0.00000  Uiso   1.00
H125   H     0.76559   0.83363   0.58352   0.00000  Uiso   1.00
H126   H     0.70622   0.64700   0.63506   0.00000  Uiso   1.00
H127   H     0.63041   0.85616   0.84622   0.00000  Uiso   1.00
H128   H     0.79704   0.91716   0.49618   0.00000  Uiso   1.00
H129   H     0.67185   0.52362   0.60487   0.00000  Uiso   1.00
O130   O     0.52388   0.90106   0.87785   0.00000  Uiso   1.00
O131   O     0.74248   0.98109   0.41860   0.00000  Uiso   1.00
O132   O     0.57823   0.46477   0.56120   0.00000  Uiso   1.00
N133   N     0.50433   0.87586   0.78746   0.00000  Uiso   1.00
N134   N     0.66011   0.93291   0.46020   0.00000  Uiso   1.00
N135   N     0.54307   0.56498   0.56180   0.00000  Uiso   1.00
N136   N     0.59570   0.85794   0.81960   0.00000  Uiso   1.00
N137   N     0.75148   0.91499   0.49234   0.00000  Uiso   1.00
N138   N     0.63445   0.54706   0.59394   0.00000  Uiso   1.00
C139   C     0.43889   0.20719   0.60035   0.00000  Uiso   1.00
C140   C     0.43221   0.18869   0.65977   0.00000  Uiso   1.00
C141   C     0.47749   0.16315   0.69183   0.00000  Uiso   1.00
C142   C     0.46233   0.14943   0.74521   0.00000  Uiso   1.00
C143   C     0.46083   0.11894   0.83435   0.00000  Uiso   1.00
C144   C     0.38927   0.17296   0.56958   0.00000  Uiso   1.00
C145   C     0.39846   0.13419   0.52580   0.00000  Uiso   1.00
C146   C     0.34715   0.10724   0.50326   0.00000  Uiso   1.00
C147   C     0.27899   0.05236   0.45235   0.00000  Uiso   1.00
C148   C     0.42153   0.27436   0.59759   0.00000  Uiso   1.00
C149   C     0.45784   0.32085   0.57735   0.00000  Uiso   1.00
C150   C     0.43368   0.37927   0.57838   0.00000  Uiso   1.00
C151   C     0.41561   0.48183   0.57096   0.00000  Uiso   1.00
C152   C     0.33143   0.22826   0.63815   0.00000  Uiso   1.00
C153   C     0.37384   0.20013   0.68030   0.00000  Uiso   1.00
C154   C     0.35860   0.18646   0.73365   0.00000  Uiso   1.00
C155   C     0.40385   0.16090   0.76578   0.00000  Uiso   1.00
C156   C     0.33091   0.18440   0.59011   0.00000  Uiso   1.00
C157   C     0.27957   0.15750   0.56762   0.00000  Uiso   1.00
C158   C     0.28867   0.11871   0.52382   0.00000  Uiso   1.00
C159   C     0.36317   0.28580   0.61812   0.00000  Uiso   1.00
C160   C     0.33895   0.34416   0.61917   0.00000  Uiso   1.00
C161   C     0.37520   0.39074   0.59894   0.00000  Uiso   1.00
H162   H     0.48433   0.19828   0.58436   0.00000  Uiso   1.00
H163   H     0.52266   0.15429   0.67593   0.00000  Uiso   1.00
H164   H     0.44363   0.12535   0.50992   0.00000  Uiso   1.00
H165   H     0.50300   0.31198   0.56147   0.00000  Uiso   1.00
H166   H     0.53940   0.11055   0.78649   0.00000  Uiso   1.00
H167   H     0.37278   0.04954   0.43645   0.00000  Uiso   1.00
H168   H     0.49797   0.44309   0.54514   0.00000  Uiso   1.00
H169   H     0.28598   0.23717   0.65413   0.00000  Uiso   1.00
H170   H     0.31343   0.19532   0.74952   0.00000  Uiso   1.00
H171   H     0.23441   0.16637   0.58352   0.00000  Uiso   1.00
H172   H     0.29378   0.35300   0.63506   0.00000  Uiso   1.00
H173   H     0.36959   0.14384   0.84622   0.00000  Uiso   1.00
H174   H     0.20296   0.08284   0.49618   0.00000  Uiso   1.00
H175   H     0.32815   0.47638   0.60487   0.00000  Uiso   1.00
O176   O     0.47612   0.09894   0.87785   0.00000  Uiso   1.00
O177   O     0.25752   0.01891   0.41860   0.00000  Uiso   1.00
O178   O     0.42177   0.53523   0.56120   0.00000  Uiso   1.00
N179   N     0.49567   0.12414   0.78746   0.00000  Uiso   1.00
N180   N     0.33989   0.06709   0.46020   0.00000  Uiso   1.00
N181   N     0.45693   0.43502   0.56180   0.00000  Uiso   1.00
N182   N     0.40430   0.14206   0.81960   0.00000  Uiso   1.00
N183   N     0.24852   0.08501   0.49234   0.00000  Uiso   1.00
N184   N     0.36555   0.45294   0.59394   0.00000  Uiso   1.00
C185   C     0.20719   0.43889   0.89965   0.00000  Uiso   1.00
C186   C     0.18869   0.43221   0.84023   0.00000  Uiso   1.00
C187   C     0.16315   0.47749   0.80817   0.00000  Uiso   1.00
C188   C     0.14943   0.46233   0.75479   0.00000  Uiso   1.00
C189   C     0.11894   0.46083   0.66565   0.00000  Uiso   1.00
C190   C     0.17296   0.38927   0.93042   0.00000  Uiso   1.00
C191   C     0.13419   0.39846   0.97420   0.00000  Uiso   1.00
C192   C     0.10724   0.34715   0.99674   0.00000  Uiso   1.00
C193   C     0.05236   0.27899   0.04765   0.00000  Uiso   1.00
C194   C     0.27436   0.42153   0.90241   0.00000  Uiso   1.00
C195   C     0.32085   0.45784   0.92265   0.00000  Uiso   1.00
C196   C     0.37927   0.43368   0.92162   0.00000  Uiso   1.00
C197   C     0.48183   0.41561   0.92904   0.00000  Uiso   1.00
C198   C     0.22826   0.33143   0.86185   0.00000  Uiso   1.00
C199   C     0.20013   0.37384   0.81970   0.00000  Uiso   1.00
C200   C     0.18646   0.35860   0.76635   0.00000  Uiso   1.00
C201   C     0.16090   0.40385   0.73422   0.00000  Uiso   1.00
C202   C     0.18440   0.33091   0.90989   0.00000  Uiso   1.00
C203   C     0.15750   0.27957   0.93238   0.00000  Uiso   1.00
C204   C     0.11871   0.28867   0.97618   0.00000  Uiso   1.00
C205   C     0.28580   0.36317   0.88188   0.00000  Uiso   1.00
C206   C     0.34416   0.33895   0.88083   0.00000  Uiso   1.00
C207   C     0.39074   0.37520   0.90106   0.00000  Uiso   1.00
H208   H     0.19828   0.48433   0.91564   0.00000  Uiso   1.00
H209   H     0.15429   0.52266   0.82407   0.00000  Uiso   1.00
H210   H     0.12535   0.44363   0.99008   0.00000  Uiso   1.00
H211   H     0.31198   0.50300   0.93853   0.00000  Uiso   1.00
H212   H     0.11055   0.53940   0.71351   0.00000  Uiso   1.00
H213   H     0.04954   0.37278   0.06355   0.00000  Uiso   1.00
H214   H     0.44309   0.49797   0.95486   0.00000  Uiso   1.00
H215   H     0.23717   0.28598   0.84587   0.00000  Uiso   1.00
H216   H     0.19532   0.31343   0.75048   0.00000  Uiso   1.00
H217   H     0.16637   0.23441   0.91648   0.00000  Uiso   1.00
H218   H     0.35300   0.29378   0.86494   0.00000  Uiso   1.00
H219   H     0.14384   0.36959   0.65378   0.00000  Uiso   1.00
H220   H     0.08284   0.20296   0.00382   0.00000  Uiso   1.00
H221   H     0.47638   0.32815   0.89513   0.00000  Uiso   1.00
O222   O     0.09894   0.47612   0.62215   0.00000  Uiso   1.00
O223   O     0.01891   0.25752   0.08140   0.00000  Uiso   1.00
O224   O     0.53523   0.42177   0.93880   0.00000  Uiso   1.00
N225   N     0.12414   0.49567   0.71254   0.00000  Uiso   1.00
N226   N     0.06709   0.33989   0.03980   0.00000  Uiso   1.00
N227   N     0.43502   0.45693   0.93820   0.00000  Uiso   1.00
N228   N     0.14206   0.40430   0.68040   0.00000  Uiso   1.00
N229   N     0.08501   0.24852   0.00766   0.00000  Uiso   1.00
N230   N     0.45294   0.36555   0.90606   0.00000  Uiso   1.00
C231   C     0.79281   0.56111   0.89965   0.00000  Uiso   1.00
C232   C     0.81131   0.56779   0.84023   0.00000  Uiso   1.00
C233   C     0.83685   0.52251   0.80817   0.00000  Uiso   1.00
C234   C     0.85057   0.53767   0.75479   0.00000  Uiso   1.00
C235   C     0.88106   0.53917   0.66565   0.00000  Uiso   1.00
C236   C     0.82704   0.61073   0.93042   0.00000  Uiso   1.00
C237   C     0.86581   0.60154   0.97420   0.00000  Uiso   1.00
C238   C     0.89276   0.65285   0.99674   0.00000  Uiso   1.00
C239   C     0.94764   0.72101   0.04765   0.00000  Uiso   1.00
C240   C     0.72564   0.57847   0.90241   0.00000  Uiso   1.00
C241   C     0.67915   0.54216   0.92265   0.00000  Uiso   1.00
C242   C     0.62073   0.56632   0.92162   0.00000  Uiso   1.00
C243   C     0.51817   0.58439   0.92904   0.00000  Uiso   1.00
C244   C     0.77174   0.66857   0.86185   0.00000  Uiso   1.00
C245   C     0.79987   0.62616   0.81970   0.00000  Uiso   1.00
C246   C     0.81354   0.64140   0.76635   0.00000  Uiso   1.00
C247   C     0.83910   0.59615   0.73422   0.00000  Uiso   1.00
C248   C     0.81560   0.66909   0.90989   0.00000  Uiso   1.00
C249   C     0.84250   0.72043   0.93238   0.00000  Uiso   1.00
C250   C     0.88129   0.71133   0.97618   0.00000  Uiso   1.00
C251   C     0.71420   0.63683   0.88188   0.00000  Uiso   1.00
C252   C     0.65584   0.66105   0.88083   0.00000  Uiso   1.00
C253   C     0.60926   0.62480   0.90106   0.00000  Uiso   1.00
H254   H     0.80172   0.51567   0.91564   0.00000  Uiso   1.00
H255   H     0.84571   0.47734   0.82407   0.00000  Uiso   1.00
H256   H     0.87465   0.55637   0.99008   0.00000  Uiso   1.00
H257   H     0.68802   0.49700   0.93853   0.00000  Uiso   1.00
H258   H     0.88945   0.46060   0.71351   0.00000  Uiso   1.00
H259   H     0.95046   0.62722   0.06355   0.00000  Uiso   1.00
H260   H     0.55691   0.50203   0.95486   0.00000  Uiso   1.00
H261   H     0.76283   0.71402   0.84587   0.00000  Uiso   1.00
H262   H     0.80468   0.68657   0.75048   0.00000  Uiso   1.00
H263   H     0.83363   0.76559   0.91648   0.00000  Uiso   1.00
H264   H     0.64700   0.70622   0.86494   0.00000  Uiso   1.00
H265   H     0.85616   0.63041   0.65378   0.00000  Uiso   1.00
H266   H     0.91716   0.79704   0.00382   0.00000  Uiso   1.00
H267   H     0.52362   0.67185   0.89513   0.00000  Uiso   1.00
O268   O     0.90106   0.52388   0.62215   0.00000  Uiso   1.00
O269   O     0.98109   0.74248   0.08140   0.00000  Uiso   1.00
O270   O     0.46477   0.57823   0.93880   0.00000  Uiso   1.00
N271   N     0.87586   0.50433   0.71254   0.00000  Uiso   1.00
N272   N     0.93291   0.66011   0.03980   0.00000  Uiso   1.00
N273   N     0.56498   0.54307   0.93820   0.00000  Uiso   1.00
N274   N     0.85794   0.59570   0.68040   0.00000  Uiso   1.00
N275   N     0.91499   0.75148   0.00766   0.00000  Uiso   1.00
N276   N     0.54706   0.63445   0.90606   0.00000  Uiso   1.00
C277   C     0.93889   0.29281   0.89965   0.00000  Uiso   1.00
C278   C     0.93221   0.31131   0.84023   0.00000  Uiso   1.00
C279   C     0.97749   0.33685   0.80817   0.00000  Uiso   1.00
C280   C     0.96233   0.35057   0.75479   0.00000  Uiso   1.00
C281   C     0.96083   0.38106   0.66565   0.00000  Uiso   1.00
C282   C     0.88927   0.32704   0.93042   0.00000  Uiso   1.00
C283   C     0.89846   0.36581   0.97420   0.00000  Uiso   1.00
C284   C     0.84715   0.39276   0.99674   0.00000  Uiso   1.00
C285   C     0.77899   0.44764   0.04765   0.00000  Uiso   1.00
C286   C     0.92153   0.22564   0.90241   0.00000  Uiso   1.00
C287   C     0.95784   0.17915   0.92265   0.00000  Uiso   1.00
C288   C     0.93368   0.12073   0.92162   0.00000  Uiso   1.00
C289   C     0.91561   0.01817   0.92904   0.00000  Uiso   1.00
C290   C     0.83143   0.27174   0.86185   0.00000  Uiso   1.00
C291   C     0.87384   0.29987   0.81970   0.00000  Uiso   1.00
C292   C     0.85860   0.31354   0.76635   0.00000  Uiso   1.00
C293   C     0.90385   0.33910   0.73422   0.00000  Uiso   1.00
C294   C     0.83091   0.31560   0.90989   0.00000  Uiso   1.00
C295   C     0.77957   0.34250   0.93238   0.00000  Uiso   1.00
C296   C     0.78867   0.38129   0.97618   0.00000  Uiso   1.00
C297   C     0.86317   0.21420   0.88188   0.00000  Uiso   1.00
C298   C     0.83895   0.15584   0.88083   0.00000  Uiso   1.00
C299   C     0.87520   0.10926   0.90106   0.00000  Uiso   1.00
H300   H     0.98433   0.30172   0.91564   0.00000  Uiso   1.00
H301   H     0.02266   0.34571   0.82407   0.00000  Uiso   1.00
H302   H     0.94363   0.37465   0.99008   0.00000  Uiso   1.00
H303   H     0.00300   0.18802   0.93853   0.00000  Uiso   1.00
H304   H     0.03940   0.38945   0.71351   0.00000  Uiso   1.00
H305   H     0.87278   0.45046   0.06355   0.00000  Uiso   1.00
H306   H     0.99797   0.05691   0.95486   0.00000  Uiso   1.00
H307   H     0.78598   0.26283   0.84587   0.00000  Uiso   1.00
H308   H     0.81343   0.30468   0.75048   0.00000  Uiso   1.00
H309   H     0.73441   0.33363   0.91648   0.00000  Uiso   1.00
H310   H     0.79378   0.14700   0.86494   0.00000  Uiso   1.00
H311   H     0.86959   0.35616   0.65378   0.00000  Uiso   1.00
H312   H     0.70296   0.41716   0.00382   0.00000  Uiso   1.00
H313   H     0.82815   0.02362   0.89513   0.00000  Uiso   1.00
O314   O     0.97612   0.40106   0.62215   0.00000  Uiso   1.00
O315   O     0.75752   0.48109   0.08140   0.00000  Uiso   1.00
O316   O     0.92177   0.96477   0.93880   0.00000  Uiso   1.00
N317   N     0.99567   0.37586   0.71254   0.00000  Uiso   1.00
N318   N     0.83989   0.43291   0.03980   0.00000  Uiso   1.00
N319   N     0.95693   0.06498   0.93820   0.00000  Uiso   1.00
N320   N     0.90430   0.35794   0.68040   0.00000  Uiso   1.00
N321   N     0.74852   0.41499   0.00766   0.00000  Uiso   1.00
N322   N     0.86555   0.04706   0.90606   0.00000  Uiso   1.00
C323   C     0.06111   0.70719   0.89965   0.00000  Uiso   1.00
C324   C     0.06779   0.68869   0.84023   0.00000  Uiso   1.00
C325   C     0.02251   0.66315   0.80817   0.00000  Uiso   1.00
C326   C     0.03767   0.64943   0.75479   0.00000  Uiso   1.00
C327   C     0.03917   0.61894   0.66565   0.00000  Uiso   1.00
C328   C     0.11073   0.67296   0.93042   0.00000  Uiso   1.00
C329   C     0.10154   0.63419   0.97420   0.00000  Uiso   1.00
C330   C     0.15285   0.60724   0.99674   0.00000  Uiso   1.00
C331   C     0.22101   0.55236   0.04765   0.00000  Uiso   1.00
C332   C     0.07847   0.77436   0.90241   0.00000  Uiso   1.00
C333   C     0.04216   0.82085   0.92265   0.00000  Uiso   1.00
C334   C     0.06632   0.87927   0.92162   0.00000  Uiso   1.00
C335   C     0.08439   0.98183   0.92904   0.00000  Uiso   1.00
C336   C     0.16857   0.72826   0.86185   0.00000  Uiso   1.00
C337   C     0.12616   0.70013   0.81970   0.00000  Uiso   1.00
C338   C     0.14140   0.68646   0.76635   0.00000  Uiso   1.00
C339   C     0.09615   0.66090   0.73422   0.00000  Uiso   1.00
C340   C     0.16909   0.68440   0.90989   0.00000  Uiso   1.00
C341   C     0.22043   0.65750   0.93238   0.00000  Uiso   1.00
C342   C     0.21133   0.61871   0.97618   0.00000  Uiso   1.00
C343   C     0.13683   0.78580   0.88188   0.00000  Uiso   1.00
C344   C     0.16105   0.84416   0.88083   0.00000  Uiso   1.00
C345   C     0.12480   0.89074   0.90106   0.00000  Uiso   1.00
H346   H     0.01567   0.69828   0.91564   0.00000  Uiso   1.00
H347   H     0.97734   0.65429   0.82407   0.00000  Uiso   1.00
H348   H     0.05637   0.62535   0.99008   0.00000  Uiso   1.00
H349   H     0.99700   0.81198   0.93853   0.00000  Uiso   1.00
H350   H     0.96060   0.61055   0.71351   0.00000  Uiso   1.00
H351   H     0.12722   0.54954   0.06355   0.00000  Uiso   1.00
H352   H     0.00203   0.94309   0.95486   0.00000  Uiso   1.00
H353   H     0.21402   0.73717   0.84587   0.00000  Uiso   1.00
H354   H     0.18657   0.69532   0.75048   0.00000  Uiso   1.00
H355   H     0.26559   0.66637   0.91648   0.00000  Uiso   1.00
H356   H     0.20622   0.85300   0.86494   0.00000  Uiso   1.00
H357   H     0.13041   0.64384   0.65378   0.00000  Uiso   1.00
H358   H     0.29704   0.58284   0.00382   0.00000  Uiso   1.00
H359   H     0.17185   0.97638   0.89513   0.00000  Uiso   1.00
O360   O     0.02388   0.59894   0.62215   0.00000  Uiso   1.00
O361   O     0.24248   0.51891   0.08140   0.00000  Uiso   1.00
O362   O     0.07823   0.03523   0.93880   0.00000  Uiso   1.00
N363   N     0.00433   0.62414   0.71254   0.00000  Uiso   1.00
N364   N     0.16011   0.56709   0.03980   0.00000  Uiso   1.00
N365   N     0.04307   0.93502   0.93820   0.00000  Uiso   1.00
N366   N     0.09570   0.64206   0.68040   0.00000  Uiso   1.00
N367   N     0.25148   0.58501   0.00766   0.00000  Uiso   1.00
N368   N     0.13445   0.95294   0.90606   0.00000  Uiso   1.00
C369   C     0.20719   0.56111   0.39965   0.00000  Uiso   1.00
C370   C     0.18869   0.56779   0.34023   0.00000  Uiso   1.00
C371   C     0.16315   0.52251   0.30817   0.00000  Uiso   1.00
C372   C     0.14943   0.53767   0.25479   0.00000  Uiso   1.00
C373   C     0.11894   0.53917   0.16565   0.00000  Uiso   1.00
C374   C     0.17296   0.61073   0.43042   0.00000  Uiso   1.00
C375   C     0.13419   0.60154   0.47420   0.00000  Uiso   1.00
C376   C     0.10724   0.65285   0.49674   0.00000  Uiso   1.00
C377   C     0.05236   0.72101   0.54765   0.00000  Uiso   1.00
C378   C     0.27436   0.57847   0.40241   0.00000  Uiso   1.00
C379   C     0.32085   0.54216   0.42265   0.00000  Uiso   1.00
C380   C     0.37927   0.56632   0.42162   0.00000  Uiso   1.00
C381   C     0.48183   0.58439   0.42904   0.00000  Uiso   1.00
C382   C     0.22826   0.66857   0.36185   0.00000  Uiso   1.00
C383   C     0.20013   0.62616   0.31970   0.00000  Uiso   1.00
C384   C     0.18646   0.64140   0.26635   0.00000  Uiso   1.00
C385   C     0.16090   0.59615   0.23422   0.00000  Uiso   1.00
C386   C     0.18440   0.66909   0.40989   0.00000  Uiso   1.00
C387   C     0.15750   0.72043   0.43238   0.00000  Uiso   1.00
C388   C     0.11871   0.71133   0.47618   0.00000  Uiso   1.00
C389   C     0.28580   0.63683   0.38188   0.00000  Uiso   1.00
C390   C     0.34416   0.66105   0.38083   0.00000  Uiso   1.00
C391   C     0.39074   0.62480   0.40106   0.00000  Uiso   1.00
H392   H     0.19828   0.51567   0.41564   0.00000  Uiso   1.00
H393   H     0.15429   0.47734   0.32407   0.00000  Uiso   1.00
H394   H     0.12535   0.55637   0.49008   0.00000  Uiso   1.00
H395   H     0.31198   0.49700   0.43853   0.00000  Uiso   1.00
H396   H     0.11055   0.46060   0.21351   0.00000  Uiso   1.00
H397   H     0.04954   0.62722   0.56355   0.00000  Uiso   1.00
H398   H     0.44309   0.50203   0.45486   0.00000  Uiso   1.00
H399   H     0.23717   0.71402   0.34587   0.00000  Uiso   1.00
H400   H     0.19532   0.68657   0.25048   0.00000  Uiso   1.00
H401   H     0.16637   0.76559   0.41648   0.00000  Uiso   1.00
H402   H     0.35300   0.70622   0.36494   0.00000  Uiso   1.00
H403   H     0.14384   0.63041   0.15378   0.00000  Uiso   1.00
H404   H     0.08284   0.79704   0.50382   0.00000  Uiso   1.00
H405   H     0.47638   0.67185   0.39513   0.00000  Uiso   1.00
O406   O     0.09894   0.52388   0.12215   0.00000  Uiso   1.00
O407   O     0.01891   0.74248   0.58140   0.00000  Uiso   1.00
O408   O     0.53523   0.57823   0.43880   0.00000  Uiso   1.00
N409   N     0.12414   0.50433   0.21254   0.00000  Uiso   1.00
N410   N     0.06709   0.66011   0.53980   0.00000  Uiso   1.00
N411   N     0.43502   0.54307   0.43820   0.00000  Uiso   1.00
N412   N     0.14206   0.59570   0.18040   0.00000  Uiso   1.00
N413   N     0.08501   0.75148   0.50766   0.00000  Uiso   1.00
N414   N     0.45294   0.63445   0.40606   0.00000  Uiso   1.00
C415   C     0.79281   0.43889   0.39965   0.00000  Uiso   1.00
C416   C     0.81131   0.43221   0.34023   0.00000  Uiso   1.00
C417   C     0.83685   0.47749   0.30817   0.00000  Uiso   1.00
C418   C     0.85057   0.46233   0.25479   0.00000  Uiso   1.00
C419   C     0.88106   0.46083   0.16565   0.00000  Uiso   1.00
C420   C     0.82704   0.38927   0.43042   0.00000  Uiso   1.00
C421   C     0.86581   0.39846   0.47420   0.00000  Uiso   1.00
C422   C     0.89276   0.34715   0.49674   0.00000  Uiso   1.00
C423   C     0.94764   0.27899   0.54765   0.00000  Uiso   1.00
C424   C     0.72564   0.42153   0.40241   0.00000  Uiso   1.00
C425   C     0.67915   0.45784   0.42265   0.00000  Uiso   1.00
C426   C     0.62073   0.43368   0.42162   0.00000  Uiso   1.00
C427   C     0.51817   0.41561   0.42904   0.00000  Uiso   1.00
C428   C     0.77174   0.33143   0.36185   0.00000  Uiso   1.00
C429   C     0.79987   0.37384   0.31970   0.00000  Uiso   1.00
C430   C     0.81354   0.35860   0.26635   0.00000  Uiso   1.00
C431   C     0.83910   0.40385   0.23422   0.00000  Uiso   1.00
C432   C     0.81560   0.33091   0.40989   0.00000  Uiso   1.00
C433   C     0.84250   0.27957   0.43238   0.00000  Uiso   1.00
C434   C     0.88129   0.28867   0.47618   0.00000  Uiso   1.00
C435   C     0.71420   0.36317   0.38188   0.00000  Uiso   1.00
C436   C     0.65584   0.33895   0.38083   0.00000  Uiso   1.00
C437   C     0.60926   0.37520   0.40106   0.00000  Uiso   1.00
H438   H     0.80172   0.48433   0.41564   0.00000  Uiso   1.00
H439   H     0.84571   0.52266   0.32407   0.00000  Uiso   1.00
H440   H     0.87465   0.44363   0.49008   0.00000  Uiso   1.00
H441   H     0.68802   0.50300   0.43853   0.00000  Uiso   1.00
H442   H     0.88945   0.53940   0.21351   0.00000  Uiso   1.00
H443   H     0.95046   0.37278   0.56355   0.00000  Uiso   1.00
H444   H     0.55691   0.49797   0.45486   0.00000  Uiso   1.00
H445   H     0.76283   0.28598   0.34587   0.00000  Uiso   1.00
H446   H     0.80468   0.31343   0.25048   0.00000  Uiso   1.00
H447   H     0.83363   0.23441   0.41648   0.00000  Uiso   1.00
H448   H     0.64700   0.29378   0.36494   0.00000  Uiso   1.00
H449   H     0.85616   0.36959   0.15378   0.00000  Uiso   1.00
H450   H     0.91716   0.20296   0.50382   0.00000  Uiso   1.00
H451   H     0.52362   0.32815   0.39513   0.00000  Uiso   1.00
O452   O     0.90106   0.47612   0.12215   0.00000  Uiso   1.00
O453   O     0.98109   0.25752   0.58140   0.00000  Uiso   1.00
O454   O     0.46477   0.42177   0.43880   0.00000  Uiso   1.00
N455   N     0.87586   0.49567   0.21254   0.00000  Uiso   1.00
N456   N     0.93291   0.33989   0.53980   0.00000  Uiso   1.00
N457   N     0.56498   0.45693   0.43820   0.00000  Uiso   1.00
N458   N     0.85794   0.40430   0.18040   0.00000  Uiso   1.00
N459   N     0.91499   0.24852   0.50766   0.00000  Uiso   1.00
N460   N     0.54706   0.36555   0.40606   0.00000  Uiso   1.00
C461   C     0.93889   0.70719   0.39965   0.00000  Uiso   1.00
C462   C     0.93221   0.68869   0.34023   0.00000  Uiso   1.00
C463   C     0.97749   0.66315   0.30817   0.00000  Uiso   1.00
C464   C     0.96233   0.64943   0.25479   0.00000  Uiso   1.00
C465   C     0.96083   0.61894   0.16565   0.00000  Uiso   1.00
C466   C     0.88927   0.67296   0.43042   0.00000  Uiso   1.00
C467   C     0.89846   0.63419   0.47420   0.00000  Uiso   1.00
C468   C     0.84715   0.60724   0.49674   0.00000  Uiso   1.00
C469   C     0.77899   0.55236   0.54765   0.00000  Uiso   1.00
C470   C     0.92153   0.77436   0.40241   0.00000  Uiso   1.00
C471   C     0.95784   0.82085   0.42265   0.00000  Uiso   1.00
C472   C     0.93368   0.87927   0.42162   0.00000  Uiso   1.00
C473   C     0.91561   0.98183   0.42904   0.00000  Uiso   1.00
C474   C     0.83143   0.72826   0.36185   0.00000  Uiso   1.00
C475   C     0.87384   0.70013   0.31970   0.00000  Uiso   1.00
C476   C     0.85860   0.68646   0.26635   0.00000  Uiso   1.00
C477   C     0.90385   0.66090   0.23422   0.00000  Uiso   1.00
C478   C     0.83091   0.68440   0.40989   0.00000  Uiso   1.00
C479   C     0.77957   0.65750   0.43238   0.00000  Uiso   1.00
C480   C     0.78867   0.61871   0.47618   0.00000  Uiso   1.00
C481   C     0.86317   0.78580   0.38188   0.00000  Uiso   1.00
C482   C     0.83895   0.84416   0.38083   0.00000  Uiso   1.00
C483   C     0.87520   0.89074   0.40106   0.00000  Uiso   1.00
H484   H     0.98433   0.69828   0.41564   0.00000  Uiso   1.00
H485   H     0.02266   0.65429   0.32407   0.00000  Uiso   1.00
H486   H     0.94363   0.62535   0.49008   0.00000  Uiso   1.00
H487   H     0.00300   0.81198   0.43853   0.00000  Uiso   1.00
H488   H     0.03940   0.61055   0.21351   0.00000  Uiso   1.00
H489   H     0.87278   0.54954   0.56355   0.00000  Uiso   1.00
H490   H     0.99797   0.94309   0.45486   0.00000  Uiso   1.00
H491   H     0.78598   0.73717   0.34587   0.00000  Uiso   1.00
H492   H     0.81343   0.69532   0.25048   0.00000  Uiso   1.00
H493   H     0.73441   0.66637   0.41648   0.00000  Uiso   1.00
H494   H     0.79378   0.85300   0.36494   0.00000  Uiso   1.00
H495   H     0.86959   0.64384   0.15378   0.00000  Uiso   1.00
H496   H     0.70296   0.58284   0.50382   0.00000  Uiso   1.00
H497   H     0.82815   0.97638   0.39513   0.00000  Uiso   1.00
O498   O     0.97612   0.59894   0.12215   0.00000  Uiso   1.00
O499   O     0.75752   0.51891   0.58140   0.00000  Uiso   1.00
O500   O     0.92177   0.03523   0.43880   0.00000  Uiso   1.00
N501   N     0.99567   0.62414   0.21254   0.00000  Uiso   1.00
N502   N     0.83989   0.56709   0.53980   0.00000  Uiso   1.00
N503   N     0.95693   0.93502   0.43820   0.00000  Uiso   1.00
N504   N     0.90430   0.64206   0.18040   0.00000  Uiso   1.00
N505   N     0.74852   0.58501   0.50766   0.00000  Uiso   1.00
N506   N     0.86555   0.95294   0.40606   0.00000  Uiso   1.00
C507   C     0.06111   0.29281   0.39965   0.00000  Uiso   1.00
C508   C     0.06779   0.31131   0.34023   0.00000  Uiso   1.00
C509   C     0.02251   0.33685   0.30817   0.00000  Uiso   1.00
C510   C     0.03767   0.35057   0.25479   0.00000  Uiso   1.00
C511   C     0.03917   0.38106   0.16565   0.00000  Uiso   1.00
C512   C     0.11073   0.32704   0.43042   0.00000  Uiso   1.00
C513   C     0.10154   0.36581   0.47420   0.00000  Uiso   1.00
C514   C     0.15285   0.39276   0.49674   0.00000  Uiso   1.00
C515   C     0.22101   0.44764   0.54765   0.00000  Uiso   1.00
C516   C     0.07847   0.22564   0.40241   0.00000  Uiso   1.00
C517   C     0.04216   0.17915   0.42265   0.00000  Uiso   1.00
C518   C     0.06632   0.12073   0.42162   0.00000  Uiso   1.00
C519   C     0.08439   0.01817   0.42904   0.00000  Uiso   1.00
C520   C     0.16857   0.27174   0.36185   0.00000  Uiso   1.00
C521   C     0.12616   0.29987   0.31970   0.00000  Uiso   1.00
C522   C     0.14140   0.31354   0.26635   0.00000  Uiso   1.00
C523   C     0.09615   0.33910   0.23422   0.00000  Uiso   1.00
C524   C     0.16909   0.31560   0.40989   0.00000  Uiso   1.00
C525   C     0.22043   0.34250   0.43238   0.00000  Uiso   1.00
C526   C     0.21133   0.38129   0.47618   0.00000  Uiso   1.00
C527   C     0.13683   0.21420   0.38188   0.00000  Uiso   1.00
C528   C     0.16105   0.15584   0.38083   0.00000  Uiso   1.00
C529   C     0.12480   0.10926   0.40106   0.00000  Uiso   1.00
H530   H     0.01567   0.30172   0.41564   0.00000  Uiso   1.00
H531   H     0.97734   0.34571   0.32407   0.00000  Uiso   1.00
H532   H     0.05637   0.37465   0.49008   0.00000  Uiso   1.00
H533   H     0.99700   0.18802   0.43853   0.00000  Uiso   1.00
H534   H     0.96060   0.38945   0.21351   0.00000  Uiso   1.00
H535   H     0.12722   0.45046   0.56355   0.00000  Uiso   1.00
H536   H     0.00203   0.05691   0.45486   0.00000  Uiso   1.00
H537   H     0.21402   0.26283   0.34587   0.00000  Uiso   1.00
H538   H     0.18657   0.30468   0.25048   0.00000  Uiso   1.00
H539   H     0.26559   0.33363   0.41648   0.00000  Uiso   1.00
H540   H     0.20622   0.14700   0.36494   0.00000  Uiso   1.00
H541   H     0.13041   0.35616   0.15378   0.00000  Uiso   1.00
H542   H     0.29704   0.41716   0.50382   0.00000  Uiso   1.00
H543   H     0.17185   0.02362   0.39513   0.00000  Uiso   1.00
O544   O     0.02388   0.40106   0.12215   0.00000  Uiso   1.00
O545   O     0.24248   0.48109   0.58140   0.00000  Uiso   1.00
O546   O     0.07823   0.96477   0.43880   0.00000  Uiso   1.00
N547   N     0.00433   0.37586   0.21254   0.00000  Uiso   1.00
N548   N     0.16011   0.43291   0.53980   0.00000  Uiso   1.00
N549   N     0.04307   0.06498   0.43820   0.00000  Uiso   1.00
N550   N     0.09570   0.35794   0.18040   0.00000  Uiso   1.00
N551   N     0.25148   0.41499   0.50766   0.00000  Uiso   1.00
N552   N     0.13445   0.04706   0.40606   0.00000  Uiso   1.00
C553   C     0.29281   0.06111   0.10035   0.00000  Uiso   1.00
C554   C     0.31131   0.06779   0.15977   0.00000  Uiso   1.00
C555   C     0.33685   0.02251   0.19183   0.00000  Uiso   1.00
C556   C     0.35057   0.03767   0.24521   0.00000  Uiso   1.00
C557   C     0.38106   0.03917   0.33435   0.00000  Uiso   1.00
C558   C     0.32704   0.11073   0.06958   0.00000  Uiso   1.00
C559   C     0.36581   0.10154   0.02580   0.00000  Uiso   1.00
C560   C     0.39276   0.15285   0.00326   0.00000  Uiso   1.00
C561   C     0.44764   0.22101   0.95235   0.00000  Uiso   1.00
C562   C     0.22564   0.07847   0.09759   0.00000  Uiso   1.00
C563   C     0.17915   0.04216   0.07735   0.00000  Uiso   1.00
C564   C     0.12073   0.06632   0.07838   0.00000  Uiso   1.00
C565   C     0.01817   0.08439   0.07096   0.00000  Uiso   1.00
C566   C     0.27174   0.16857   0.13815   0.00000  Uiso   1.00
C567   C     0.29987   0.12616   0.18030   0.00000  Uiso   1.00
C568   C     0.31354   0.14140   0.23365   0.00000  Uiso   1.00
C569   C     0.33910   0.09615   0.26578   0.00000  Uiso   1.00
C570   C     0.31560   0.16909   0.09011   0.00000  Uiso   1.00
C571   C     0.34250   0.22043   0.06762   0.00000  Uiso   1.00
C572   C     0.38129   0.21133   0.02382   0.00000  Uiso   1.00
C573   C     0.21420   0.13683   0.11812   0.00000  Uiso   1.00
C574   C     0.15584   0.16105   0.11917   0.00000  Uiso   1.00
C575   C     0.10926   0.12480   0.09894   0.00000  Uiso   1.00
H576   H     0.30172   0.01567   0.08436   0.00000  Uiso   1.00
H577   H     0.34571   0.97734   0.17593   0.00000  Uiso   1.00
H578   H     0.37465   0.05637   0.00992   0.00000  Uiso   1.00
H579   H     0.18802   0.99700   0.06147   0.00000  Uiso   1.00
H580   H     0.38945   0.96060   0.28649   0.00000  Uiso   1.00
H581   H     0.45046   0.12722   0.93645   0.00000  Uiso   1.00
H582   H     0.05691   0.00203   0.04514   0.00000  Uiso   1.00
H583   H     0.26283   0.21402   0.15413   0.00000  Uiso   1.00
H584   H     0.30468   0.18657   0.24952   0.00000  Uiso   1.00
H585   H     0.33363   0.26559   0.08352   0.00000  Uiso   1.00
H586   H     0.14700   0.20622   0.13506   0.00000  Uiso   1.00
H587   H     0.35616   0.13041   0.34622   0.00000  Uiso   1.00
H588   H     0.41716   0.29704   0.99618   0.00000  Uiso   1.00
H589   H     0.02362   0.17185   0.10487   0.00000  Uiso   1.00
O590   O     0.40106   0.02388   0.37785   0.00000  Uiso   1.00
O591   O     0.48109   0.24248   0.91860   0.00000  Uiso   1.00
O592   O     0.96477   0.07823   0.06120   0.00000  Uiso   1.00
N593   N     0.37586   0.00433   0.28746   0.00000  Uiso   1.00
N594   N     0.43291   0.16011   0.96020   0.00000  Uiso   1.00
N595   N     0.06498   0.04307   0.06180   0.00000  Uiso   1.00
N596   N     0.35794   0.09570   0.31960   0.00000  Uiso   1.00
N597   N     0.41499   0.25148   0.99234   0.00000  Uiso   1.00
N598   N     0.04706   0.13445   0.09394   0.00000  Uiso   1.00
C599   C     0.70719   0.93889   0.10035   0.00000  Uiso   1.00
C600   C     0.68869   0.93221   0.15977   0.00000  Uiso   1.00
C601   C     0.66315   0.97749   0.19183   0.00000  Uiso   1.00
C602   C     0.64943   0.96233   0.24521   0.00000  Uiso   1.00
C603   C     0.61894   0.96083   0.33435   0.00000  Uiso   1.00
C604   C     0.67296   0.88927   0.06958   0.00000  Uiso   1.00
C605   C     0.63419   0.89846   0.02580   0.00000  Uiso   1.00
C606   C     0.60724   0.84715   0.00326   0.00000  Uiso   1.00
C607   C     0.55236   0.77899   0.95235   0.00000  Uiso   1.00
C608   C     0.77436   0.92153   0.09759   0.00000  Uiso   1.00
C609   C     0.82085   0.95784   0.07735   0.00000  Uiso   1.00
C610   C     0.87927   0.93368   0.07838   0.00000  Uiso   1.00
C611   C     0.98183   0.91561   0.07096   0.00000  Uiso   1.00
C612   C     0.72826   0.83143   0.13815   0.00000  Uiso   1.00
C613   C     0.70013   0.87384   0.18030   0.00000  Uiso   1.00
C614   C     0.68646   0.85860   0.23365   0.00000  Uiso   1.00
C615   C     0.66090   0.90385   0.26578   0.00000  Uiso   1.00
C616   C     0.68440   0.83091   0.09011   0.00000  Uiso   1.00
C617   C     0.65750   0.77957   0.06762   0.00000  Uiso   1.00
C618   C     0.61871   0.78867   0.02382   0.00000  Uiso   1.00
C619   C     0.78580   0.86317   0.11812   0.00000  Uiso   1.00
C620   C     0.84416   0.83895   0.11917   0.00000  Uiso   1.00
C621   C     0.89074   0.87520   0.09894   0.00000  Uiso   1.00
H622   H     0.69828   0.98433   0.08436   0.00000  Uiso   1.00
H623   H     0.65429   0.02266   0.17593   0.00000  Uiso   1.00
H624   H     0.62535   0.94363   0.00992   0.00000  Uiso   1.00
H625   H     0.81198   0.00300   0.06147   0.00000  Uiso   1.00
H626   H     0.61055   0.03940   0.28649   0.00000  Uiso   1.00
H627   H     0.54954   0.87278   0.93645   0.00000  Uiso   1.00
H628   H     0.94309   0.99797   0.04514   0.00000  Uiso   1.00
H629   H     0.73717   0.78598   0.15413   0.00000  Uiso   1.00
H630   H     0.69532   0.81343   0.24952   0.00000  Uiso   1.00
H631   H     0.66637   0.73441   0.08352   0.00000  Uiso   1.00
H632   H     0.85300   0.79378   0.13506   0.00000  Uiso   1.00
H633   H     0.64384   0.86959   0.34622   0.00000  Uiso   1.00
H634   H     0.58284   0.70296   0.99618   0.00000  Uiso   1.00
H635   H     0.97638   0.82815   0.10487   0.00000  Uiso   1.00
O636   O     0.59894   0.97612   0.37785   0.00000  Uiso   1.00
O637   O     0.51891   0.75752   0.91860   0.00000  Uiso   1.00
O638   O     0.03523   0.92177   0.06120   0.00000  Uiso   1.00
N639   N     0.62414   0.99567   0.28746   0.00000  Uiso   1.00
N640   N     0.56709   0.83989   0.96020   0.00000  Uiso   1.00
N641   N     0.93502   0.95693   0.06180   0.00000  Uiso   1.00
N642   N     0.64206   0.90430   0.31960   0.00000  Uiso   1.00
N643   N     0.58501   0.74852   0.99234   0.00000  Uiso   1.00
N644   N     0.95294   0.86555   0.09394   0.00000  Uiso   1.00
C645   C     0.56111   0.20719   0.10035   0.00000  Uiso   1.00
C646   C     0.56779   0.18869   0.15977   0.00000  Uiso   1.00
C647   C     0.52251   0.16315   0.19183   0.00000  Uiso   1.00
C648   C     0.53767   0.14943   0.24521   0.00000  Uiso   1.00
C649   C     0.53917   0.11894   0.33435   0.00000  Uiso   1.00
C650   C     0.61073   0.17296   0.06958   0.00000  Uiso   1.00
C651   C     0.60154   0.13419   0.02580   0.00000  Uiso   1.00
C652   C     0.65285   0.10724   0.00326   0.00000  Uiso   1.00
C653   C     0.72101   0.05236   0.95235   0.00000  Uiso   1.00
C654   C     0.57847   0.27436   0.09759   0.00000  Uiso   1.00
C655   C     0.54216   0.32085   0.07735   0.00000  Uiso   1.00
C656   C     0.56632   0.37927   0.07838   0.00000  Uiso   1.00
C657   C     0.58439   0.48183   0.07096   0.00000  Uiso   1.00
C658   C     0.66857   0.22826   0.13815   0.00000  Uiso   1.00
C659   C     0.62616   0.20013   0.18030   0.00000  Uiso   1.00
C660   C     0.64140   0.18646   0.23365   0.00000  Uiso   1.00
C661   C     0.59615   0.16090   0.26578   0.00000  Uiso   1.00
C662   C     0.66909   0.18440   0.09011   0.00000  Uiso   1.00
C663   C     0.72043   0.15750   0.06762   0.00000  Uiso   1.00
C664   C     0.71133   0.11871   0.02382   0.00000  Uiso   1.00
C665   C     0.63683   0.28580   0.11812   0.00000  Uiso   1.00
C666   C     0.66105   0.34416   0.11917   0.00000  Uiso   1.00
C667   C     0.62480   0.39074   0.09894   0.00000  Uiso   1.00
H668   H     0.51567   0.19828   0.08436   0.00000  Uiso   1.00
H669   H     0.47734   0.15429   0.17593   0.00000  Uiso   1.00
H670   H     0.55637   0.12535   0.00992   0.00000  Uiso   1.00
H671   H     0.49700   0.31198   0.06147   0.00000  Uiso   1.00
H672   H     0.46060   0.11055   0.28649   0.00000  Uiso   1.00
H673   H     0.62722   0.04954   0.93645   0.00000  Uiso   1.00
H674   H     0.50203   0.44309   0.04514   0.00000  Uiso   1.00
H675   H     0.71402   0.23717   0.15413   0.00000  Uiso   1.00
H676   H     0.68657   0.19532   0.24952   0.00000  Uiso   1.00
H677   H     0.76559   0.16637   0.08352   0.00000  Uiso   1.00
H678   H     0.70622   0.35300   0.13506   0.00000  Uiso   1.00
H679   H     0.63041   0.14384   0.34622   0.00000  Uiso   1.00
H680   H     0.79704   0.08284   0.99618   0.00000  Uiso   1.00
H681   H     0.67185   0.47638   0.10487   0.00000  Uiso   1.00
O682   O     0.52388   0.09894   0.37785   0.00000  Uiso   1.00
O683   O     0.74248   0.01891   0.91860   0.00000  Uiso   1.00
O684   O     0.57823   0.53523   0.06120   0.00000  Uiso   1.00
N685   N     0.50433   0.12414   0.28746   0.00000  Uiso   1.00
N686   N     0.66011   0.06709   0.96020   0.00000  Uiso   1.00
N687   N     0.54307   0.43502   0.06180   0.00000  Uiso   1.00
N688   N     0.59570   0.14206   0.31960   0.00000  Uiso   1.00
N689   N     0.75148   0.08501   0.99234   0.00000  Uiso   1.00
N690   N     0.63445   0.45294   0.09394   0.00000  Uiso   1.00
C691   C     0.43889   0.79281   0.10035   0.00000  Uiso   1.00
C692   C     0.43221   0.81131   0.15977   0.00000  Uiso   1.00
C693   C     0.47749   0.83685   0.19183   0.00000  Uiso   1.00
C694   C     0.46233   0.85057   0.24521   0.00000  Uiso   1.00
C695   C     0.46083   0.88106   0.33435   0.00000  Uiso   1.00
C696   C     0.38927   0.82704   0.06958   0.00000  Uiso   1.00
C697   C     0.39846   0.86581   0.02580   0.00000  Uiso   1.00
C698   C     0.34715   0.89276   0.00326   0.00000  Uiso   1.00
C699   C     0.27899   0.94764   0.95235   0.00000  Uiso   1.00
C700   C     0.42153   0.72564   0.09759   0.00000  Uiso   1.00
C701   C     0.45784   0.67915   0.07735   0.00000  Uiso   1.00
C702   C     0.43368   0.62073   0.07838   0.00000  Uiso   1.00
C703   C     0.41561   0.51817   0.07096   0.00000  Uiso   1.00
C704   C     0.33143   0.77174   0.13815   0.00000  Uiso   1.00
C705   C     0.37384   0.79987   0.18030   0.00000  Uiso   1.00
C706   C     0.35860   0.81354   0.23365   0.00000  Uiso   1.00
C707   C     0.40385   0.83910   0.26578   0.00000  Uiso   1.00
C708   C     0.33091   0.81560   0.09011   0.00000  Uiso   1.00
C709   C     0.27957   0.84250   0.06762   0.00000  Uiso   1.00
C710   C     0.28867   0.88129   0.02382   0.00000  Uiso   1.00
C711   C     0.36317   0.71420   0.11812   0.00000  Uiso   1.00
C712   C     0.33895   0.65584   0.11917   0.00000  Uiso   1.00
C713   C     0.37520   0.60926   0.09894   0.00000  Uiso   1.00
H714   H     0.48433   0.80172   0.08436   0.00000  Uiso   1.00
H715   H     0.52266   0.84571   0.17593   0.00000  Uiso   1.00
H716   H     0.44363   0.87465   0.00992   0.00000  Uiso   1.00
H717   H     0.50300   0.68802   0.06147   0.00000  Uiso   1.00
H718   H     0.53940   0.88945   0.28649   0.00000  Uiso   1.00
H719   H     0.37278   0.95046   0.93645   0.00000  Uiso   1.00
H720   H     0.49797   0.55691   0.04514   0.00000  Uiso   1.00
H721   H     0.28598   0.76283   0.15413   0.00000  Uiso   1.00
H722   H     0.31343   0.80468   0.24952   0.00000  Uiso   1.00
H723   H     0.23441   0.83363   0.08352   0.00000  Uiso   1.00
H724   H     0.29378   0.64700   0.13506   0.00000  Uiso   1.00
H725   H     0.36959   0.85616   0.34622   0.00000  Uiso   1.00
H726   H     0.20296   0.91716   0.99618   0.00000  Uiso   1.00
H727   H     0.32815   0.52362   0.10487   0.00000  Uiso   1.00
O728   O     0.47612   0.90106   0.37785   0.00000  Uiso   1.00
O729   O     0.25752   0.98109   0.91860   0.00000  Uiso   1.00
O730   O     0.42177   0.46477   0.06120   0.00000  Uiso   1.00
N731   N     0.49567   0.87586   0.28746   0.00000  Uiso   1.00
N732   N     0.33989   0.93291   0.96020   0.00000  Uiso   1.00
N733   N     0.45693   0.56498   0.06180   0.00000  Uiso   1.00
N734   N     0.40430   0.85794   0.31960   0.00000  Uiso   1.00
N735   N     0.24852   0.91499   0.99234   0.00000  Uiso   1.00
N736   N     0.36555   0.54706   0.09394   0.00000  Uiso   1.00
