data_job_05471
_audit_creation_date              2018-12-19
_audit_creation_method            'Materials Studio'
_symmetry_space_group_name_H-M    'P1'
_symmetry_Int_Tables_number       1
_symmetry_cell_setting            triclinic
loop_
_symmetry_equiv_pos_as_xyz
  x,y,z
_cell_length_a                    43.2112
_cell_length_b                    27.7905
_cell_length_c                    8.8276
_cell_angle_alpha                 90.0000
_cell_angle_beta                  90.0000
_cell_angle_gamma                 90.0000
loop_
_atom_site_label
_atom_site_type_symbol
_atom_site_fract_x
_atom_site_fract_y
_atom_site_fract_z
_atom_site_U_iso_or_equiv
_atom_site_adp_type
_atom_site_occupancy
C1     C     0.79714   0.60051   0.63216   0.00000  Uiso   1.00
C2     C     0.82415   0.58522   0.53189   0.00000  Uiso   1.00
C3     C     0.85012   0.56003   0.57940   0.00000  Uiso   1.00
C4     C     0.87225   0.54948   0.47028   0.00000  Uiso   1.00
C5     C     0.91475   0.52361   0.33760   0.00000  Uiso   1.00
C6     C     0.79437   0.65492   0.61426   0.00000  Uiso   1.00
C7     C     0.79531   0.68832   0.73103   0.00000  Uiso   1.00
C8     C     0.79237   0.73644   0.69125   0.00000  Uiso   1.00
C9     C     0.78863   0.81877   0.68646   0.00000  Uiso   1.00
C10    C     0.76818   0.57925   0.55963   0.00000  Uiso   1.00
C11    C     0.74709   0.54905   0.63048   0.00000  Uiso   1.00
C12    C     0.72209   0.53347   0.54471   0.00000  Uiso   1.00
C13    C     0.67768   0.49832   0.45510   0.00000  Uiso   1.00
C14    C     0.79024   0.62656   0.35389   0.00000  Uiso   1.00
C15    C     0.82040   0.59937   0.38074   0.00000  Uiso   1.00
C16    C     0.84248   0.58886   0.27152   0.00000  Uiso   1.00
C17    C     0.86849   0.56366   0.31886   0.00000  Uiso   1.00
C18    C     0.79062   0.66907   0.46312   0.00000  Uiso   1.00
C19    C     0.78767   0.71715   0.42315   0.00000  Uiso   1.00
C20    C     0.78861   0.75062   0.53983   0.00000  Uiso   1.00
C21    C     0.76443   0.59340   0.40848   0.00000  Uiso   1.00
C22    C     0.73945   0.57787   0.32260   0.00000  Uiso   1.00
C23    C     0.71833   0.54765   0.39329   0.00000  Uiso   1.00
H24    H     0.80007   0.58950   0.74984   0.00000  Uiso   1.00
H25    H     0.85302   0.54909   0.69639   0.00000  Uiso   1.00
H26    H     0.79821   0.67736   0.84799   0.00000  Uiso   1.00
H27    H     0.75000   0.53811   0.74745   0.00000  Uiso   1.00
H28    H     0.91008   0.51055   0.57048   0.00000  Uiso   1.00
H29    H     0.79451   0.78102   0.89015   0.00000  Uiso   1.00
H30    H     0.69285   0.48737   0.67814   0.00000  Uiso   1.00
H31    H     0.78732   0.63758   0.23621   0.00000  Uiso   1.00
H32    H     0.83957   0.59981   0.15456   0.00000  Uiso   1.00
H33    H     0.78477   0.72809   0.30617   0.00000  Uiso   1.00
H34    H     0.73656   0.58883   0.20563   0.00000  Uiso   1.00
H35    H     0.89917   0.55172   0.13072   0.00000  Uiso   1.00
H36    H     0.78359   0.82219   0.45040   0.00000  Uiso   1.00
H37    H     0.68194   0.52854   0.23838   0.00000  Uiso   1.00
O38    O     0.93924   0.50544   0.30617   0.00000  Uiso   1.00
O39    O     0.78760   0.86027   0.72557   0.00000  Uiso   1.00
O40    O     0.65423   0.47501   0.44742   0.00000  Uiso   1.00
N41    N     0.90034   0.52541   0.47818   0.00000  Uiso   1.00
N42    N     0.79229   0.77828   0.77705   0.00000  Uiso   1.00
N43    N     0.69724   0.50376   0.57886   0.00000  Uiso   1.00
N44    N     0.89447   0.54757   0.24155   0.00000  Uiso   1.00
N45    N     0.78642   0.80044   0.54042   0.00000  Uiso   1.00
N46    N     0.69137   0.52591   0.34222   0.00000  Uiso   1.00
C47    C     0.79714   0.10051   0.13216   0.00000  Uiso   1.00
C48    C     0.82415   0.08522   0.03189   0.00000  Uiso   1.00
C49    C     0.85012   0.06003   0.07940   0.00000  Uiso   1.00
C50    C     0.87225   0.04948   0.97028   0.00000  Uiso   1.00
C51    C     0.91475   0.02361   0.83760   0.00000  Uiso   1.00
C52    C     0.79437   0.15492   0.11426   0.00000  Uiso   1.00
C53    C     0.79531   0.18832   0.23103   0.00000  Uiso   1.00
C54    C     0.79237   0.23644   0.19125   0.00000  Uiso   1.00
C55    C     0.78863   0.31877   0.18646   0.00000  Uiso   1.00
C56    C     0.76818   0.07925   0.05963   0.00000  Uiso   1.00
C57    C     0.74709   0.04905   0.13048   0.00000  Uiso   1.00
C58    C     0.72209   0.03347   0.04471   0.00000  Uiso   1.00
C59    C     0.67768   0.99832   0.95510   0.00000  Uiso   1.00
C60    C     0.79024   0.12656   0.85389   0.00000  Uiso   1.00
C61    C     0.82040   0.09937   0.88074   0.00000  Uiso   1.00
C62    C     0.84248   0.08886   0.77152   0.00000  Uiso   1.00
C63    C     0.86849   0.06366   0.81886   0.00000  Uiso   1.00
C64    C     0.79062   0.16907   0.96312   0.00000  Uiso   1.00
C65    C     0.78767   0.21715   0.92315   0.00000  Uiso   1.00
C66    C     0.78861   0.25062   0.03983   0.00000  Uiso   1.00
C67    C     0.76443   0.09340   0.90848   0.00000  Uiso   1.00
C68    C     0.73945   0.07787   0.82260   0.00000  Uiso   1.00
C69    C     0.71833   0.04765   0.89329   0.00000  Uiso   1.00
H70    H     0.80007   0.08950   0.24984   0.00000  Uiso   1.00
H71    H     0.85302   0.04909   0.19639   0.00000  Uiso   1.00
H72    H     0.79821   0.17736   0.34799   0.00000  Uiso   1.00
H73    H     0.75000   0.03811   0.24745   0.00000  Uiso   1.00
H74    H     0.91008   0.01055   0.07048   0.00000  Uiso   1.00
H75    H     0.79451   0.28102   0.39015   0.00000  Uiso   1.00
H76    H     0.69285   0.98737   0.17814   0.00000  Uiso   1.00
H77    H     0.78732   0.13758   0.73621   0.00000  Uiso   1.00
H78    H     0.83957   0.09981   0.65456   0.00000  Uiso   1.00
H79    H     0.78477   0.22809   0.80617   0.00000  Uiso   1.00
H80    H     0.73656   0.08883   0.70563   0.00000  Uiso   1.00
H81    H     0.89917   0.05172   0.63072   0.00000  Uiso   1.00
H82    H     0.78359   0.32219   0.95040   0.00000  Uiso   1.00
H83    H     0.68194   0.02854   0.73838   0.00000  Uiso   1.00
O84    O     0.93924   0.00544   0.80617   0.00000  Uiso   1.00
O85    O     0.78760   0.36027   0.22557   0.00000  Uiso   1.00
O86    O     0.65423   0.97501   0.94742   0.00000  Uiso   1.00
N87    N     0.90034   0.02541   0.97818   0.00000  Uiso   1.00
N88    N     0.79229   0.27828   0.27705   0.00000  Uiso   1.00
N89    N     0.69724   0.00376   0.07886   0.00000  Uiso   1.00
N90    N     0.89447   0.04757   0.74155   0.00000  Uiso   1.00
N91    N     0.78642   0.30044   0.04042   0.00000  Uiso   1.00
N92    N     0.69137   0.02591   0.84222   0.00000  Uiso   1.00
C93    C     0.29714   0.60051   0.13216   0.00000  Uiso   1.00
C94    C     0.32415   0.58522   0.03189   0.00000  Uiso   1.00
C95    C     0.35012   0.56003   0.07940   0.00000  Uiso   1.00
C96    C     0.37225   0.54948   0.97028   0.00000  Uiso   1.00
C97    C     0.41475   0.52361   0.83760   0.00000  Uiso   1.00
C98    C     0.29437   0.65492   0.11426   0.00000  Uiso   1.00
C99    C     0.29531   0.68832   0.23103   0.00000  Uiso   1.00
C100   C     0.29237   0.73644   0.19125   0.00000  Uiso   1.00
C101   C     0.28863   0.81877   0.18646   0.00000  Uiso   1.00
C102   C     0.26818   0.57925   0.05963   0.00000  Uiso   1.00
C103   C     0.24709   0.54905   0.13048   0.00000  Uiso   1.00
C104   C     0.22209   0.53347   0.04471   0.00000  Uiso   1.00
C105   C     0.17768   0.49832   0.95510   0.00000  Uiso   1.00
C106   C     0.29024   0.62656   0.85389   0.00000  Uiso   1.00
C107   C     0.32040   0.59937   0.88074   0.00000  Uiso   1.00
C108   C     0.34248   0.58886   0.77152   0.00000  Uiso   1.00
C109   C     0.36849   0.56366   0.81886   0.00000  Uiso   1.00
C110   C     0.29062   0.66907   0.96312   0.00000  Uiso   1.00
C111   C     0.28767   0.71715   0.92315   0.00000  Uiso   1.00
C112   C     0.28861   0.75062   0.03983   0.00000  Uiso   1.00
C113   C     0.26443   0.59340   0.90848   0.00000  Uiso   1.00
C114   C     0.23945   0.57787   0.82260   0.00000  Uiso   1.00
C115   C     0.21833   0.54765   0.89329   0.00000  Uiso   1.00
H116   H     0.30007   0.58950   0.24984   0.00000  Uiso   1.00
H117   H     0.35302   0.54909   0.19639   0.00000  Uiso   1.00
H118   H     0.29821   0.67736   0.34799   0.00000  Uiso   1.00
H119   H     0.25000   0.53811   0.24745   0.00000  Uiso   1.00
H120   H     0.41008   0.51055   0.07048   0.00000  Uiso   1.00
H121   H     0.29451   0.78102   0.39015   0.00000  Uiso   1.00
H122   H     0.19285   0.48737   0.17814   0.00000  Uiso   1.00
H123   H     0.28732   0.63758   0.73621   0.00000  Uiso   1.00
H124   H     0.33957   0.59981   0.65456   0.00000  Uiso   1.00
H125   H     0.28477   0.72809   0.80617   0.00000  Uiso   1.00
H126   H     0.23656   0.58883   0.70563   0.00000  Uiso   1.00
H127   H     0.39917   0.55172   0.63072   0.00000  Uiso   1.00
H128   H     0.28359   0.82219   0.95040   0.00000  Uiso   1.00
H129   H     0.18194   0.52854   0.73838   0.00000  Uiso   1.00
O130   O     0.43924   0.50544   0.80617   0.00000  Uiso   1.00
O131   O     0.28760   0.86027   0.22557   0.00000  Uiso   1.00
O132   O     0.15423   0.47501   0.94742   0.00000  Uiso   1.00
N133   N     0.40034   0.52541   0.97818   0.00000  Uiso   1.00
N134   N     0.29229   0.77828   0.27705   0.00000  Uiso   1.00
N135   N     0.19724   0.50376   0.07886   0.00000  Uiso   1.00
N136   N     0.39447   0.54757   0.74155   0.00000  Uiso   1.00
N137   N     0.28642   0.80044   0.04042   0.00000  Uiso   1.00
N138   N     0.19137   0.52591   0.84222   0.00000  Uiso   1.00
C139   C     0.29714   0.10051   0.63216   0.00000  Uiso   1.00
C140   C     0.32415   0.08522   0.53189   0.00000  Uiso   1.00
C141   C     0.35012   0.06003   0.57940   0.00000  Uiso   1.00
C142   C     0.37225   0.04948   0.47028   0.00000  Uiso   1.00
C143   C     0.41475   0.02361   0.33760   0.00000  Uiso   1.00
C144   C     0.29437   0.15492   0.61426   0.00000  Uiso   1.00
C145   C     0.29531   0.18832   0.73103   0.00000  Uiso   1.00
C146   C     0.29237   0.23644   0.69125   0.00000  Uiso   1.00
C147   C     0.28863   0.31877   0.68646   0.00000  Uiso   1.00
C148   C     0.26818   0.07925   0.55963   0.00000  Uiso   1.00
C149   C     0.24709   0.04905   0.63048   0.00000  Uiso   1.00
C150   C     0.22209   0.03347   0.54471   0.00000  Uiso   1.00
C151   C     0.17768   0.99832   0.45510   0.00000  Uiso   1.00
C152   C     0.29024   0.12656   0.35389   0.00000  Uiso   1.00
C153   C     0.32040   0.09937   0.38074   0.00000  Uiso   1.00
C154   C     0.34248   0.08886   0.27152   0.00000  Uiso   1.00
C155   C     0.36849   0.06366   0.31886   0.00000  Uiso   1.00
C156   C     0.29062   0.16907   0.46312   0.00000  Uiso   1.00
C157   C     0.28767   0.21715   0.42315   0.00000  Uiso   1.00
C158   C     0.28861   0.25062   0.53983   0.00000  Uiso   1.00
C159   C     0.26443   0.09340   0.40848   0.00000  Uiso   1.00
C160   C     0.23945   0.07787   0.32260   0.00000  Uiso   1.00
C161   C     0.21833   0.04765   0.39329   0.00000  Uiso   1.00
H162   H     0.30007   0.08950   0.74984   0.00000  Uiso   1.00
H163   H     0.35302   0.04909   0.69639   0.00000  Uiso   1.00
H164   H     0.29821   0.17736   0.84799   0.00000  Uiso   1.00
H165   H     0.25000   0.03811   0.74745   0.00000  Uiso   1.00
H166   H     0.41008   0.01055   0.57048   0.00000  Uiso   1.00
H167   H     0.29451   0.28102   0.89015   0.00000  Uiso   1.00
H168   H     0.19285   0.98737   0.67814   0.00000  Uiso   1.00
H169   H     0.28732   0.13758   0.23621   0.00000  Uiso   1.00
H170   H     0.33957   0.09981   0.15456   0.00000  Uiso   1.00
H171   H     0.28477   0.22809   0.30617   0.00000  Uiso   1.00
H172   H     0.23656   0.08883   0.20563   0.00000  Uiso   1.00
H173   H     0.39917   0.05172   0.13072   0.00000  Uiso   1.00
H174   H     0.28359   0.32219   0.45040   0.00000  Uiso   1.00
H175   H     0.18194   0.02854   0.23838   0.00000  Uiso   1.00
O176   O     0.43924   0.00544   0.30617   0.00000  Uiso   1.00
O177   O     0.28760   0.36027   0.72557   0.00000  Uiso   1.00
O178   O     0.15423   0.97501   0.44742   0.00000  Uiso   1.00
N179   N     0.40034   0.02541   0.47818   0.00000  Uiso   1.00
N180   N     0.29229   0.27828   0.77705   0.00000  Uiso   1.00
N181   N     0.19724   0.00376   0.57886   0.00000  Uiso   1.00
N182   N     0.39447   0.04757   0.24155   0.00000  Uiso   1.00
N183   N     0.28642   0.30044   0.54042   0.00000  Uiso   1.00
N184   N     0.19137   0.02591   0.34222   0.00000  Uiso   1.00
C185   C     0.20286   0.39949   0.63216   0.00000  Uiso   1.00
C186   C     0.17585   0.41478   0.53189   0.00000  Uiso   1.00
C187   C     0.14988   0.43997   0.57940   0.00000  Uiso   1.00
C188   C     0.12775   0.45052   0.47028   0.00000  Uiso   1.00
C189   C     0.08525   0.47639   0.33760   0.00000  Uiso   1.00
C190   C     0.20563   0.34508   0.61426   0.00000  Uiso   1.00
C191   C     0.20469   0.31168   0.73103   0.00000  Uiso   1.00
C192   C     0.20763   0.26356   0.69125   0.00000  Uiso   1.00
C193   C     0.21137   0.18123   0.68646   0.00000  Uiso   1.00
C194   C     0.23182   0.42075   0.55963   0.00000  Uiso   1.00
C195   C     0.25291   0.45095   0.63048   0.00000  Uiso   1.00
C196   C     0.27791   0.46653   0.54471   0.00000  Uiso   1.00
C197   C     0.32232   0.50168   0.45510   0.00000  Uiso   1.00
C198   C     0.20976   0.37344   0.35389   0.00000  Uiso   1.00
C199   C     0.17960   0.40063   0.38074   0.00000  Uiso   1.00
C200   C     0.15752   0.41114   0.27152   0.00000  Uiso   1.00
C201   C     0.13151   0.43634   0.31886   0.00000  Uiso   1.00
C202   C     0.20938   0.33093   0.46312   0.00000  Uiso   1.00
C203   C     0.21233   0.28285   0.42315   0.00000  Uiso   1.00
C204   C     0.21139   0.24938   0.53983   0.00000  Uiso   1.00
C205   C     0.23557   0.40660   0.40848   0.00000  Uiso   1.00
C206   C     0.26055   0.42213   0.32260   0.00000  Uiso   1.00
C207   C     0.28167   0.45235   0.39329   0.00000  Uiso   1.00
H208   H     0.19993   0.41050   0.74984   0.00000  Uiso   1.00
H209   H     0.14698   0.45091   0.69639   0.00000  Uiso   1.00
H210   H     0.20179   0.32264   0.84799   0.00000  Uiso   1.00
H211   H     0.25000   0.46189   0.74745   0.00000  Uiso   1.00
H212   H     0.08992   0.48945   0.57048   0.00000  Uiso   1.00
H213   H     0.20549   0.21898   0.89015   0.00000  Uiso   1.00
H214   H     0.30715   0.51263   0.67814   0.00000  Uiso   1.00
H215   H     0.21268   0.36242   0.23621   0.00000  Uiso   1.00
H216   H     0.16043   0.40019   0.15456   0.00000  Uiso   1.00
H217   H     0.21523   0.27191   0.30617   0.00000  Uiso   1.00
H218   H     0.26344   0.41117   0.20563   0.00000  Uiso   1.00
H219   H     0.10083   0.44828   0.13072   0.00000  Uiso   1.00
H220   H     0.21641   0.17781   0.45040   0.00000  Uiso   1.00
H221   H     0.31806   0.47146   0.23838   0.00000  Uiso   1.00
O222   O     0.06076   0.49456   0.30617   0.00000  Uiso   1.00
O223   O     0.21240   0.13973   0.72557   0.00000  Uiso   1.00
O224   O     0.34577   0.52499   0.44742   0.00000  Uiso   1.00
N225   N     0.09966   0.47459   0.47818   0.00000  Uiso   1.00
N226   N     0.20771   0.22172   0.77705   0.00000  Uiso   1.00
N227   N     0.30276   0.49624   0.57886   0.00000  Uiso   1.00
N228   N     0.10553   0.45243   0.24155   0.00000  Uiso   1.00
N229   N     0.21358   0.19956   0.54042   0.00000  Uiso   1.00
N230   N     0.30863   0.47409   0.34222   0.00000  Uiso   1.00
C231   C     0.20286   0.89949   0.13216   0.00000  Uiso   1.00
C232   C     0.17585   0.91478   0.03189   0.00000  Uiso   1.00
C233   C     0.14988   0.93997   0.07940   0.00000  Uiso   1.00
C234   C     0.12775   0.95052   0.97028   0.00000  Uiso   1.00
C235   C     0.08525   0.97639   0.83760   0.00000  Uiso   1.00
C236   C     0.20563   0.84508   0.11426   0.00000  Uiso   1.00
C237   C     0.20469   0.81168   0.23103   0.00000  Uiso   1.00
C238   C     0.20763   0.76356   0.19125   0.00000  Uiso   1.00
C239   C     0.21137   0.68123   0.18646   0.00000  Uiso   1.00
C240   C     0.23182   0.92075   0.05963   0.00000  Uiso   1.00
C241   C     0.25291   0.95095   0.13048   0.00000  Uiso   1.00
C242   C     0.27791   0.96653   0.04471   0.00000  Uiso   1.00
C243   C     0.32232   0.00168   0.95510   0.00000  Uiso   1.00
C244   C     0.20976   0.87344   0.85389   0.00000  Uiso   1.00
C245   C     0.17960   0.90063   0.88074   0.00000  Uiso   1.00
C246   C     0.15752   0.91114   0.77152   0.00000  Uiso   1.00
C247   C     0.13151   0.93634   0.81886   0.00000  Uiso   1.00
C248   C     0.20938   0.83093   0.96312   0.00000  Uiso   1.00
C249   C     0.21233   0.78285   0.92315   0.00000  Uiso   1.00
C250   C     0.21139   0.74938   0.03983   0.00000  Uiso   1.00
C251   C     0.23557   0.90660   0.90848   0.00000  Uiso   1.00
C252   C     0.26055   0.92213   0.82260   0.00000  Uiso   1.00
C253   C     0.28167   0.95235   0.89329   0.00000  Uiso   1.00
H254   H     0.19993   0.91050   0.24984   0.00000  Uiso   1.00
H255   H     0.14698   0.95091   0.19639   0.00000  Uiso   1.00
H256   H     0.20179   0.82264   0.34799   0.00000  Uiso   1.00
H257   H     0.25000   0.96189   0.24745   0.00000  Uiso   1.00
H258   H     0.08992   0.98945   0.07048   0.00000  Uiso   1.00
H259   H     0.20549   0.71898   0.39015   0.00000  Uiso   1.00
H260   H     0.30715   0.01263   0.17814   0.00000  Uiso   1.00
H261   H     0.21268   0.86242   0.73621   0.00000  Uiso   1.00
H262   H     0.16043   0.90019   0.65456   0.00000  Uiso   1.00
H263   H     0.21523   0.77191   0.80617   0.00000  Uiso   1.00
H264   H     0.26344   0.91117   0.70563   0.00000  Uiso   1.00
H265   H     0.10083   0.94828   0.63072   0.00000  Uiso   1.00
H266   H     0.21641   0.67781   0.95040   0.00000  Uiso   1.00
H267   H     0.31806   0.97146   0.73838   0.00000  Uiso   1.00
O268   O     0.06076   0.99456   0.80617   0.00000  Uiso   1.00
O269   O     0.21240   0.63973   0.22557   0.00000  Uiso   1.00
O270   O     0.34577   0.02499   0.94742   0.00000  Uiso   1.00
N271   N     0.09966   0.97459   0.97818   0.00000  Uiso   1.00
N272   N     0.20771   0.72172   0.27705   0.00000  Uiso   1.00
N273   N     0.30276   0.99624   0.07886   0.00000  Uiso   1.00
N274   N     0.10553   0.95243   0.74155   0.00000  Uiso   1.00
N275   N     0.21358   0.69956   0.04042   0.00000  Uiso   1.00
N276   N     0.30863   0.97409   0.84222   0.00000  Uiso   1.00
C277   C     0.70286   0.39949   0.13216   0.00000  Uiso   1.00
C278   C     0.67585   0.41478   0.03189   0.00000  Uiso   1.00
C279   C     0.64988   0.43997   0.07940   0.00000  Uiso   1.00
C280   C     0.62775   0.45052   0.97028   0.00000  Uiso   1.00
C281   C     0.58525   0.47639   0.83760   0.00000  Uiso   1.00
C282   C     0.70563   0.34508   0.11426   0.00000  Uiso   1.00
C283   C     0.70469   0.31168   0.23103   0.00000  Uiso   1.00
C284   C     0.70763   0.26356   0.19125   0.00000  Uiso   1.00
C285   C     0.71137   0.18123   0.18646   0.00000  Uiso   1.00
C286   C     0.73182   0.42075   0.05963   0.00000  Uiso   1.00
C287   C     0.75291   0.45095   0.13048   0.00000  Uiso   1.00
C288   C     0.77791   0.46653   0.04471   0.00000  Uiso   1.00
C289   C     0.82232   0.50168   0.95510   0.00000  Uiso   1.00
C290   C     0.70976   0.37344   0.85389   0.00000  Uiso   1.00
C291   C     0.67960   0.40063   0.88074   0.00000  Uiso   1.00
C292   C     0.65752   0.41114   0.77152   0.00000  Uiso   1.00
C293   C     0.63151   0.43634   0.81886   0.00000  Uiso   1.00
C294   C     0.70938   0.33093   0.96312   0.00000  Uiso   1.00
C295   C     0.71233   0.28285   0.92315   0.00000  Uiso   1.00
C296   C     0.71139   0.24938   0.03983   0.00000  Uiso   1.00
C297   C     0.73557   0.40660   0.90848   0.00000  Uiso   1.00
C298   C     0.76055   0.42213   0.82260   0.00000  Uiso   1.00
C299   C     0.78167   0.45235   0.89329   0.00000  Uiso   1.00
H300   H     0.69993   0.41050   0.24984   0.00000  Uiso   1.00
H301   H     0.64698   0.45091   0.19639   0.00000  Uiso   1.00
H302   H     0.70179   0.32264   0.34799   0.00000  Uiso   1.00
H303   H     0.75000   0.46189   0.24745   0.00000  Uiso   1.00
H304   H     0.58992   0.48945   0.07048   0.00000  Uiso   1.00
H305   H     0.70549   0.21898   0.39015   0.00000  Uiso   1.00
H306   H     0.80715   0.51263   0.17814   0.00000  Uiso   1.00
H307   H     0.71268   0.36242   0.73621   0.00000  Uiso   1.00
H308   H     0.66043   0.40019   0.65456   0.00000  Uiso   1.00
H309   H     0.71523   0.27191   0.80617   0.00000  Uiso   1.00
H310   H     0.76344   0.41117   0.70563   0.00000  Uiso   1.00
H311   H     0.60083   0.44828   0.63072   0.00000  Uiso   1.00
H312   H     0.71641   0.17781   0.95040   0.00000  Uiso   1.00
H313   H     0.81806   0.47146   0.73838   0.00000  Uiso   1.00
O314   O     0.56076   0.49456   0.80617   0.00000  Uiso   1.00
O315   O     0.71240   0.13973   0.22557   0.00000  Uiso   1.00
O316   O     0.84577   0.52499   0.94742   0.00000  Uiso   1.00
N317   N     0.59966   0.47459   0.97818   0.00000  Uiso   1.00
N318   N     0.70771   0.22172   0.27705   0.00000  Uiso   1.00
N319   N     0.80276   0.49624   0.07886   0.00000  Uiso   1.00
N320   N     0.60553   0.45243   0.74155   0.00000  Uiso   1.00
N321   N     0.71358   0.19956   0.04042   0.00000  Uiso   1.00
N322   N     0.80863   0.47409   0.84222   0.00000  Uiso   1.00
C323   C     0.70286   0.89949   0.63216   0.00000  Uiso   1.00
C324   C     0.67585   0.91478   0.53189   0.00000  Uiso   1.00
C325   C     0.64988   0.93997   0.57940   0.00000  Uiso   1.00
C326   C     0.62775   0.95052   0.47028   0.00000  Uiso   1.00
C327   C     0.58525   0.97639   0.33760   0.00000  Uiso   1.00
C328   C     0.70563   0.84508   0.61426   0.00000  Uiso   1.00
C329   C     0.70469   0.81168   0.73103   0.00000  Uiso   1.00
C330   C     0.70763   0.76356   0.69125   0.00000  Uiso   1.00
C331   C     0.71137   0.68123   0.68646   0.00000  Uiso   1.00
C332   C     0.73182   0.92075   0.55963   0.00000  Uiso   1.00
C333   C     0.75291   0.95095   0.63048   0.00000  Uiso   1.00
C334   C     0.77791   0.96653   0.54471   0.00000  Uiso   1.00
C335   C     0.82232   0.00168   0.45510   0.00000  Uiso   1.00
C336   C     0.70976   0.87344   0.35389   0.00000  Uiso   1.00
C337   C     0.67960   0.90063   0.38074   0.00000  Uiso   1.00
C338   C     0.65752   0.91114   0.27152   0.00000  Uiso   1.00
C339   C     0.63151   0.93634   0.31886   0.00000  Uiso   1.00
C340   C     0.70938   0.83093   0.46312   0.00000  Uiso   1.00
C341   C     0.71233   0.78285   0.42315   0.00000  Uiso   1.00
C342   C     0.71139   0.74938   0.53983   0.00000  Uiso   1.00
C343   C     0.73557   0.90660   0.40848   0.00000  Uiso   1.00
C344   C     0.76055   0.92213   0.32260   0.00000  Uiso   1.00
C345   C     0.78167   0.95235   0.39329   0.00000  Uiso   1.00
H346   H     0.69993   0.91050   0.74984   0.00000  Uiso   1.00
H347   H     0.64698   0.95091   0.69639   0.00000  Uiso   1.00
H348   H     0.70179   0.82264   0.84799   0.00000  Uiso   1.00
H349   H     0.75000   0.96189   0.74745   0.00000  Uiso   1.00
H350   H     0.58992   0.98945   0.57048   0.00000  Uiso   1.00
H351   H     0.70549   0.71898   0.89015   0.00000  Uiso   1.00
H352   H     0.80715   0.01263   0.67814   0.00000  Uiso   1.00
H353   H     0.71268   0.86242   0.23621   0.00000  Uiso   1.00
H354   H     0.66043   0.90019   0.15456   0.00000  Uiso   1.00
H355   H     0.71523   0.77191   0.30617   0.00000  Uiso   1.00
H356   H     0.76344   0.91117   0.20563   0.00000  Uiso   1.00
H357   H     0.60083   0.94828   0.13072   0.00000  Uiso   1.00
H358   H     0.71641   0.67781   0.45040   0.00000  Uiso   1.00
H359   H     0.81806   0.97146   0.23838   0.00000  Uiso   1.00
O360   O     0.56076   0.99456   0.30617   0.00000  Uiso   1.00
O361   O     0.71240   0.63973   0.72557   0.00000  Uiso   1.00
O362   O     0.84577   0.02499   0.44742   0.00000  Uiso   1.00
N363   N     0.59966   0.97459   0.47818   0.00000  Uiso   1.00
N364   N     0.70771   0.72172   0.77705   0.00000  Uiso   1.00
N365   N     0.80276   0.99624   0.57886   0.00000  Uiso   1.00
N366   N     0.60553   0.95243   0.24155   0.00000  Uiso   1.00
N367   N     0.71358   0.69956   0.54042   0.00000  Uiso   1.00
N368   N     0.80863   0.97409   0.34222   0.00000  Uiso   1.00
C369   C     0.04714   0.64949   0.88216   0.00000  Uiso   1.00
C370   C     0.07415   0.66478   0.78189   0.00000  Uiso   1.00
C371   C     0.10012   0.68997   0.82940   0.00000  Uiso   1.00
C372   C     0.12225   0.70052   0.72028   0.00000  Uiso   1.00
C373   C     0.16475   0.72639   0.58760   0.00000  Uiso   1.00
C374   C     0.04437   0.59508   0.86426   0.00000  Uiso   1.00
C375   C     0.04531   0.56168   0.98103   0.00000  Uiso   1.00
C376   C     0.04237   0.51356   0.94125   0.00000  Uiso   1.00
C377   C     0.03863   0.43123   0.93646   0.00000  Uiso   1.00
C378   C     0.01818   0.67075   0.80963   0.00000  Uiso   1.00
C379   C     0.99709   0.70095   0.88048   0.00000  Uiso   1.00
C380   C     0.97209   0.71653   0.79471   0.00000  Uiso   1.00
C381   C     0.92768   0.75168   0.70510   0.00000  Uiso   1.00
C382   C     0.04024   0.62344   0.60389   0.00000  Uiso   1.00
C383   C     0.07040   0.65063   0.63074   0.00000  Uiso   1.00
C384   C     0.09248   0.66114   0.52152   0.00000  Uiso   1.00
C385   C     0.11849   0.68634   0.56886   0.00000  Uiso   1.00
C386   C     0.04062   0.58093   0.71312   0.00000  Uiso   1.00
C387   C     0.03767   0.53285   0.67315   0.00000  Uiso   1.00
C388   C     0.03861   0.49938   0.78983   0.00000  Uiso   1.00
C389   C     0.01443   0.65660   0.65848   0.00000  Uiso   1.00
C390   C     0.98945   0.67213   0.57260   0.00000  Uiso   1.00
C391   C     0.96833   0.70235   0.64329   0.00000  Uiso   1.00
H392   H     0.05007   0.66050   0.99984   0.00000  Uiso   1.00
H393   H     0.10302   0.70091   0.94639   0.00000  Uiso   1.00
H394   H     0.04821   0.57264   0.09799   0.00000  Uiso   1.00
H395   H     0.00000   0.71189   0.99745   0.00000  Uiso   1.00
H396   H     0.16008   0.73945   0.82048   0.00000  Uiso   1.00
H397   H     0.04451   0.46898   0.14015   0.00000  Uiso   1.00
H398   H     0.94285   0.76263   0.92814   0.00000  Uiso   1.00
H399   H     0.03732   0.61242   0.48621   0.00000  Uiso   1.00
H400   H     0.08957   0.65019   0.40456   0.00000  Uiso   1.00
H401   H     0.03477   0.52191   0.55617   0.00000  Uiso   1.00
H402   H     0.98656   0.66117   0.45563   0.00000  Uiso   1.00
H403   H     0.14917   0.69828   0.38072   0.00000  Uiso   1.00
H404   H     0.03359   0.42781   0.70040   0.00000  Uiso   1.00
H405   H     0.93194   0.72146   0.48838   0.00000  Uiso   1.00
O406   O     0.18924   0.74456   0.55617   0.00000  Uiso   1.00
O407   O     0.03760   0.38973   0.97557   0.00000  Uiso   1.00
O408   O     0.90423   0.77499   0.69742   0.00000  Uiso   1.00
N409   N     0.15034   0.72459   0.72818   0.00000  Uiso   1.00
N410   N     0.04229   0.47172   0.02705   0.00000  Uiso   1.00
N411   N     0.94724   0.74624   0.82886   0.00000  Uiso   1.00
N412   N     0.14447   0.70243   0.49155   0.00000  Uiso   1.00
N413   N     0.03642   0.44956   0.79042   0.00000  Uiso   1.00
N414   N     0.94137   0.72409   0.59222   0.00000  Uiso   1.00
C415   C     0.04714   0.14949   0.38216   0.00000  Uiso   1.00
C416   C     0.07415   0.16478   0.28189   0.00000  Uiso   1.00
C417   C     0.10012   0.18997   0.32940   0.00000  Uiso   1.00
C418   C     0.12225   0.20052   0.22028   0.00000  Uiso   1.00
C419   C     0.16475   0.22639   0.08760   0.00000  Uiso   1.00
C420   C     0.04437   0.09508   0.36426   0.00000  Uiso   1.00
C421   C     0.04531   0.06168   0.48103   0.00000  Uiso   1.00
C422   C     0.04237   0.01356   0.44125   0.00000  Uiso   1.00
C423   C     0.03863   0.93123   0.43646   0.00000  Uiso   1.00
C424   C     0.01818   0.17075   0.30963   0.00000  Uiso   1.00
C425   C     0.99709   0.20095   0.38048   0.00000  Uiso   1.00
C426   C     0.97209   0.21653   0.29471   0.00000  Uiso   1.00
C427   C     0.92768   0.25168   0.20510   0.00000  Uiso   1.00
C428   C     0.04024   0.12344   0.10389   0.00000  Uiso   1.00
C429   C     0.07040   0.15063   0.13074   0.00000  Uiso   1.00
C430   C     0.09248   0.16114   0.02152   0.00000  Uiso   1.00
C431   C     0.11849   0.18634   0.06886   0.00000  Uiso   1.00
C432   C     0.04062   0.08093   0.21312   0.00000  Uiso   1.00
C433   C     0.03767   0.03285   0.17315   0.00000  Uiso   1.00
C434   C     0.03861   0.99938   0.28983   0.00000  Uiso   1.00
C435   C     0.01443   0.15660   0.15848   0.00000  Uiso   1.00
C436   C     0.98945   0.17213   0.07260   0.00000  Uiso   1.00
C437   C     0.96833   0.20235   0.14329   0.00000  Uiso   1.00
H438   H     0.05007   0.16050   0.49984   0.00000  Uiso   1.00
H439   H     0.10302   0.20091   0.44639   0.00000  Uiso   1.00
H440   H     0.04821   0.07264   0.59799   0.00000  Uiso   1.00
H441   H     0.00000   0.21189   0.49745   0.00000  Uiso   1.00
H442   H     0.16008   0.23945   0.32048   0.00000  Uiso   1.00
H443   H     0.04451   0.96898   0.64015   0.00000  Uiso   1.00
H444   H     0.94285   0.26263   0.42814   0.00000  Uiso   1.00
H445   H     0.03732   0.11242   0.98621   0.00000  Uiso   1.00
H446   H     0.08957   0.15019   0.90456   0.00000  Uiso   1.00
H447   H     0.03477   0.02191   0.05617   0.00000  Uiso   1.00
H448   H     0.98656   0.16117   0.95563   0.00000  Uiso   1.00
H449   H     0.14917   0.19828   0.88072   0.00000  Uiso   1.00
H450   H     0.03359   0.92781   0.20040   0.00000  Uiso   1.00
H451   H     0.93194   0.22146   0.98838   0.00000  Uiso   1.00
O452   O     0.18924   0.24456   0.05617   0.00000  Uiso   1.00
O453   O     0.03760   0.88973   0.47557   0.00000  Uiso   1.00
O454   O     0.90423   0.27499   0.19742   0.00000  Uiso   1.00
N455   N     0.15034   0.22459   0.22818   0.00000  Uiso   1.00
N456   N     0.04229   0.97172   0.52705   0.00000  Uiso   1.00
N457   N     0.94724   0.24624   0.32886   0.00000  Uiso   1.00
N458   N     0.14447   0.20243   0.99155   0.00000  Uiso   1.00
N459   N     0.03642   0.94956   0.29042   0.00000  Uiso   1.00
N460   N     0.94137   0.22409   0.09222   0.00000  Uiso   1.00
C461   C     0.54714   0.64949   0.38216   0.00000  Uiso   1.00
C462   C     0.57415   0.66478   0.28189   0.00000  Uiso   1.00
C463   C     0.60012   0.68997   0.32940   0.00000  Uiso   1.00
C464   C     0.62225   0.70052   0.22028   0.00000  Uiso   1.00
C465   C     0.66475   0.72639   0.08760   0.00000  Uiso   1.00
C466   C     0.54437   0.59508   0.36426   0.00000  Uiso   1.00
C467   C     0.54531   0.56168   0.48103   0.00000  Uiso   1.00
C468   C     0.54237   0.51356   0.44125   0.00000  Uiso   1.00
C469   C     0.53863   0.43123   0.43646   0.00000  Uiso   1.00
C470   C     0.51818   0.67075   0.30963   0.00000  Uiso   1.00
C471   C     0.49709   0.70095   0.38048   0.00000  Uiso   1.00
C472   C     0.47209   0.71653   0.29471   0.00000  Uiso   1.00
C473   C     0.42768   0.75168   0.20510   0.00000  Uiso   1.00
C474   C     0.54024   0.62344   0.10389   0.00000  Uiso   1.00
C475   C     0.57040   0.65063   0.13074   0.00000  Uiso   1.00
C476   C     0.59248   0.66114   0.02152   0.00000  Uiso   1.00
C477   C     0.61849   0.68634   0.06886   0.00000  Uiso   1.00
C478   C     0.54062   0.58093   0.21312   0.00000  Uiso   1.00
C479   C     0.53767   0.53285   0.17315   0.00000  Uiso   1.00
C480   C     0.53861   0.49938   0.28983   0.00000  Uiso   1.00
C481   C     0.51443   0.65660   0.15848   0.00000  Uiso   1.00
C482   C     0.48945   0.67213   0.07260   0.00000  Uiso   1.00
C483   C     0.46833   0.70235   0.14329   0.00000  Uiso   1.00
H484   H     0.55007   0.66050   0.49984   0.00000  Uiso   1.00
H485   H     0.60302   0.70091   0.44639   0.00000  Uiso   1.00
H486   H     0.54821   0.57264   0.59799   0.00000  Uiso   1.00
H487   H     0.50000   0.71189   0.49745   0.00000  Uiso   1.00
H488   H     0.66008   0.73945   0.32048   0.00000  Uiso   1.00
H489   H     0.54451   0.46898   0.64015   0.00000  Uiso   1.00
H490   H     0.44285   0.76263   0.42814   0.00000  Uiso   1.00
H491   H     0.53732   0.61242   0.98621   0.00000  Uiso   1.00
H492   H     0.58957   0.65019   0.90456   0.00000  Uiso   1.00
H493   H     0.53477   0.52191   0.05617   0.00000  Uiso   1.00
H494   H     0.48656   0.66117   0.95563   0.00000  Uiso   1.00
H495   H     0.64917   0.69828   0.88072   0.00000  Uiso   1.00
H496   H     0.53359   0.42781   0.20040   0.00000  Uiso   1.00
H497   H     0.43194   0.72146   0.98838   0.00000  Uiso   1.00
O498   O     0.68924   0.74456   0.05617   0.00000  Uiso   1.00
O499   O     0.53760   0.38973   0.47557   0.00000  Uiso   1.00
O500   O     0.40423   0.77499   0.19742   0.00000  Uiso   1.00
N501   N     0.65034   0.72459   0.22818   0.00000  Uiso   1.00
N502   N     0.54229   0.47172   0.52705   0.00000  Uiso   1.00
N503   N     0.44724   0.74624   0.32886   0.00000  Uiso   1.00
N504   N     0.64447   0.70243   0.99155   0.00000  Uiso   1.00
N505   N     0.53642   0.44956   0.29042   0.00000  Uiso   1.00
N506   N     0.44137   0.72409   0.09222   0.00000  Uiso   1.00
C507   C     0.54714   0.14949   0.88216   0.00000  Uiso   1.00
C508   C     0.57415   0.16478   0.78189   0.00000  Uiso   1.00
C509   C     0.60012   0.18997   0.82940   0.00000  Uiso   1.00
C510   C     0.62225   0.20052   0.72028   0.00000  Uiso   1.00
C511   C     0.66475   0.22639   0.58760   0.00000  Uiso   1.00
C512   C     0.54437   0.09508   0.86426   0.00000  Uiso   1.00
C513   C     0.54531   0.06168   0.98103   0.00000  Uiso   1.00
C514   C     0.54237   0.01356   0.94125   0.00000  Uiso   1.00
C515   C     0.53863   0.93123   0.93646   0.00000  Uiso   1.00
C516   C     0.51818   0.17075   0.80963   0.00000  Uiso   1.00
C517   C     0.49709   0.20095   0.88048   0.00000  Uiso   1.00
C518   C     0.47209   0.21653   0.79471   0.00000  Uiso   1.00
C519   C     0.42768   0.25168   0.70510   0.00000  Uiso   1.00
C520   C     0.54024   0.12344   0.60389   0.00000  Uiso   1.00
C521   C     0.57040   0.15063   0.63074   0.00000  Uiso   1.00
C522   C     0.59248   0.16114   0.52152   0.00000  Uiso   1.00
C523   C     0.61849   0.18634   0.56886   0.00000  Uiso   1.00
C524   C     0.54062   0.08093   0.71312   0.00000  Uiso   1.00
C525   C     0.53767   0.03285   0.67315   0.00000  Uiso   1.00
C526   C     0.53861   0.99938   0.78983   0.00000  Uiso   1.00
C527   C     0.51443   0.15660   0.65848   0.00000  Uiso   1.00
C528   C     0.48945   0.17213   0.57260   0.00000  Uiso   1.00
C529   C     0.46833   0.20235   0.64329   0.00000  Uiso   1.00
H530   H     0.55007   0.16050   0.99984   0.00000  Uiso   1.00
H531   H     0.60302   0.20091   0.94639   0.00000  Uiso   1.00
H532   H     0.54821   0.07264   0.09799   0.00000  Uiso   1.00
H533   H     0.50000   0.21189   0.99745   0.00000  Uiso   1.00
H534   H     0.66008   0.23945   0.82048   0.00000  Uiso   1.00
H535   H     0.54451   0.96898   0.14015   0.00000  Uiso   1.00
H536   H     0.44285   0.26263   0.92814   0.00000  Uiso   1.00
H537   H     0.53732   0.11242   0.48621   0.00000  Uiso   1.00
H538   H     0.58957   0.15019   0.40456   0.00000  Uiso   1.00
H539   H     0.53477   0.02191   0.55617   0.00000  Uiso   1.00
H540   H     0.48656   0.16117   0.45563   0.00000  Uiso   1.00
H541   H     0.64917   0.19828   0.38072   0.00000  Uiso   1.00
H542   H     0.53359   0.92781   0.70040   0.00000  Uiso   1.00
H543   H     0.43194   0.22146   0.48838   0.00000  Uiso   1.00
O544   O     0.68924   0.24456   0.55617   0.00000  Uiso   1.00
O545   O     0.53760   0.88973   0.97557   0.00000  Uiso   1.00
O546   O     0.40423   0.27499   0.69742   0.00000  Uiso   1.00
N547   N     0.65034   0.22459   0.72818   0.00000  Uiso   1.00
N548   N     0.54229   0.97172   0.02705   0.00000  Uiso   1.00
N549   N     0.44724   0.24624   0.82886   0.00000  Uiso   1.00
N550   N     0.64447   0.20243   0.49155   0.00000  Uiso   1.00
N551   N     0.53642   0.94956   0.79042   0.00000  Uiso   1.00
N552   N     0.44137   0.22409   0.59222   0.00000  Uiso   1.00
C553   C     0.45286   0.85051   0.88216   0.00000  Uiso   1.00
C554   C     0.42585   0.83522   0.78189   0.00000  Uiso   1.00
C555   C     0.39988   0.81003   0.82940   0.00000  Uiso   1.00
C556   C     0.37775   0.79948   0.72028   0.00000  Uiso   1.00
C557   C     0.33525   0.77361   0.58760   0.00000  Uiso   1.00
C558   C     0.45563   0.90492   0.86426   0.00000  Uiso   1.00
C559   C     0.45469   0.93832   0.98103   0.00000  Uiso   1.00
C560   C     0.45763   0.98644   0.94125   0.00000  Uiso   1.00
C561   C     0.46137   0.06877   0.93646   0.00000  Uiso   1.00
C562   C     0.48182   0.82925   0.80963   0.00000  Uiso   1.00
C563   C     0.50291   0.79905   0.88048   0.00000  Uiso   1.00
C564   C     0.52791   0.78347   0.79471   0.00000  Uiso   1.00
C565   C     0.57232   0.74832   0.70510   0.00000  Uiso   1.00
C566   C     0.45976   0.87656   0.60389   0.00000  Uiso   1.00
C567   C     0.42960   0.84937   0.63074   0.00000  Uiso   1.00
C568   C     0.40752   0.83886   0.52152   0.00000  Uiso   1.00
C569   C     0.38151   0.81366   0.56886   0.00000  Uiso   1.00
C570   C     0.45938   0.91907   0.71312   0.00000  Uiso   1.00
C571   C     0.46233   0.96715   0.67315   0.00000  Uiso   1.00
C572   C     0.46139   0.00062   0.78983   0.00000  Uiso   1.00
C573   C     0.48557   0.84340   0.65848   0.00000  Uiso   1.00
C574   C     0.51055   0.82787   0.57260   0.00000  Uiso   1.00
C575   C     0.53167   0.79765   0.64329   0.00000  Uiso   1.00
H576   H     0.44993   0.83950   0.99984   0.00000  Uiso   1.00
H577   H     0.39698   0.79909   0.94639   0.00000  Uiso   1.00
H578   H     0.45179   0.92736   0.09799   0.00000  Uiso   1.00
H579   H     0.50000   0.78811   0.99745   0.00000  Uiso   1.00
H580   H     0.33992   0.76055   0.82048   0.00000  Uiso   1.00
H581   H     0.45549   0.03102   0.14015   0.00000  Uiso   1.00
H582   H     0.55715   0.73737   0.92814   0.00000  Uiso   1.00
H583   H     0.46268   0.88758   0.48621   0.00000  Uiso   1.00
H584   H     0.41043   0.84981   0.40456   0.00000  Uiso   1.00
H585   H     0.46523   0.97809   0.55617   0.00000  Uiso   1.00
H586   H     0.51344   0.83883   0.45563   0.00000  Uiso   1.00
H587   H     0.35083   0.80172   0.38072   0.00000  Uiso   1.00
H588   H     0.46641   0.07219   0.70040   0.00000  Uiso   1.00
H589   H     0.56806   0.77854   0.48838   0.00000  Uiso   1.00
O590   O     0.31076   0.75544   0.55617   0.00000  Uiso   1.00
O591   O     0.46240   0.11027   0.97557   0.00000  Uiso   1.00
O592   O     0.59577   0.72501   0.69742   0.00000  Uiso   1.00
N593   N     0.34966   0.77541   0.72818   0.00000  Uiso   1.00
N594   N     0.45771   0.02828   0.02705   0.00000  Uiso   1.00
N595   N     0.55276   0.75376   0.82886   0.00000  Uiso   1.00
N596   N     0.35553   0.79757   0.49155   0.00000  Uiso   1.00
N597   N     0.46358   0.05044   0.79042   0.00000  Uiso   1.00
N598   N     0.55863   0.77591   0.59222   0.00000  Uiso   1.00
C599   C     0.45286   0.35051   0.38216   0.00000  Uiso   1.00
C600   C     0.42585   0.33522   0.28189   0.00000  Uiso   1.00
C601   C     0.39988   0.31003   0.32940   0.00000  Uiso   1.00
C602   C     0.37775   0.29948   0.22028   0.00000  Uiso   1.00
C603   C     0.33525   0.27361   0.08760   0.00000  Uiso   1.00
C604   C     0.45563   0.40492   0.36426   0.00000  Uiso   1.00
C605   C     0.45469   0.43832   0.48103   0.00000  Uiso   1.00
C606   C     0.45763   0.48644   0.44125   0.00000  Uiso   1.00
C607   C     0.46137   0.56877   0.43646   0.00000  Uiso   1.00
C608   C     0.48182   0.32925   0.30963   0.00000  Uiso   1.00
C609   C     0.50291   0.29905   0.38048   0.00000  Uiso   1.00
C610   C     0.52791   0.28347   0.29471   0.00000  Uiso   1.00
C611   C     0.57232   0.24832   0.20510   0.00000  Uiso   1.00
C612   C     0.45976   0.37656   0.10389   0.00000  Uiso   1.00
C613   C     0.42960   0.34937   0.13074   0.00000  Uiso   1.00
C614   C     0.40752   0.33886   0.02152   0.00000  Uiso   1.00
C615   C     0.38151   0.31366   0.06886   0.00000  Uiso   1.00
C616   C     0.45938   0.41907   0.21312   0.00000  Uiso   1.00
C617   C     0.46233   0.46715   0.17315   0.00000  Uiso   1.00
C618   C     0.46139   0.50062   0.28983   0.00000  Uiso   1.00
C619   C     0.48557   0.34340   0.15848   0.00000  Uiso   1.00
C620   C     0.51055   0.32787   0.07260   0.00000  Uiso   1.00
C621   C     0.53167   0.29765   0.14329   0.00000  Uiso   1.00
H622   H     0.44993   0.33950   0.49984   0.00000  Uiso   1.00
H623   H     0.39698   0.29909   0.44639   0.00000  Uiso   1.00
H624   H     0.45179   0.42736   0.59799   0.00000  Uiso   1.00
H625   H     0.50000   0.28811   0.49745   0.00000  Uiso   1.00
H626   H     0.33992   0.26055   0.32048   0.00000  Uiso   1.00
H627   H     0.45549   0.53102   0.64015   0.00000  Uiso   1.00
H628   H     0.55715   0.23737   0.42814   0.00000  Uiso   1.00
H629   H     0.46268   0.38758   0.98621   0.00000  Uiso   1.00
H630   H     0.41043   0.34981   0.90456   0.00000  Uiso   1.00
H631   H     0.46523   0.47809   0.05617   0.00000  Uiso   1.00
H632   H     0.51344   0.33883   0.95563   0.00000  Uiso   1.00
H633   H     0.35083   0.30172   0.88072   0.00000  Uiso   1.00
H634   H     0.46641   0.57219   0.20040   0.00000  Uiso   1.00
H635   H     0.56806   0.27854   0.98838   0.00000  Uiso   1.00
O636   O     0.31076   0.25544   0.05617   0.00000  Uiso   1.00
O637   O     0.46240   0.61027   0.47557   0.00000  Uiso   1.00
O638   O     0.59577   0.22501   0.19742   0.00000  Uiso   1.00
N639   N     0.34966   0.27541   0.22818   0.00000  Uiso   1.00
N640   N     0.45771   0.52828   0.52705   0.00000  Uiso   1.00
N641   N     0.55276   0.25376   0.32886   0.00000  Uiso   1.00
N642   N     0.35553   0.29757   0.99155   0.00000  Uiso   1.00
N643   N     0.46358   0.55044   0.29042   0.00000  Uiso   1.00
N644   N     0.55863   0.27591   0.09222   0.00000  Uiso   1.00
C645   C     0.95286   0.85051   0.38216   0.00000  Uiso   1.00
C646   C     0.92585   0.83522   0.28189   0.00000  Uiso   1.00
C647   C     0.89988   0.81003   0.32940   0.00000  Uiso   1.00
C648   C     0.87775   0.79948   0.22028   0.00000  Uiso   1.00
C649   C     0.83525   0.77361   0.08760   0.00000  Uiso   1.00
C650   C     0.95563   0.90492   0.36426   0.00000  Uiso   1.00
C651   C     0.95469   0.93832   0.48103   0.00000  Uiso   1.00
C652   C     0.95763   0.98644   0.44125   0.00000  Uiso   1.00
C653   C     0.96137   0.06877   0.43646   0.00000  Uiso   1.00
C654   C     0.98182   0.82925   0.30963   0.00000  Uiso   1.00
C655   C     0.00291   0.79905   0.38048   0.00000  Uiso   1.00
C656   C     0.02791   0.78347   0.29471   0.00000  Uiso   1.00
C657   C     0.07232   0.74832   0.20510   0.00000  Uiso   1.00
C658   C     0.95976   0.87656   0.10389   0.00000  Uiso   1.00
C659   C     0.92960   0.84937   0.13074   0.00000  Uiso   1.00
C660   C     0.90752   0.83886   0.02152   0.00000  Uiso   1.00
C661   C     0.88151   0.81366   0.06886   0.00000  Uiso   1.00
C662   C     0.95938   0.91907   0.21312   0.00000  Uiso   1.00
C663   C     0.96233   0.96715   0.17315   0.00000  Uiso   1.00
C664   C     0.96139   0.00062   0.28983   0.00000  Uiso   1.00
C665   C     0.98557   0.84340   0.15848   0.00000  Uiso   1.00
C666   C     0.01055   0.82787   0.07260   0.00000  Uiso   1.00
C667   C     0.03167   0.79765   0.14329   0.00000  Uiso   1.00
H668   H     0.94993   0.83950   0.49984   0.00000  Uiso   1.00
H669   H     0.89698   0.79909   0.44639   0.00000  Uiso   1.00
H670   H     0.95179   0.92736   0.59799   0.00000  Uiso   1.00
H671   H    -0.00000   0.78811   0.49745   0.00000  Uiso   1.00
H672   H     0.83992   0.76055   0.32048   0.00000  Uiso   1.00
H673   H     0.95549   0.03102   0.64015   0.00000  Uiso   1.00
H674   H     0.05715   0.73737   0.42814   0.00000  Uiso   1.00
H675   H     0.96268   0.88758   0.98621   0.00000  Uiso   1.00
H676   H     0.91043   0.84981   0.90456   0.00000  Uiso   1.00
H677   H     0.96523   0.97809   0.05617   0.00000  Uiso   1.00
H678   H     0.01344   0.83883   0.95563   0.00000  Uiso   1.00
H679   H     0.85083   0.80172   0.88072   0.00000  Uiso   1.00
H680   H     0.96641   0.07219   0.20040   0.00000  Uiso   1.00
H681   H     0.06806   0.77854   0.98838   0.00000  Uiso   1.00
O682   O     0.81076   0.75544   0.05617   0.00000  Uiso   1.00
O683   O     0.96240   0.11027   0.47557   0.00000  Uiso   1.00
O684   O     0.09577   0.72501   0.19742   0.00000  Uiso   1.00
N685   N     0.84966   0.77541   0.22818   0.00000  Uiso   1.00
N686   N     0.95771   0.02828   0.52705   0.00000  Uiso   1.00
N687   N     0.05276   0.75376   0.32886   0.00000  Uiso   1.00
N688   N     0.85553   0.79757   0.99155   0.00000  Uiso   1.00
N689   N     0.96358   0.05044   0.29042   0.00000  Uiso   1.00
N690   N     0.05863   0.77591   0.09222   0.00000  Uiso   1.00
C691   C     0.95286   0.35051   0.88216   0.00000  Uiso   1.00
C692   C     0.92585   0.33522   0.78189   0.00000  Uiso   1.00
C693   C     0.89988   0.31003   0.82940   0.00000  Uiso   1.00
C694   C     0.87775   0.29948   0.72028   0.00000  Uiso   1.00
C695   C     0.83525   0.27361   0.58760   0.00000  Uiso   1.00
C696   C     0.95563   0.40492   0.86426   0.00000  Uiso   1.00
C697   C     0.95469   0.43832   0.98103   0.00000  Uiso   1.00
C698   C     0.95763   0.48644   0.94125   0.00000  Uiso   1.00
C699   C     0.96137   0.56877   0.93646   0.00000  Uiso   1.00
C700   C     0.98182   0.32925   0.80963   0.00000  Uiso   1.00
C701   C     0.00291   0.29905   0.88048   0.00000  Uiso   1.00
C702   C     0.02791   0.28347   0.79471   0.00000  Uiso   1.00
C703   C     0.07232   0.24832   0.70510   0.00000  Uiso   1.00
C704   C     0.95976   0.37656   0.60389   0.00000  Uiso   1.00
C705   C     0.92960   0.34937   0.63074   0.00000  Uiso   1.00
C706   C     0.90752   0.33886   0.52152   0.00000  Uiso   1.00
C707   C     0.88151   0.31366   0.56886   0.00000  Uiso   1.00
C708   C     0.95938   0.41907   0.71312   0.00000  Uiso   1.00
C709   C     0.96233   0.46715   0.67315   0.00000  Uiso   1.00
C710   C     0.96139   0.50062   0.78983   0.00000  Uiso   1.00
C711   C     0.98557   0.34340   0.65848   0.00000  Uiso   1.00
C712   C     0.01055   0.32787   0.57260   0.00000  Uiso   1.00
C713   C     0.03167   0.29765   0.64329   0.00000  Uiso   1.00
H714   H     0.94993   0.33950   0.99984   0.00000  Uiso   1.00
H715   H     0.89698   0.29909   0.94639   0.00000  Uiso   1.00
H716   H     0.95179   0.42736   0.09799   0.00000  Uiso   1.00
H717   H    -0.00000   0.28811   0.99745   0.00000  Uiso   1.00
H718   H     0.83992   0.26055   0.82048   0.00000  Uiso   1.00
H719   H     0.95549   0.53102   0.14015   0.00000  Uiso   1.00
H720   H     0.05715   0.23737   0.92814   0.00000  Uiso   1.00
H721   H     0.96268   0.38758   0.48621   0.00000  Uiso   1.00
H722   H     0.91043   0.34981   0.40456   0.00000  Uiso   1.00
H723   H     0.96523   0.47809   0.55617   0.00000  Uiso   1.00
H724   H     0.01344   0.33883   0.45563   0.00000  Uiso   1.00
H725   H     0.85083   0.30172   0.38072   0.00000  Uiso   1.00
H726   H     0.96641   0.57219   0.70040   0.00000  Uiso   1.00
H727   H     0.06806   0.27854   0.48838   0.00000  Uiso   1.00
O728   O     0.81076   0.25544   0.55617   0.00000  Uiso   1.00
O729   O     0.96240   0.61027   0.97557   0.00000  Uiso   1.00
O730   O     0.09577   0.22501   0.69742   0.00000  Uiso   1.00
N731   N     0.84966   0.27541   0.72818   0.00000  Uiso   1.00
N732   N     0.95771   0.52828   0.02705   0.00000  Uiso   1.00
N733   N     0.05276   0.25376   0.82886   0.00000  Uiso   1.00
N734   N     0.85553   0.29757   0.49155   0.00000  Uiso   1.00
N735   N     0.96358   0.55044   0.79042   0.00000  Uiso   1.00
N736   N     0.05863   0.27591   0.59222   0.00000  Uiso   1.00
