data_job_06827
_audit_creation_date              2018-12-19
_audit_creation_method            'Materials Studio'
_symmetry_space_group_name_H-M    'P1'
_symmetry_Int_Tables_number       1
_symmetry_cell_setting            triclinic
loop_
_symmetry_equiv_pos_as_xyz
  x,y,z
_cell_length_a                    19.7108
_cell_length_b                    51.0416
_cell_length_c                    30.1822
_cell_angle_alpha                 90.0000
_cell_angle_beta                  126.5891
_cell_angle_gamma                 90.0000
loop_
_atom_site_label
_atom_site_type_symbol
_atom_site_fract_x
_atom_site_fract_y
_atom_site_fract_z
_atom_site_U_iso_or_equiv
_atom_site_adp_type
_atom_site_occupancy
C1     C     0.66267   0.12571   0.41193   0.00000  Uiso   1.00
C2     C     0.63056   0.10033   0.42009   0.00000  Uiso   1.00
C3     C     0.55785   0.09768   0.41708   0.00000  Uiso   1.00
C4     C     0.53940   0.07281   0.42581   0.00000  Uiso   1.00
C5     C     0.48159   0.03666   0.43678   0.00000  Uiso   1.00
C6     C     0.75235   0.12946   0.46420   0.00000  Uiso   1.00
C7     C     0.78203   0.15130   0.49828   0.00000  Uiso   1.00
C8     C     0.86610   0.15095   0.54413   0.00000  Uiso   1.00
C9     C     0.99738   0.16003   0.62356   0.00000  Uiso   1.00
C10    C     0.67126   0.12031   0.36579   0.00000  Uiso   1.00
C11    C     0.63278   0.13446   0.31713   0.00000  Uiso   1.00
C12    C     0.64860   0.12641   0.28014   0.00000  Uiso   1.00
C13    C     0.65398   0.12128   0.20678   0.00000  Uiso   1.00
C14    C     0.75921   0.08625   0.43277   0.00000  Uiso   1.00
C15    C     0.68300   0.07889   0.43141   0.00000  Uiso   1.00
C16    C     0.66466   0.05402   0.44013   0.00000  Uiso   1.00
C17    C     0.59192   0.05133   0.43714   0.00000  Uiso   1.00
C18    C     0.80479   0.10802   0.47552   0.00000  Uiso   1.00
C19    C     0.88884   0.10764   0.52133   0.00000  Uiso   1.00
C20    C     0.91863   0.12948   0.55547   0.00000  Uiso   1.00
C21    C     0.72370   0.09887   0.37711   0.00000  Uiso   1.00
C22    C     0.73959   0.09079   0.34019   0.00000  Uiso   1.00
C23    C     0.70114   0.10493   0.29148   0.00000  Uiso   1.00
H24    H     0.62185   0.14240   0.40312   0.00000  Uiso   1.00
H25    H     0.51729   0.11428   0.40833   0.00000  Uiso   1.00
H26    H     0.74144   0.16789   0.48951   0.00000  Uiso   1.00
H27    H     0.59221   0.15105   0.30839   0.00000  Uiso   1.00
H28    H     0.42450   0.07364   0.41911   0.00000  Uiso   1.00
H29    H     0.89714   0.18669   0.59027   0.00000  Uiso   1.00
H30    H     0.58246   0.15118   0.20835   0.00000  Uiso   1.00
H31    H     0.80004   0.06956   0.44158   0.00000  Uiso   1.00
H32    H     0.70525   0.03743   0.44889   0.00000  Uiso   1.00
H33    H     0.92940   0.09105   0.53007   0.00000  Uiso   1.00
H34    H     0.78017   0.07420   0.34896   0.00000  Uiso   1.00
H35    H     0.57706   0.01127   0.45204   0.00000  Uiso   1.00
H36    H     0.04970   0.12432   0.62319   0.00000  Uiso   1.00
H37    H     0.73502   0.08881   0.24128   0.00000  Uiso   1.00
O38    O     0.43522   0.02264   0.43971   0.00000  Uiso   1.00
O39    O     0.05531   0.17096   0.66425   0.00000  Uiso   1.00
O40    O     0.64246   0.12437   0.16319   0.00000  Uiso   1.00
N41    N     0.47340   0.06337   0.42585   0.00000  Uiso   1.00
N42    N     0.91529   0.16907   0.58587   0.00000  Uiso   1.00
N43    N     0.62111   0.13587   0.22882   0.00000  Uiso   1.00
N44    N     0.55549   0.02981   0.44356   0.00000  Uiso   1.00
N45    N     0.99738   0.13550   0.60359   0.00000  Uiso   1.00
N46    N     0.70320   0.10231   0.24653   0.00000  Uiso   1.00
C47    C     0.92853   0.29704   0.38156   0.00000  Uiso   1.00
C48    C     0.00627   0.29124   0.38363   0.00000  Uiso   1.00
C49    C     0.02438   0.26754   0.37023   0.00000  Uiso   1.00
C50    C     0.09868   0.26618   0.37481   0.00000  Uiso   1.00
C51    C     0.21116   0.25388   0.37540   0.00000  Uiso   1.00
C52    C     0.96178   0.30639   0.43921   0.00000  Uiso   1.00
C53    C     0.94248   0.29544   0.47255   0.00000  Uiso   1.00
C54    C     0.97933   0.30684   0.52392   0.00000  Uiso   1.00
C55    C     0.02270   0.31808   0.61079   0.00000  Uiso   1.00
C56    C     0.88592   0.32071   0.34376   0.00000  Uiso   1.00
C57    C     0.80282   0.32181   0.29684   0.00000  Uiso   1.00
C58    C     0.77580   0.34527   0.26785   0.00000  Uiso   1.00
C59    C     0.20138   0.87875   0.20651   0.00000  Uiso   1.00
C60    C     0.02829   0.33677   0.41352   0.00000  Uiso   1.00
C61    C     0.06045   0.31281   0.40098   0.00000  Uiso   1.00
C62    C     0.13475   0.31149   0.40559   0.00000  Uiso   1.00
C63    C     0.15296   0.28780   0.39220   0.00000  Uiso   1.00
C64    C     0.01597   0.32797   0.45657   0.00000  Uiso   1.00
C65    C     0.05285   0.33939   0.50790   0.00000  Uiso   1.00
C66    C     0.03362   0.32845   0.54131   0.00000  Uiso   1.00
C67    C     0.94011   0.34229   0.36111   0.00000  Uiso   1.00
C68    C     0.91320   0.36576   0.33219   0.00000  Uiso   1.00
C69    C     0.83008   0.36689   0.28524   0.00000  Uiso   1.00
H70    H     0.88635   0.28024   0.36805   0.00000  Uiso   1.00
H71    H     0.98243   0.25084   0.35681   0.00000  Uiso   1.00
H72    H     0.90054   0.27874   0.45910   0.00000  Uiso   1.00
H73    H     0.76091   0.30510   0.28342   0.00000  Uiso   1.00
H74    H     0.11286   0.22776   0.35201   0.00000  Uiso   1.00
H75    H     0.94017   0.28659   0.56770   0.00000  Uiso   1.00
H76    H     0.64573   0.34219   0.19724   0.00000  Uiso   1.00
H77    H     0.07048   0.35357   0.42703   0.00000  Uiso   1.00
H78    H     0.17667   0.32819   0.41902   0.00000  Uiso   1.00
H79    H     0.09478   0.35609   0.52132   0.00000  Uiso   1.00
H80    H     0.95515   0.38245   0.34564   0.00000  Uiso   1.00
H81    H     0.27052   0.29055   0.40251   0.00000  Uiso   1.00
H82    H     0.09782   0.34937   0.61820   0.00000  Uiso   1.00
H83    H     0.30339   0.90497   0.24774   0.00000  Uiso   1.00
O84    O     0.25824   0.24114   0.37094   0.00000  Uiso   1.00
O85    O     0.03166   0.31832   0.65392   0.00000  Uiso   1.00
O86    O     0.14536   0.89126   0.16788   0.00000  Uiso   1.00
N87    N     0.13539   0.24602   0.36498   0.00000  Uiso   1.00
N88    N     0.97394   0.30102   0.56665   0.00000  Uiso   1.00
N89    N     0.69866   0.35300   0.22030   0.00000  Uiso   1.00
N90    N     0.22022   0.27981   0.39216   0.00000  Uiso   1.00
N91    N     0.05877   0.33480   0.59382   0.00000  Uiso   1.00
N92    N     0.28349   0.88678   0.24748   0.00000  Uiso   1.00
C93    C     0.62755   0.32502   0.47220   0.00000  Uiso   1.00
C94    C     0.58433   0.34769   0.47922   0.00000  Uiso   1.00
C95    C     0.58425   0.37364   0.46547   0.00000  Uiso   1.00
C96    C     0.54108   0.39144   0.47507   0.00000  Uiso   1.00
C97    C     0.48033   0.42786   0.48256   0.00000  Uiso   1.00
C98    C     0.68713   0.31265   0.52915   0.00000  Uiso   1.00
C99    C     0.77348   0.30914   0.55737   0.00000  Uiso   1.00
C100   C     0.81684   0.29744   0.60901   0.00000  Uiso   1.00
C101   C     0.91567   0.27943   0.69400   0.00000  Uiso   1.00
C102   C     0.55876   0.30475   0.43669   0.00000  Uiso   1.00
C103   C     0.53719   0.29458   0.38717   0.00000  Uiso   1.00
C104   C     0.47249   0.27622   0.36096   0.00000  Uiso   1.00
C105   C     0.37201   0.24593   0.30240   0.00000  Uiso   1.00
C106   C     0.55103   0.31048   0.51371   0.00000  Uiso   1.00
C107   C     0.54277   0.33980   0.50177   0.00000  Uiso   1.00
C108   C     0.49958   0.35757   0.51139   0.00000  Uiso   1.00
C109   C     0.49944   0.38354   0.49765   0.00000  Uiso   1.00
C110   C     0.64557   0.30476   0.55170   0.00000  Uiso   1.00
C111   C     0.68881   0.29306   0.60330   0.00000  Uiso   1.00
C112   C     0.77520   0.28953   0.63160   0.00000  Uiso   1.00
C113   C     0.51720   0.29685   0.45923   0.00000  Uiso   1.00
C114   C     0.45252   0.27850   0.43310   0.00000  Uiso   1.00
C115   C     0.43085   0.26831   0.38355   0.00000  Uiso   1.00
H116   H     0.65992   0.33116   0.45465   0.00000  Uiso   1.00
H117   H     0.61643   0.37974   0.44802   0.00000  Uiso   1.00
H118   H     0.80562   0.31524   0.53991   0.00000  Uiso   1.00
H119   H     0.56937   0.30069   0.36974   0.00000  Uiso   1.00
H120   H     0.54991   0.43013   0.45063   0.00000  Uiso   1.00
H121   H     0.94883   0.29412   0.64438   0.00000  Uiso   1.00
H122   H     0.45065   0.26343   0.28554   0.00000  Uiso   1.00
H123   H     0.51867   0.30434   0.53127   0.00000  Uiso   1.00
H124   H     0.46743   0.35145   0.52884   0.00000  Uiso   1.00
H125   H     0.65663   0.28695   0.62073   0.00000  Uiso   1.00
H126   H     0.42037   0.27240   0.45056   0.00000  Uiso   1.00
H127   H     0.42898   0.40717   0.51623   0.00000  Uiso   1.00
H128   H     0.82790   0.27116   0.70998   0.00000  Uiso   1.00
H129   H     0.32971   0.24046   0.35113   0.00000  Uiso   1.00
O130   O     0.45831   0.45012   0.48047   0.00000  Uiso   1.00
O131   O     0.98168   0.27168   0.73466   0.00000  Uiso   1.00
O132   O     0.32807   0.23142   0.26386   0.00000  Uiso   1.00
N133   N     0.52847   0.41826   0.46640   0.00000  Uiso   1.00
N134   N     0.90144   0.29110   0.64754   0.00000  Uiso   1.00
N135   N     0.43569   0.26240   0.31206   0.00000  Uiso   1.00
N136   N     0.46339   0.40590   0.50169   0.00000  Uiso   1.00
N137   N     0.83637   0.27875   0.68284   0.00000  Uiso   1.00
N138   N     0.37062   0.25004   0.34736   0.00000  Uiso   1.00
C139   C     0.83829   0.38016   0.48316   0.00000  Uiso   1.00
C140   C     0.87752   0.40469   0.47822   0.00000  Uiso   1.00
C141   C     0.95555   0.40603   0.48774   0.00000  Uiso   1.00
C142   C     0.98013   0.43029   0.48100   0.00000  Uiso   1.00
C143   C     0.04888   0.46502   0.47569   0.00000  Uiso   1.00
C144   C     0.75265   0.37681   0.42738   0.00000  Uiso   1.00
C145   C     0.72569   0.35470   0.39416   0.00000  Uiso   1.00
C146   C     0.64515   0.35550   0.34463   0.00000  Uiso   1.00
C147   C     0.52002   0.34692   0.26040   0.00000  Uiso   1.00
C148   C     0.81951   0.38690   0.52408   0.00000  Uiso   1.00
C149   C     0.84875   0.37326   0.57217   0.00000  Uiso   1.00
C150   C     0.82448   0.38254   0.60405   0.00000  Uiso   1.00
C151   C     0.80316   0.38962   0.66997   0.00000  Uiso   1.00
C152   C     0.74317   0.42089   0.45426   0.00000  Uiso   1.00
C153   C     0.82585   0.42682   0.46252   0.00000  Uiso   1.00
C154   C     0.85032   0.45109   0.45576   0.00000  Uiso   1.00
C155   C     0.92837   0.45246   0.46528   0.00000  Uiso   1.00
C156   C     0.70099   0.39893   0.41168   0.00000  Uiso   1.00
C157   C     0.62046   0.39976   0.36218   0.00000  Uiso   1.00
C158   C     0.59339   0.37766   0.32890   0.00000  Uiso   1.00
C159   C     0.76785   0.40902   0.50838   0.00000  Uiso   1.00
C160   C     0.74352   0.41832   0.54019   0.00000  Uiso   1.00
C161   C     0.77272   0.40470   0.58832   0.00000  Uiso   1.00
H162   H     0.87851   0.36294   0.49538   0.00000  Uiso   1.00
H163   H     0.99552   0.38890   0.49989   0.00000  Uiso   1.00
H164   H     0.76569   0.33758   0.40632   0.00000  Uiso   1.00
H165   H     0.88873   0.35614   0.58431   0.00000  Uiso   1.00
H166   H     0.10244   0.42744   0.49794   0.00000  Uiso   1.00
H167   H     0.61783   0.31923   0.30066   0.00000  Uiso   1.00
H168   H     0.87729   0.35835   0.67597   0.00000  Uiso   1.00
H169   H     0.70294   0.43811   0.44204   0.00000  Uiso   1.00
H170   H     0.31032   0.96820   0.44361   0.00000  Uiso   1.00
H171   H     0.58049   0.41688   0.35005   0.00000  Uiso   1.00
H172   H     0.70354   0.43544   0.52803   0.00000  Uiso   1.00
H173   H     0.45213   0.99180   0.45226   0.00000  Uiso   1.00
H174   H     0.96751   0.88359   0.25499   0.00000  Uiso   1.00
H175   H     0.72697   0.42272   0.63030   0.00000  Uiso   1.00
O176   O     0.10107   0.47806   0.47708   0.00000  Uiso   1.00
O177   O     0.46527   0.33608   0.21827   0.00000  Uiso   1.00
O178   O     0.80568   0.38742   0.71067   0.00000  Uiso   1.00
N179   N     0.05234   0.43846   0.48698   0.00000  Uiso   1.00
N180   N     0.59925   0.33729   0.30254   0.00000  Uiso   1.00
N181   N     0.84181   0.37387   0.65341   0.00000  Uiso   1.00
N182   N     0.97145   0.47309   0.46240   0.00000  Uiso   1.00
N183   N     0.51837   0.37192   0.27796   0.00000  Uiso   1.00
N184   N     0.76093   0.40850   0.62884   0.00000  Uiso   1.00
C185   C     0.57631   0.19613   0.50167   0.00000  Uiso   1.00
C186   C     0.50681   0.20421   0.50683   0.00000  Uiso   1.00
C187   C     0.49660   0.22895   0.52117   0.00000  Uiso   1.00
C188   C     0.42904   0.23239   0.52363   0.00000  Uiso   1.00
C189   C     0.32952   0.24807   0.53337   0.00000  Uiso   1.00
C190   C     0.53137   0.18538   0.44335   0.00000  Uiso   1.00
C191   C     0.54181   0.19428   0.40431   0.00000  Uiso   1.00
C192   C     0.49494   0.18186   0.35334   0.00000  Uiso   1.00
C193   C     0.43358   0.16829   0.26453   0.00000  Uiso   1.00
C194   C     0.62097   0.17285   0.54035   0.00000  Uiso   1.00
C195   C     0.70676   0.17121   0.58286   0.00000  Uiso   1.00
C196   C     0.73533   0.14824   0.61354   0.00000  Uiso   1.00
C197   C     0.81310   0.11521   0.67534   0.00000  Uiso   1.00
C198   C     0.47450   0.15825   0.48056   0.00000  Uiso   1.00
C199   C     0.45152   0.18364   0.49537   0.00000  Uiso   1.00
C200   C     0.38396   0.18704   0.49781   0.00000  Uiso   1.00
C201   C     0.37365   0.21178   0.51215   0.00000  Uiso   1.00
C202   C     0.47607   0.16480   0.43188   0.00000  Uiso   1.00
C203   C     0.42918   0.15237   0.38096   0.00000  Uiso   1.00
C204   C     0.43954   0.16125   0.34185   0.00000  Uiso   1.00
C205   C     0.56568   0.15227   0.52888   0.00000  Uiso   1.00
C206   C     0.59412   0.12930   0.55951   0.00000  Uiso   1.00
C207   C     0.67993   0.12763   0.60206   0.00000  Uiso   1.00
H208   H     0.61936   0.21215   0.51059   0.00000  Uiso   1.00
H209   H     0.53940   0.24487   0.53003   0.00000  Uiso   1.00
H210   H     0.58462   0.21020   0.41320   0.00000  Uiso   1.00
H211   H     0.74953   0.18714   0.59172   0.00000  Uiso   1.00
H212   H     0.42635   0.27207   0.54651   0.00000  Uiso   1.00
H213   H     0.52171   0.19897   0.30017   0.00000  Uiso   1.00
H214   H     0.86947   0.15033   0.67661   0.00000  Uiso   1.00
H215   H     0.43145   0.14223   0.47163   0.00000  Uiso   1.00
H216   H     0.34118   0.17111   0.48894   0.00000  Uiso   1.00
H217   H     0.38639   0.13644   0.37210   0.00000  Uiso   1.00
H218   H     0.55131   0.11338   0.55062   0.00000  Uiso   1.00
H219   H     0.26546   0.21221   0.51316   0.00000  Uiso   1.00
H220   H     0.36082   0.13910   0.26681   0.00000  Uiso   1.00
H221   H     0.70858   0.09046   0.64325   0.00000  Uiso   1.00
O222   O     0.28989   0.26240   0.54190   0.00000  Uiso   1.00
O223   O     0.41501   0.16649   0.21871   0.00000  Uiso   1.00
O224   O     0.87127   0.10268   0.71260   0.00000  Uiso   1.00
N225   N     0.40088   0.25402   0.53630   0.00000  Uiso   1.00
N226   N     0.49003   0.18567   0.30597   0.00000  Uiso   1.00
N227   N     0.81516   0.14020   0.65791   0.00000  Uiso   1.00
N228   N     0.31431   0.22180   0.51835   0.00000  Uiso   1.00
N229   N     0.40345   0.15346   0.28803   0.00000  Uiso   1.00
N230   N     0.72859   0.10798   0.63996   0.00000  Uiso   1.00
C231   C     0.88799   0.18038   0.41758   0.00000  Uiso   1.00
C232   C     0.92304   0.15586   0.40897   0.00000  Uiso   1.00
C233   C     0.91338   0.13037   0.42039   0.00000  Uiso   1.00
C234   C     0.95020   0.11064   0.40964   0.00000  Uiso   1.00
C235   C     0.99776   0.07171   0.39950   0.00000  Uiso   1.00
C236   C     0.83391   0.19406   0.36169   0.00000  Uiso   1.00
C237   C     0.74932   0.20069   0.33336   0.00000  Uiso   1.00
C238   C     0.71112   0.21311   0.28281   0.00000  Uiso   1.00
C239   C     0.62033   0.23351   0.19928   0.00000  Uiso   1.00
C240   C     0.96361   0.19827   0.45506   0.00000  Uiso   1.00
C241   C     0.98806   0.20846   0.50524   0.00000  Uiso   1.00
C242   C     0.05905   0.22444   0.53329   0.00000  Uiso   1.00
C243   C     0.16962   0.25138   0.59475   0.00000  Uiso   1.00
C244   C     0.97057   0.19066   0.37816   0.00000  Uiso   1.00
C245   C     0.96789   0.16144   0.38756   0.00000  Uiso   1.00
C246   C     0.00474   0.14174   0.37678   0.00000  Uiso   1.00
C247   C     0.99514   0.11623   0.38819   0.00000  Uiso   1.00
C248   C     0.87876   0.19964   0.34028   0.00000  Uiso   1.00
C249   C     0.84068   0.21206   0.28976   0.00000  Uiso   1.00
C250   C     0.75605   0.21871   0.26136   0.00000  Uiso   1.00
C251   C     0.00846   0.20386   0.43365   0.00000  Uiso   1.00
C252   C     0.07942   0.21983   0.46163   0.00000  Uiso   1.00
C253   C     0.10398   0.23004   0.51185   0.00000  Uiso   1.00
H254   H     0.85307   0.17603   0.43424   0.00000  Uiso   1.00
H255   H     0.87866   0.12606   0.43695   0.00000  Uiso   1.00
H256   H     0.71463   0.19637   0.34994   0.00000  Uiso   1.00
H257   H     0.95334   0.20413   0.52179   0.00000  Uiso   1.00
H258   H     0.92678   0.07311   0.43050   0.00000  Uiso   1.00
H259   H     0.58093   0.22137   0.24704   0.00000  Uiso   1.00
H260   H     0.08428   0.23775   0.60942   0.00000  Uiso   1.00
H261   H     0.00548   0.19501   0.36149   0.00000  Uiso   1.00
H262   H     0.03944   0.14607   0.36022   0.00000  Uiso   1.00
H263   H     0.87541   0.21638   0.27320   0.00000  Uiso   1.00
H264   H     0.11411   0.22415   0.44505   0.00000  Uiso   1.00
H265   H     0.05727   0.08935   0.36822   0.00000  Uiso   1.00
H266   H     0.71142   0.23761   0.18476   0.00000  Uiso   1.00
H267   H     0.21477   0.25399   0.54714   0.00000  Uiso   1.00
O268   O     0.01159   0.04869   0.39981   0.00000  Uiso   1.00
O269   O     0.55785   0.24321   0.15913   0.00000  Uiso   1.00
O270   O     0.21823   0.26470   0.63456   0.00000  Uiso   1.00
N271   N     0.95285   0.08365   0.41603   0.00000  Uiso   1.00
N272   N     0.62949   0.22226   0.24450   0.00000  Uiso   1.00
N273   N     0.10007   0.23758   0.58329   0.00000  Uiso   1.00
N274   N     0.02307   0.09239   0.38251   0.00000  Uiso   1.00
N275   N     0.69971   0.23100   0.21098   0.00000  Uiso   1.00
N276   N     0.17029   0.24632   0.54977   0.00000  Uiso   1.00
C277   C     0.16267   0.62571   0.41193   0.00000  Uiso   1.00
C278   C     0.13056   0.60033   0.42009   0.00000  Uiso   1.00
C279   C     0.05785   0.59768   0.41708   0.00000  Uiso   1.00
C280   C     0.03940   0.57281   0.42581   0.00000  Uiso   1.00
C281   C     0.98159   0.53666   0.43678   0.00000  Uiso   1.00
C282   C     0.25235   0.62946   0.46420   0.00000  Uiso   1.00
C283   C     0.28203   0.65130   0.49828   0.00000  Uiso   1.00
C284   C     0.36610   0.65095   0.54413   0.00000  Uiso   1.00
C285   C     0.49738   0.66003   0.62356   0.00000  Uiso   1.00
C286   C     0.17126   0.62031   0.36579   0.00000  Uiso   1.00
C287   C     0.13278   0.63446   0.31713   0.00000  Uiso   1.00
C288   C     0.14860   0.62641   0.28014   0.00000  Uiso   1.00
C289   C     0.15398   0.62128   0.20678   0.00000  Uiso   1.00
C290   C     0.25921   0.58625   0.43277   0.00000  Uiso   1.00
C291   C     0.18300   0.57889   0.43141   0.00000  Uiso   1.00
C292   C     0.16466   0.55402   0.44013   0.00000  Uiso   1.00
C293   C     0.09192   0.55133   0.43714   0.00000  Uiso   1.00
C294   C     0.30479   0.60802   0.47552   0.00000  Uiso   1.00
C295   C     0.38884   0.60764   0.52133   0.00000  Uiso   1.00
C296   C     0.41863   0.62948   0.55547   0.00000  Uiso   1.00
C297   C     0.22370   0.59887   0.37711   0.00000  Uiso   1.00
C298   C     0.23959   0.59079   0.34019   0.00000  Uiso   1.00
C299   C     0.20114   0.60493   0.29148   0.00000  Uiso   1.00
H300   H     0.12185   0.64240   0.40312   0.00000  Uiso   1.00
H301   H     0.01729   0.61428   0.40833   0.00000  Uiso   1.00
H302   H     0.24144   0.66789   0.48951   0.00000  Uiso   1.00
H303   H     0.09221   0.65105   0.30839   0.00000  Uiso   1.00
H304   H     0.92450   0.57364   0.41911   0.00000  Uiso   1.00
H305   H     0.39714   0.68669   0.59027   0.00000  Uiso   1.00
H306   H     0.08246   0.65118   0.20835   0.00000  Uiso   1.00
H307   H     0.30004   0.56956   0.44158   0.00000  Uiso   1.00
H308   H     0.20525   0.53743   0.44889   0.00000  Uiso   1.00
H309   H     0.42940   0.59105   0.53007   0.00000  Uiso   1.00
H310   H     0.28017   0.57420   0.34896   0.00000  Uiso   1.00
H311   H     0.07706   0.51127   0.45204   0.00000  Uiso   1.00
H312   H     0.54970   0.62432   0.62319   0.00000  Uiso   1.00
H313   H     0.23502   0.58881   0.24128   0.00000  Uiso   1.00
O314   O     0.93522   0.52264   0.43971   0.00000  Uiso   1.00
O315   O     0.55531   0.67096   0.66425   0.00000  Uiso   1.00
O316   O     0.14246   0.62437   0.16319   0.00000  Uiso   1.00
N317   N     0.97340   0.56337   0.42585   0.00000  Uiso   1.00
N318   N     0.41529   0.66907   0.58587   0.00000  Uiso   1.00
N319   N     0.12111   0.63587   0.22882   0.00000  Uiso   1.00
N320   N     0.05549   0.52981   0.44356   0.00000  Uiso   1.00
N321   N     0.49738   0.63550   0.60359   0.00000  Uiso   1.00
N322   N     0.20320   0.60231   0.24653   0.00000  Uiso   1.00
C323   C     0.42853   0.79704   0.38156   0.00000  Uiso   1.00
C324   C     0.50627   0.79124   0.38363   0.00000  Uiso   1.00
C325   C     0.52438   0.76754   0.37023   0.00000  Uiso   1.00
C326   C     0.59868   0.76618   0.37481   0.00000  Uiso   1.00
C327   C     0.71116   0.75388   0.37540   0.00000  Uiso   1.00
C328   C     0.46178   0.80639   0.43921   0.00000  Uiso   1.00
C329   C     0.44248   0.79544   0.47255   0.00000  Uiso   1.00
C330   C     0.47933   0.80684   0.52392   0.00000  Uiso   1.00
C331   C     0.52270   0.81808   0.61079   0.00000  Uiso   1.00
C332   C     0.38592   0.82071   0.34376   0.00000  Uiso   1.00
C333   C     0.30282   0.82181   0.29684   0.00000  Uiso   1.00
C334   C     0.27580   0.84527   0.26785   0.00000  Uiso   1.00
C335   C     0.70138   0.37875   0.20651   0.00000  Uiso   1.00
C336   C     0.52829   0.83677   0.41352   0.00000  Uiso   1.00
C337   C     0.56045   0.81281   0.40098   0.00000  Uiso   1.00
C338   C     0.63475   0.81149   0.40559   0.00000  Uiso   1.00
C339   C     0.65296   0.78780   0.39220   0.00000  Uiso   1.00
C340   C     0.51597   0.82797   0.45657   0.00000  Uiso   1.00
C341   C     0.55285   0.83939   0.50790   0.00000  Uiso   1.00
C342   C     0.53362   0.82845   0.54131   0.00000  Uiso   1.00
C343   C     0.44011   0.84229   0.36111   0.00000  Uiso   1.00
C344   C     0.41320   0.86576   0.33219   0.00000  Uiso   1.00
C345   C     0.33008   0.86689   0.28524   0.00000  Uiso   1.00
H346   H     0.38635   0.78024   0.36805   0.00000  Uiso   1.00
H347   H     0.48243   0.75084   0.35681   0.00000  Uiso   1.00
H348   H     0.40054   0.77874   0.45910   0.00000  Uiso   1.00
H349   H     0.26091   0.80510   0.28342   0.00000  Uiso   1.00
H350   H     0.61286   0.72776   0.35201   0.00000  Uiso   1.00
H351   H     0.44017   0.78659   0.56770   0.00000  Uiso   1.00
H352   H     0.14573   0.84219   0.19724   0.00000  Uiso   1.00
H353   H     0.57048   0.85357   0.42703   0.00000  Uiso   1.00
H354   H     0.67667   0.82819   0.41902   0.00000  Uiso   1.00
H355   H     0.59478   0.85609   0.52132   0.00000  Uiso   1.00
H356   H     0.45515   0.88245   0.34564   0.00000  Uiso   1.00
H357   H     0.77052   0.79055   0.40251   0.00000  Uiso   1.00
H358   H     0.59782   0.84937   0.61820   0.00000  Uiso   1.00
H359   H     0.80339   0.40497   0.24774   0.00000  Uiso   1.00
O360   O     0.75824   0.74114   0.37094   0.00000  Uiso   1.00
O361   O     0.53166   0.81832   0.65392   0.00000  Uiso   1.00
O362   O     0.64536   0.39126   0.16788   0.00000  Uiso   1.00
N363   N     0.63539   0.74602   0.36498   0.00000  Uiso   1.00
N364   N     0.47394   0.80102   0.56665   0.00000  Uiso   1.00
N365   N     0.19866   0.85300   0.22030   0.00000  Uiso   1.00
N366   N     0.72022   0.77981   0.39216   0.00000  Uiso   1.00
N367   N     0.55877   0.83480   0.59382   0.00000  Uiso   1.00
N368   N     0.78349   0.38678   0.24748   0.00000  Uiso   1.00
C369   C     0.12755   0.82502   0.47220   0.00000  Uiso   1.00
C370   C     0.08433   0.84769   0.47922   0.00000  Uiso   1.00
C371   C     0.08425   0.87364   0.46547   0.00000  Uiso   1.00
C372   C     0.04108   0.89144   0.47507   0.00000  Uiso   1.00
C373   C     0.98033   0.92786   0.48256   0.00000  Uiso   1.00
C374   C     0.18713   0.81265   0.52915   0.00000  Uiso   1.00
C375   C     0.27348   0.80914   0.55737   0.00000  Uiso   1.00
C376   C     0.31684   0.79744   0.60901   0.00000  Uiso   1.00
C377   C     0.41567   0.77943   0.69400   0.00000  Uiso   1.00
C378   C     0.05876   0.80475   0.43669   0.00000  Uiso   1.00
C379   C     0.03719   0.79458   0.38717   0.00000  Uiso   1.00
C380   C     0.97249   0.77622   0.36096   0.00000  Uiso   1.00
C381   C     0.87201   0.74593   0.30240   0.00000  Uiso   1.00
C382   C     0.05103   0.81048   0.51371   0.00000  Uiso   1.00
C383   C     0.04277   0.83980   0.50177   0.00000  Uiso   1.00
C384   C     0.99958   0.85757   0.51139   0.00000  Uiso   1.00
C385   C     0.99944   0.88354   0.49765   0.00000  Uiso   1.00
C386   C     0.14557   0.80476   0.55170   0.00000  Uiso   1.00
C387   C     0.18881   0.79306   0.60330   0.00000  Uiso   1.00
C388   C     0.27520   0.78953   0.63160   0.00000  Uiso   1.00
C389   C     0.01720   0.79685   0.45923   0.00000  Uiso   1.00
C390   C     0.95252   0.77850   0.43310   0.00000  Uiso   1.00
C391   C     0.93085   0.76831   0.38355   0.00000  Uiso   1.00
H392   H     0.15992   0.83116   0.45465   0.00000  Uiso   1.00
H393   H     0.11643   0.87974   0.44802   0.00000  Uiso   1.00
H394   H     0.30562   0.81524   0.53991   0.00000  Uiso   1.00
H395   H     0.06937   0.80069   0.36974   0.00000  Uiso   1.00
H396   H     0.04991   0.93013   0.45063   0.00000  Uiso   1.00
H397   H     0.44883   0.79412   0.64438   0.00000  Uiso   1.00
H398   H     0.95065   0.76343   0.28554   0.00000  Uiso   1.00
H399   H     0.01867   0.80434   0.53127   0.00000  Uiso   1.00
H400   H     0.96743   0.85145   0.52884   0.00000  Uiso   1.00
H401   H     0.15663   0.78695   0.62073   0.00000  Uiso   1.00
H402   H     0.92037   0.77240   0.45056   0.00000  Uiso   1.00
H403   H     0.92898   0.90717   0.51623   0.00000  Uiso   1.00
H404   H     0.32790   0.77116   0.70998   0.00000  Uiso   1.00
H405   H     0.82971   0.74046   0.35113   0.00000  Uiso   1.00
O406   O     0.95831   0.95012   0.48047   0.00000  Uiso   1.00
O407   O     0.48168   0.77168   0.73466   0.00000  Uiso   1.00
O408   O     0.82807   0.73142   0.26386   0.00000  Uiso   1.00
N409   N     0.02847   0.91826   0.46640   0.00000  Uiso   1.00
N410   N     0.40144   0.79110   0.64754   0.00000  Uiso   1.00
N411   N     0.93569   0.76240   0.31206   0.00000  Uiso   1.00
N412   N     0.96339   0.90590   0.50169   0.00000  Uiso   1.00
N413   N     0.33637   0.77875   0.68284   0.00000  Uiso   1.00
N414   N     0.87062   0.75004   0.34736   0.00000  Uiso   1.00
C415   C     0.33829   0.88016   0.48316   0.00000  Uiso   1.00
C416   C     0.37752   0.90469   0.47822   0.00000  Uiso   1.00
C417   C     0.45555   0.90603   0.48774   0.00000  Uiso   1.00
C418   C     0.48013   0.93029   0.48100   0.00000  Uiso   1.00
C419   C     0.54888   0.96502   0.47569   0.00000  Uiso   1.00
C420   C     0.25265   0.87681   0.42738   0.00000  Uiso   1.00
C421   C     0.22569   0.85470   0.39416   0.00000  Uiso   1.00
C422   C     0.14515   0.85550   0.34463   0.00000  Uiso   1.00
C423   C     0.02002   0.84692   0.26040   0.00000  Uiso   1.00
C424   C     0.31951   0.88690   0.52408   0.00000  Uiso   1.00
C425   C     0.34875   0.87326   0.57217   0.00000  Uiso   1.00
C426   C     0.32448   0.88254   0.60405   0.00000  Uiso   1.00
C427   C     0.30316   0.88962   0.66997   0.00000  Uiso   1.00
C428   C     0.24317   0.92089   0.45426   0.00000  Uiso   1.00
C429   C     0.32585   0.92682   0.46252   0.00000  Uiso   1.00
C430   C     0.35032   0.95109   0.45576   0.00000  Uiso   1.00
C431   C     0.42837   0.95246   0.46528   0.00000  Uiso   1.00
C432   C     0.20099   0.89893   0.41168   0.00000  Uiso   1.00
C433   C     0.12046   0.89976   0.36218   0.00000  Uiso   1.00
C434   C     0.09339   0.87766   0.32890   0.00000  Uiso   1.00
C435   C     0.26785   0.90902   0.50838   0.00000  Uiso   1.00
C436   C     0.24352   0.91832   0.54019   0.00000  Uiso   1.00
C437   C     0.27272   0.90470   0.58832   0.00000  Uiso   1.00
H438   H     0.37851   0.86294   0.49538   0.00000  Uiso   1.00
H439   H     0.49552   0.88890   0.49989   0.00000  Uiso   1.00
H440   H     0.26569   0.83758   0.40632   0.00000  Uiso   1.00
H441   H     0.38873   0.85614   0.58431   0.00000  Uiso   1.00
H442   H     0.60244   0.92744   0.49794   0.00000  Uiso   1.00
H443   H     0.11783   0.81923   0.30066   0.00000  Uiso   1.00
H444   H     0.37729   0.85835   0.67597   0.00000  Uiso   1.00
H445   H     0.20294   0.93811   0.44204   0.00000  Uiso   1.00
H446   H     0.81032   0.46820   0.44361   0.00000  Uiso   1.00
H447   H     0.08049   0.91688   0.35005   0.00000  Uiso   1.00
H448   H     0.20354   0.93544   0.52803   0.00000  Uiso   1.00
H449   H     0.95213   0.49180   0.45226   0.00000  Uiso   1.00
H450   H     0.46751   0.38359   0.25499   0.00000  Uiso   1.00
H451   H     0.22697   0.92272   0.63030   0.00000  Uiso   1.00
O452   O     0.60107   0.97806   0.47708   0.00000  Uiso   1.00
O453   O     0.96527   0.83608   0.21827   0.00000  Uiso   1.00
O454   O     0.30568   0.88742   0.71067   0.00000  Uiso   1.00
N455   N     0.55234   0.93846   0.48698   0.00000  Uiso   1.00
N456   N     0.09925   0.83729   0.30254   0.00000  Uiso   1.00
N457   N     0.34181   0.87387   0.65341   0.00000  Uiso   1.00
N458   N     0.47145   0.97309   0.46240   0.00000  Uiso   1.00
N459   N     0.01837   0.87192   0.27796   0.00000  Uiso   1.00
N460   N     0.26093   0.90850   0.62884   0.00000  Uiso   1.00
C461   C     0.07631   0.69613   0.50167   0.00000  Uiso   1.00
C462   C     0.00681   0.70421   0.50683   0.00000  Uiso   1.00
C463   C     0.99660   0.72895   0.52117   0.00000  Uiso   1.00
C464   C     0.92904   0.73239   0.52363   0.00000  Uiso   1.00
C465   C     0.82952   0.74807   0.53337   0.00000  Uiso   1.00
C466   C     0.03137   0.68538   0.44335   0.00000  Uiso   1.00
C467   C     0.04181   0.69428   0.40431   0.00000  Uiso   1.00
C468   C     0.99494   0.68186   0.35334   0.00000  Uiso   1.00
C469   C     0.93358   0.66829   0.26453   0.00000  Uiso   1.00
C470   C     0.12097   0.67285   0.54035   0.00000  Uiso   1.00
C471   C     0.20676   0.67121   0.58286   0.00000  Uiso   1.00
C472   C     0.23533   0.64824   0.61354   0.00000  Uiso   1.00
C473   C     0.31310   0.61521   0.67534   0.00000  Uiso   1.00
C474   C     0.97450   0.65825   0.48056   0.00000  Uiso   1.00
C475   C     0.95152   0.68364   0.49537   0.00000  Uiso   1.00
C476   C     0.88396   0.68704   0.49781   0.00000  Uiso   1.00
C477   C     0.87365   0.71178   0.51215   0.00000  Uiso   1.00
C478   C     0.97607   0.66480   0.43188   0.00000  Uiso   1.00
C479   C     0.92918   0.65237   0.38096   0.00000  Uiso   1.00
C480   C     0.93954   0.66125   0.34185   0.00000  Uiso   1.00
C481   C     0.06568   0.65227   0.52888   0.00000  Uiso   1.00
C482   C     0.09412   0.62930   0.55951   0.00000  Uiso   1.00
C483   C     0.17993   0.62763   0.60206   0.00000  Uiso   1.00
H484   H     0.11936   0.71215   0.51059   0.00000  Uiso   1.00
H485   H     0.03940   0.74487   0.53003   0.00000  Uiso   1.00
H486   H     0.08462   0.71020   0.41320   0.00000  Uiso   1.00
H487   H     0.24953   0.68714   0.59172   0.00000  Uiso   1.00
H488   H     0.92635   0.77207   0.54651   0.00000  Uiso   1.00
H489   H     0.02171   0.69897   0.30017   0.00000  Uiso   1.00
H490   H     0.36947   0.65033   0.67661   0.00000  Uiso   1.00
H491   H     0.93145   0.64223   0.47163   0.00000  Uiso   1.00
H492   H     0.84118   0.67111   0.48894   0.00000  Uiso   1.00
H493   H     0.88639   0.63644   0.37210   0.00000  Uiso   1.00
H494   H     0.05131   0.61338   0.55062   0.00000  Uiso   1.00
H495   H     0.76546   0.71221   0.51316   0.00000  Uiso   1.00
H496   H     0.86082   0.63910   0.26681   0.00000  Uiso   1.00
H497   H     0.20858   0.59046   0.64325   0.00000  Uiso   1.00
O498   O     0.78989   0.76240   0.54190   0.00000  Uiso   1.00
O499   O     0.91501   0.66649   0.21871   0.00000  Uiso   1.00
O500   O     0.37127   0.60268   0.71260   0.00000  Uiso   1.00
N501   N     0.90088   0.75402   0.53630   0.00000  Uiso   1.00
N502   N     0.99003   0.68567   0.30597   0.00000  Uiso   1.00
N503   N     0.31516   0.64020   0.65791   0.00000  Uiso   1.00
N504   N     0.81431   0.72180   0.51835   0.00000  Uiso   1.00
N505   N     0.90345   0.65346   0.28803   0.00000  Uiso   1.00
N506   N     0.22859   0.60798   0.63996   0.00000  Uiso   1.00
C507   C     0.38799   0.68038   0.41758   0.00000  Uiso   1.00
C508   C     0.42304   0.65586   0.40897   0.00000  Uiso   1.00
C509   C     0.41338   0.63037   0.42039   0.00000  Uiso   1.00
C510   C     0.45020   0.61064   0.40964   0.00000  Uiso   1.00
C511   C     0.49776   0.57171   0.39950   0.00000  Uiso   1.00
C512   C     0.33391   0.69406   0.36169   0.00000  Uiso   1.00
C513   C     0.24932   0.70069   0.33336   0.00000  Uiso   1.00
C514   C     0.21112   0.71311   0.28281   0.00000  Uiso   1.00
C515   C     0.12033   0.73351   0.19928   0.00000  Uiso   1.00
C516   C     0.46361   0.69827   0.45506   0.00000  Uiso   1.00
C517   C     0.48806   0.70846   0.50524   0.00000  Uiso   1.00
C518   C     0.55905   0.72444   0.53329   0.00000  Uiso   1.00
C519   C     0.66962   0.75138   0.59475   0.00000  Uiso   1.00
C520   C     0.47057   0.69066   0.37816   0.00000  Uiso   1.00
C521   C     0.46789   0.66144   0.38756   0.00000  Uiso   1.00
C522   C     0.50474   0.64174   0.37678   0.00000  Uiso   1.00
C523   C     0.49514   0.61623   0.38819   0.00000  Uiso   1.00
C524   C     0.37876   0.69964   0.34028   0.00000  Uiso   1.00
C525   C     0.34068   0.71206   0.28976   0.00000  Uiso   1.00
C526   C     0.25605   0.71871   0.26136   0.00000  Uiso   1.00
C527   C     0.50846   0.70386   0.43365   0.00000  Uiso   1.00
C528   C     0.57942   0.71983   0.46163   0.00000  Uiso   1.00
C529   C     0.60398   0.73004   0.51185   0.00000  Uiso   1.00
H530   H     0.35307   0.67603   0.43424   0.00000  Uiso   1.00
H531   H     0.37866   0.62606   0.43695   0.00000  Uiso   1.00
H532   H     0.21463   0.69637   0.34994   0.00000  Uiso   1.00
H533   H     0.45334   0.70413   0.52179   0.00000  Uiso   1.00
H534   H     0.42678   0.57311   0.43050   0.00000  Uiso   1.00
H535   H     0.08093   0.72137   0.24704   0.00000  Uiso   1.00
H536   H     0.58428   0.73775   0.60942   0.00000  Uiso   1.00
H537   H     0.50548   0.69501   0.36149   0.00000  Uiso   1.00
H538   H     0.53944   0.64607   0.36022   0.00000  Uiso   1.00
H539   H     0.37541   0.71638   0.27320   0.00000  Uiso   1.00
H540   H     0.61411   0.72415   0.44505   0.00000  Uiso   1.00
H541   H     0.55727   0.58935   0.36822   0.00000  Uiso   1.00
H542   H     0.21142   0.73761   0.18476   0.00000  Uiso   1.00
H543   H     0.71477   0.75399   0.54714   0.00000  Uiso   1.00
O544   O     0.51159   0.54869   0.39981   0.00000  Uiso   1.00
O545   O     0.05785   0.74321   0.15913   0.00000  Uiso   1.00
O546   O     0.71823   0.76470   0.63456   0.00000  Uiso   1.00
N547   N     0.45285   0.58365   0.41603   0.00000  Uiso   1.00
N548   N     0.12949   0.72226   0.24450   0.00000  Uiso   1.00
N549   N     0.60007   0.73758   0.58329   0.00000  Uiso   1.00
N550   N     0.52307   0.59239   0.38251   0.00000  Uiso   1.00
N551   N     0.19971   0.73100   0.21098   0.00000  Uiso   1.00
N552   N     0.67029   0.74632   0.54977   0.00000  Uiso   1.00
C553   C     0.66267   0.87429   0.91193   0.00000  Uiso   1.00
C554   C     0.63056   0.89967   0.92009   0.00000  Uiso   1.00
C555   C     0.55785   0.90232   0.91708   0.00000  Uiso   1.00
C556   C     0.53940   0.92719   0.92581   0.00000  Uiso   1.00
C557   C     0.48159   0.96334   0.93678   0.00000  Uiso   1.00
C558   C     0.75235   0.87054   0.96420   0.00000  Uiso   1.00
C559   C     0.78203   0.84870   0.99828   0.00000  Uiso   1.00
C560   C     0.86610   0.84905   0.04413   0.00000  Uiso   1.00
C561   C     0.99738   0.83997   0.12356   0.00000  Uiso   1.00
C562   C     0.67126   0.87969   0.86579   0.00000  Uiso   1.00
C563   C     0.63278   0.86554   0.81713   0.00000  Uiso   1.00
C564   C     0.64860   0.87359   0.78014   0.00000  Uiso   1.00
C565   C     0.65398   0.87872   0.70678   0.00000  Uiso   1.00
C566   C     0.75921   0.91375   0.93277   0.00000  Uiso   1.00
C567   C     0.68300   0.92111   0.93141   0.00000  Uiso   1.00
C568   C     0.66466   0.94598   0.94013   0.00000  Uiso   1.00
C569   C     0.59192   0.94867   0.93714   0.00000  Uiso   1.00
C570   C     0.80479   0.89198   0.97552   0.00000  Uiso   1.00
C571   C     0.88884   0.89236   0.02133   0.00000  Uiso   1.00
C572   C     0.91863   0.87052   0.05547   0.00000  Uiso   1.00
C573   C     0.72370   0.90113   0.87711   0.00000  Uiso   1.00
C574   C     0.73959   0.90921   0.84019   0.00000  Uiso   1.00
C575   C     0.70114   0.89507   0.79148   0.00000  Uiso   1.00
H576   H     0.62185   0.85760   0.90312   0.00000  Uiso   1.00
H577   H     0.51729   0.88572   0.90833   0.00000  Uiso   1.00
H578   H     0.74144   0.83211   0.98951   0.00000  Uiso   1.00
H579   H     0.59221   0.84895   0.80839   0.00000  Uiso   1.00
H580   H     0.42450   0.92636   0.91911   0.00000  Uiso   1.00
H581   H     0.89714   0.81331   0.09027   0.00000  Uiso   1.00
H582   H     0.58246   0.84882   0.70835   0.00000  Uiso   1.00
H583   H     0.80004   0.93044   0.94158   0.00000  Uiso   1.00
H584   H     0.70525   0.96257   0.94889   0.00000  Uiso   1.00
H585   H     0.92940   0.90895   0.03007   0.00000  Uiso   1.00
H586   H     0.78017   0.92580   0.84896   0.00000  Uiso   1.00
H587   H     0.57706   0.98873   0.95204   0.00000  Uiso   1.00
H588   H     0.04970   0.87568   0.12319   0.00000  Uiso   1.00
H589   H     0.73502   0.91119   0.74128   0.00000  Uiso   1.00
O590   O     0.43522   0.97736   0.93971   0.00000  Uiso   1.00
O591   O     0.05531   0.82904   0.16425   0.00000  Uiso   1.00
O592   O     0.64246   0.87563   0.66319   0.00000  Uiso   1.00
N593   N     0.47340   0.93663   0.92585   0.00000  Uiso   1.00
N594   N     0.91529   0.83093   0.08587   0.00000  Uiso   1.00
N595   N     0.62111   0.86413   0.72882   0.00000  Uiso   1.00
N596   N     0.55549   0.97019   0.94356   0.00000  Uiso   1.00
N597   N     0.99738   0.86450   0.10359   0.00000  Uiso   1.00
N598   N     0.70320   0.89769   0.74653   0.00000  Uiso   1.00
C599   C     0.92853   0.70296   0.88156   0.00000  Uiso   1.00
C600   C     0.00627   0.70876   0.88363   0.00000  Uiso   1.00
C601   C     0.02438   0.73246   0.87023   0.00000  Uiso   1.00
C602   C     0.09868   0.73382   0.87481   0.00000  Uiso   1.00
C603   C     0.21116   0.74612   0.87540   0.00000  Uiso   1.00
C604   C     0.96178   0.69361   0.93921   0.00000  Uiso   1.00
C605   C     0.94248   0.70456   0.97255   0.00000  Uiso   1.00
C606   C     0.97933   0.69316   0.02392   0.00000  Uiso   1.00
C607   C     0.02270   0.68192   0.11079   0.00000  Uiso   1.00
C608   C     0.88592   0.67929   0.84376   0.00000  Uiso   1.00
C609   C     0.80282   0.67819   0.79684   0.00000  Uiso   1.00
C610   C     0.77580   0.65473   0.76785   0.00000  Uiso   1.00
C611   C     0.20138   0.12125   0.70651   0.00000  Uiso   1.00
C612   C     0.02829   0.66323   0.91352   0.00000  Uiso   1.00
C613   C     0.06045   0.68719   0.90098   0.00000  Uiso   1.00
C614   C     0.13475   0.68851   0.90559   0.00000  Uiso   1.00
C615   C     0.15296   0.71220   0.89220   0.00000  Uiso   1.00
C616   C     0.01597   0.67203   0.95657   0.00000  Uiso   1.00
C617   C     0.05285   0.66061   0.00790   0.00000  Uiso   1.00
C618   C     0.03362   0.67155   0.04131   0.00000  Uiso   1.00
C619   C     0.94011   0.65771   0.86111   0.00000  Uiso   1.00
C620   C     0.91320   0.63424   0.83219   0.00000  Uiso   1.00
C621   C     0.83008   0.63311   0.78524   0.00000  Uiso   1.00
H622   H     0.88635   0.71976   0.86805   0.00000  Uiso   1.00
H623   H     0.98243   0.74916   0.85681   0.00000  Uiso   1.00
H624   H     0.90054   0.72126   0.95910   0.00000  Uiso   1.00
H625   H     0.76091   0.69490   0.78342   0.00000  Uiso   1.00
H626   H     0.11286   0.77224   0.85201   0.00000  Uiso   1.00
H627   H     0.94017   0.71341   0.06770   0.00000  Uiso   1.00
H628   H     0.64573   0.65781   0.69724   0.00000  Uiso   1.00
H629   H     0.07048   0.64643   0.92703   0.00000  Uiso   1.00
H630   H     0.17667   0.67181   0.91902   0.00000  Uiso   1.00
H631   H     0.09478   0.64391   0.02132   0.00000  Uiso   1.00
H632   H     0.95515   0.61755   0.84564   0.00000  Uiso   1.00
H633   H     0.27052   0.70945   0.90251   0.00000  Uiso   1.00
H634   H     0.09782   0.65063   0.11820   0.00000  Uiso   1.00
H635   H     0.30339   0.09503   0.74774   0.00000  Uiso   1.00
O636   O     0.25824   0.75886   0.87094   0.00000  Uiso   1.00
O637   O     0.03166   0.68168   0.15392   0.00000  Uiso   1.00
O638   O     0.14536   0.10874   0.66788   0.00000  Uiso   1.00
N639   N     0.13539   0.75398   0.86498   0.00000  Uiso   1.00
N640   N     0.97394   0.69898   0.06665   0.00000  Uiso   1.00
N641   N     0.69866   0.64700   0.72030   0.00000  Uiso   1.00
N642   N     0.22022   0.72019   0.89216   0.00000  Uiso   1.00
N643   N     0.05877   0.66520   0.09382   0.00000  Uiso   1.00
N644   N     0.28349   0.11322   0.74748   0.00000  Uiso   1.00
C645   C     0.62755   0.67498   0.97220   0.00000  Uiso   1.00
C646   C     0.58433   0.65231   0.97922   0.00000  Uiso   1.00
C647   C     0.58425   0.62636   0.96547   0.00000  Uiso   1.00
C648   C     0.54108   0.60856   0.97507   0.00000  Uiso   1.00
C649   C     0.48033   0.57214   0.98256   0.00000  Uiso   1.00
C650   C     0.68713   0.68735   0.02915   0.00000  Uiso   1.00
C651   C     0.77348   0.69086   0.05737   0.00000  Uiso   1.00
C652   C     0.81684   0.70256   0.10901   0.00000  Uiso   1.00
C653   C     0.91567   0.72057   0.19400   0.00000  Uiso   1.00
C654   C     0.55876   0.69525   0.93669   0.00000  Uiso   1.00
C655   C     0.53719   0.70542   0.88717   0.00000  Uiso   1.00
C656   C     0.47249   0.72378   0.86096   0.00000  Uiso   1.00
C657   C     0.37201   0.75407   0.80240   0.00000  Uiso   1.00
C658   C     0.55103   0.68952   0.01371   0.00000  Uiso   1.00
C659   C     0.54277   0.66020   0.00177   0.00000  Uiso   1.00
C660   C     0.49958   0.64244   0.01139   0.00000  Uiso   1.00
C661   C     0.49944   0.61646   0.99765   0.00000  Uiso   1.00
C662   C     0.64557   0.69524   0.05170   0.00000  Uiso   1.00
C663   C     0.68881   0.70694   0.10330   0.00000  Uiso   1.00
C664   C     0.77520   0.71047   0.13160   0.00000  Uiso   1.00
C665   C     0.51720   0.70315   0.95923   0.00000  Uiso   1.00
C666   C     0.45252   0.72150   0.93310   0.00000  Uiso   1.00
C667   C     0.43085   0.73169   0.88355   0.00000  Uiso   1.00
H668   H     0.65992   0.66884   0.95465   0.00000  Uiso   1.00
H669   H     0.61643   0.62026   0.94802   0.00000  Uiso   1.00
H670   H     0.80562   0.68476   0.03991   0.00000  Uiso   1.00
H671   H     0.56937   0.69931   0.86974   0.00000  Uiso   1.00
H672   H     0.54991   0.56987   0.95063   0.00000  Uiso   1.00
H673   H     0.94883   0.70588   0.14438   0.00000  Uiso   1.00
H674   H     0.45065   0.73657   0.78554   0.00000  Uiso   1.00
H675   H     0.51867   0.69566   0.03127   0.00000  Uiso   1.00
H676   H     0.46743   0.64855   0.02884   0.00000  Uiso   1.00
H677   H     0.65663   0.71305   0.12073   0.00000  Uiso   1.00
H678   H     0.42037   0.72760   0.95056   0.00000  Uiso   1.00
H679   H     0.42898   0.59283   0.01623   0.00000  Uiso   1.00
H680   H     0.82790   0.72884   0.20998   0.00000  Uiso   1.00
H681   H     0.32971   0.75954   0.85113   0.00000  Uiso   1.00
O682   O     0.45831   0.54988   0.98047   0.00000  Uiso   1.00
O683   O     0.98168   0.72832   0.23466   0.00000  Uiso   1.00
O684   O     0.32807   0.76858   0.76386   0.00000  Uiso   1.00
N685   N     0.52847   0.58174   0.96640   0.00000  Uiso   1.00
N686   N     0.90144   0.70890   0.14754   0.00000  Uiso   1.00
N687   N     0.43569   0.73760   0.81206   0.00000  Uiso   1.00
N688   N     0.46339   0.59410   0.00169   0.00000  Uiso   1.00
N689   N     0.83637   0.72125   0.18284   0.00000  Uiso   1.00
N690   N     0.37062   0.74996   0.84736   0.00000  Uiso   1.00
C691   C     0.83829   0.61984   0.98316   0.00000  Uiso   1.00
C692   C     0.87752   0.59531   0.97822   0.00000  Uiso   1.00
C693   C     0.95555   0.59397   0.98774   0.00000  Uiso   1.00
C694   C     0.98013   0.56971   0.98100   0.00000  Uiso   1.00
C695   C     0.04888   0.53498   0.97569   0.00000  Uiso   1.00
C696   C     0.75265   0.62319   0.92738   0.00000  Uiso   1.00
C697   C     0.72569   0.64530   0.89416   0.00000  Uiso   1.00
C698   C     0.64515   0.64450   0.84463   0.00000  Uiso   1.00
C699   C     0.52002   0.65308   0.76040   0.00000  Uiso   1.00
C700   C     0.81951   0.61310   0.02408   0.00000  Uiso   1.00
C701   C     0.84875   0.62674   0.07217   0.00000  Uiso   1.00
C702   C     0.82448   0.61746   0.10405   0.00000  Uiso   1.00
C703   C     0.80316   0.61038   0.16997   0.00000  Uiso   1.00
C704   C     0.74317   0.57911   0.95426   0.00000  Uiso   1.00
C705   C     0.82585   0.57318   0.96252   0.00000  Uiso   1.00
C706   C     0.85032   0.54891   0.95576   0.00000  Uiso   1.00
C707   C     0.92837   0.54754   0.96528   0.00000  Uiso   1.00
C708   C     0.70099   0.60107   0.91168   0.00000  Uiso   1.00
C709   C     0.62046   0.60024   0.86218   0.00000  Uiso   1.00
C710   C     0.59339   0.62234   0.82890   0.00000  Uiso   1.00
C711   C     0.76785   0.59098   0.00838   0.00000  Uiso   1.00
C712   C     0.74352   0.58168   0.04019   0.00000  Uiso   1.00
C713   C     0.77272   0.59530   0.08832   0.00000  Uiso   1.00
H714   H     0.87851   0.63706   0.99538   0.00000  Uiso   1.00
H715   H     0.99552   0.61110   0.99989   0.00000  Uiso   1.00
H716   H     0.76569   0.66242   0.90632   0.00000  Uiso   1.00
H717   H     0.88873   0.64386   0.08431   0.00000  Uiso   1.00
H718   H     0.10244   0.57256   0.99794   0.00000  Uiso   1.00
H719   H     0.61783   0.68077   0.80066   0.00000  Uiso   1.00
H720   H     0.87729   0.64165   0.17597   0.00000  Uiso   1.00
H721   H     0.70294   0.56189   0.94204   0.00000  Uiso   1.00
H722   H     0.31032   0.03180   0.94361   0.00000  Uiso   1.00
H723   H     0.58049   0.58312   0.85005   0.00000  Uiso   1.00
H724   H     0.70354   0.56456   0.02803   0.00000  Uiso   1.00
H725   H     0.45213   0.00820   0.95226   0.00000  Uiso   1.00
H726   H     0.96751   0.11641   0.75499   0.00000  Uiso   1.00
H727   H     0.72697   0.57728   0.13030   0.00000  Uiso   1.00
O728   O     0.10107   0.52194   0.97708   0.00000  Uiso   1.00
O729   O     0.46527   0.66392   0.71827   0.00000  Uiso   1.00
O730   O     0.80568   0.61258   0.21067   0.00000  Uiso   1.00
N731   N     0.05234   0.56154   0.98698   0.00000  Uiso   1.00
N732   N     0.59925   0.66271   0.80254   0.00000  Uiso   1.00
N733   N     0.84181   0.62613   0.15341   0.00000  Uiso   1.00
N734   N     0.97145   0.52691   0.96240   0.00000  Uiso   1.00
N735   N     0.51837   0.62808   0.77796   0.00000  Uiso   1.00
N736   N     0.76093   0.59150   0.12884   0.00000  Uiso   1.00
C737   C     0.57631   0.80387   0.00167   0.00000  Uiso   1.00
C738   C     0.50681   0.79579   0.00683   0.00000  Uiso   1.00
C739   C     0.49660   0.77105   0.02117   0.00000  Uiso   1.00
C740   C     0.42904   0.76761   0.02363   0.00000  Uiso   1.00
C741   C     0.32952   0.75193   0.03337   0.00000  Uiso   1.00
C742   C     0.53137   0.81462   0.94335   0.00000  Uiso   1.00
C743   C     0.54181   0.80572   0.90431   0.00000  Uiso   1.00
C744   C     0.49494   0.81814   0.85334   0.00000  Uiso   1.00
C745   C     0.43358   0.83171   0.76453   0.00000  Uiso   1.00
C746   C     0.62097   0.82715   0.04035   0.00000  Uiso   1.00
C747   C     0.70676   0.82879   0.08286   0.00000  Uiso   1.00
C748   C     0.73533   0.85176   0.11354   0.00000  Uiso   1.00
C749   C     0.81310   0.88479   0.17534   0.00000  Uiso   1.00
C750   C     0.47450   0.84175   0.98056   0.00000  Uiso   1.00
C751   C     0.45152   0.81636   0.99537   0.00000  Uiso   1.00
C752   C     0.38396   0.81296   0.99781   0.00000  Uiso   1.00
C753   C     0.37365   0.78822   0.01215   0.00000  Uiso   1.00
C754   C     0.47607   0.83520   0.93188   0.00000  Uiso   1.00
C755   C     0.42918   0.84763   0.88096   0.00000  Uiso   1.00
C756   C     0.43954   0.83875   0.84185   0.00000  Uiso   1.00
C757   C     0.56568   0.84773   0.02888   0.00000  Uiso   1.00
C758   C     0.59412   0.87070   0.05951   0.00000  Uiso   1.00
C759   C     0.67993   0.87237   0.10206   0.00000  Uiso   1.00
H760   H     0.61936   0.78785   0.01059   0.00000  Uiso   1.00
H761   H     0.53940   0.75513   0.03003   0.00000  Uiso   1.00
H762   H     0.58462   0.78980   0.91320   0.00000  Uiso   1.00
H763   H     0.74953   0.81286   0.09172   0.00000  Uiso   1.00
H764   H     0.42635   0.72793   0.04651   0.00000  Uiso   1.00
H765   H     0.52171   0.80103   0.80017   0.00000  Uiso   1.00
H766   H     0.86947   0.84967   0.17661   0.00000  Uiso   1.00
H767   H     0.43145   0.85777   0.97163   0.00000  Uiso   1.00
H768   H     0.34118   0.82889   0.98894   0.00000  Uiso   1.00
H769   H     0.38639   0.86356   0.87210   0.00000  Uiso   1.00
H770   H     0.55131   0.88662   0.05062   0.00000  Uiso   1.00
H771   H     0.26546   0.78779   0.01316   0.00000  Uiso   1.00
H772   H     0.36082   0.86090   0.76681   0.00000  Uiso   1.00
H773   H     0.70858   0.90954   0.14325   0.00000  Uiso   1.00
O774   O     0.28989   0.73760   0.04190   0.00000  Uiso   1.00
O775   O     0.41501   0.83351   0.71871   0.00000  Uiso   1.00
O776   O     0.87127   0.89732   0.21260   0.00000  Uiso   1.00
N777   N     0.40088   0.74598   0.03630   0.00000  Uiso   1.00
N778   N     0.49003   0.81433   0.80597   0.00000  Uiso   1.00
N779   N     0.81516   0.85980   0.15791   0.00000  Uiso   1.00
N780   N     0.31431   0.77820   0.01835   0.00000  Uiso   1.00
N781   N     0.40345   0.84654   0.78803   0.00000  Uiso   1.00
N782   N     0.72859   0.89202   0.13996   0.00000  Uiso   1.00
C783   C     0.88799   0.81962   0.91758   0.00000  Uiso   1.00
C784   C     0.92304   0.84414   0.90897   0.00000  Uiso   1.00
C785   C     0.91338   0.86963   0.92039   0.00000  Uiso   1.00
C786   C     0.95020   0.88936   0.90964   0.00000  Uiso   1.00
C787   C     0.99776   0.92829   0.89950   0.00000  Uiso   1.00
C788   C     0.83391   0.80594   0.86169   0.00000  Uiso   1.00
C789   C     0.74932   0.79931   0.83336   0.00000  Uiso   1.00
C790   C     0.71112   0.78689   0.78281   0.00000  Uiso   1.00
C791   C     0.62033   0.76649   0.69928   0.00000  Uiso   1.00
C792   C     0.96361   0.80173   0.95506   0.00000  Uiso   1.00
C793   C     0.98806   0.79154   0.00524   0.00000  Uiso   1.00
C794   C     0.05905   0.77556   0.03329   0.00000  Uiso   1.00
C795   C     0.16962   0.74862   0.09475   0.00000  Uiso   1.00
C796   C     0.97057   0.80934   0.87816   0.00000  Uiso   1.00
C797   C     0.96789   0.83856   0.88756   0.00000  Uiso   1.00
C798   C     0.00474   0.85826   0.87678   0.00000  Uiso   1.00
C799   C     0.99514   0.88377   0.88819   0.00000  Uiso   1.00
C800   C     0.87876   0.80036   0.84028   0.00000  Uiso   1.00
C801   C     0.84068   0.78794   0.78976   0.00000  Uiso   1.00
C802   C     0.75605   0.78129   0.76136   0.00000  Uiso   1.00
C803   C     0.00846   0.79614   0.93365   0.00000  Uiso   1.00
C804   C     0.07942   0.78017   0.96163   0.00000  Uiso   1.00
C805   C     0.10398   0.76996   0.01185   0.00000  Uiso   1.00
H806   H     0.85307   0.82397   0.93424   0.00000  Uiso   1.00
H807   H     0.87866   0.87394   0.93695   0.00000  Uiso   1.00
H808   H     0.71463   0.80363   0.84994   0.00000  Uiso   1.00
H809   H     0.95334   0.79587   0.02179   0.00000  Uiso   1.00
H810   H     0.92678   0.92689   0.93050   0.00000  Uiso   1.00
H811   H     0.58093   0.77863   0.74704   0.00000  Uiso   1.00
H812   H     0.08428   0.76225   0.10942   0.00000  Uiso   1.00
H813   H     0.00548   0.80499   0.86149   0.00000  Uiso   1.00
H814   H     0.03944   0.85393   0.86022   0.00000  Uiso   1.00
H815   H     0.87541   0.78362   0.77320   0.00000  Uiso   1.00
H816   H     0.11411   0.77585   0.94505   0.00000  Uiso   1.00
H817   H     0.05727   0.91065   0.86822   0.00000  Uiso   1.00
H818   H     0.71142   0.76239   0.68476   0.00000  Uiso   1.00
H819   H     0.21477   0.74601   0.04714   0.00000  Uiso   1.00
O820   O     0.01159   0.95131   0.89981   0.00000  Uiso   1.00
O821   O     0.55785   0.75679   0.65913   0.00000  Uiso   1.00
O822   O     0.21823   0.73530   0.13456   0.00000  Uiso   1.00
N823   N     0.95285   0.91635   0.91603   0.00000  Uiso   1.00
N824   N     0.62949   0.77774   0.74450   0.00000  Uiso   1.00
N825   N     0.10007   0.76242   0.08329   0.00000  Uiso   1.00
N826   N     0.02307   0.90761   0.88251   0.00000  Uiso   1.00
N827   N     0.69971   0.76900   0.71098   0.00000  Uiso   1.00
N828   N     0.17029   0.75368   0.04977   0.00000  Uiso   1.00
C829   C     0.16267   0.37429   0.91193   0.00000  Uiso   1.00
C830   C     0.13056   0.39967   0.92009   0.00000  Uiso   1.00
C831   C     0.05785   0.40232   0.91708   0.00000  Uiso   1.00
C832   C     0.03940   0.42719   0.92581   0.00000  Uiso   1.00
C833   C     0.98159   0.46334   0.93678   0.00000  Uiso   1.00
C834   C     0.25235   0.37054   0.96420   0.00000  Uiso   1.00
C835   C     0.28203   0.34870   0.99828   0.00000  Uiso   1.00
C836   C     0.36610   0.34905   0.04413   0.00000  Uiso   1.00
C837   C     0.49738   0.33997   0.12356   0.00000  Uiso   1.00
C838   C     0.17126   0.37969   0.86579   0.00000  Uiso   1.00
C839   C     0.13278   0.36554   0.81713   0.00000  Uiso   1.00
C840   C     0.14860   0.37359   0.78014   0.00000  Uiso   1.00
C841   C     0.15398   0.37872   0.70678   0.00000  Uiso   1.00
C842   C     0.25921   0.41375   0.93277   0.00000  Uiso   1.00
C843   C     0.18300   0.42111   0.93141   0.00000  Uiso   1.00
C844   C     0.16466   0.44598   0.94013   0.00000  Uiso   1.00
C845   C     0.09192   0.44867   0.93714   0.00000  Uiso   1.00
C846   C     0.30479   0.39198   0.97552   0.00000  Uiso   1.00
C847   C     0.38884   0.39236   0.02133   0.00000  Uiso   1.00
C848   C     0.41863   0.37052   0.05547   0.00000  Uiso   1.00
C849   C     0.22370   0.40113   0.87711   0.00000  Uiso   1.00
C850   C     0.23959   0.40921   0.84019   0.00000  Uiso   1.00
C851   C     0.20114   0.39507   0.79148   0.00000  Uiso   1.00
H852   H     0.12185   0.35760   0.90312   0.00000  Uiso   1.00
H853   H     0.01729   0.38572   0.90833   0.00000  Uiso   1.00
H854   H     0.24144   0.33211   0.98951   0.00000  Uiso   1.00
H855   H     0.09221   0.34895   0.80839   0.00000  Uiso   1.00
H856   H     0.92450   0.42636   0.91911   0.00000  Uiso   1.00
H857   H     0.39714   0.31331   0.09027   0.00000  Uiso   1.00
H858   H     0.08246   0.34882   0.70835   0.00000  Uiso   1.00
H859   H     0.30004   0.43044   0.94158   0.00000  Uiso   1.00
H860   H     0.20525   0.46257   0.94889   0.00000  Uiso   1.00
H861   H     0.42940   0.40895   0.03007   0.00000  Uiso   1.00
H862   H     0.28017   0.42580   0.84896   0.00000  Uiso   1.00
H863   H     0.07706   0.48873   0.95204   0.00000  Uiso   1.00
H864   H     0.54970   0.37568   0.12319   0.00000  Uiso   1.00
H865   H     0.23502   0.41119   0.74128   0.00000  Uiso   1.00
O866   O     0.93522   0.47736   0.93971   0.00000  Uiso   1.00
O867   O     0.55531   0.32904   0.16425   0.00000  Uiso   1.00
O868   O     0.14246   0.37563   0.66319   0.00000  Uiso   1.00
N869   N     0.97340   0.43663   0.92585   0.00000  Uiso   1.00
N870   N     0.41529   0.33093   0.08587   0.00000  Uiso   1.00
N871   N     0.12111   0.36413   0.72882   0.00000  Uiso   1.00
N872   N     0.05549   0.47019   0.94356   0.00000  Uiso   1.00
N873   N     0.49738   0.36450   0.10359   0.00000  Uiso   1.00
N874   N     0.20320   0.39769   0.74653   0.00000  Uiso   1.00
C875   C     0.42853   0.20296   0.88156   0.00000  Uiso   1.00
C876   C     0.50627   0.20876   0.88363   0.00000  Uiso   1.00
C877   C     0.52438   0.23246   0.87023   0.00000  Uiso   1.00
C878   C     0.59868   0.23382   0.87481   0.00000  Uiso   1.00
C879   C     0.71116   0.24612   0.87540   0.00000  Uiso   1.00
C880   C     0.46178   0.19361   0.93921   0.00000  Uiso   1.00
C881   C     0.44248   0.20456   0.97255   0.00000  Uiso   1.00
C882   C     0.47933   0.19316   0.02392   0.00000  Uiso   1.00
C883   C     0.52270   0.18192   0.11079   0.00000  Uiso   1.00
C884   C     0.38592   0.17929   0.84376   0.00000  Uiso   1.00
C885   C     0.30282   0.17819   0.79684   0.00000  Uiso   1.00
C886   C     0.27580   0.15473   0.76785   0.00000  Uiso   1.00
C887   C     0.70138   0.62125   0.70651   0.00000  Uiso   1.00
C888   C     0.52829   0.16323   0.91352   0.00000  Uiso   1.00
C889   C     0.56045   0.18719   0.90098   0.00000  Uiso   1.00
C890   C     0.63475   0.18851   0.90559   0.00000  Uiso   1.00
C891   C     0.65296   0.21220   0.89220   0.00000  Uiso   1.00
C892   C     0.51597   0.17203   0.95657   0.00000  Uiso   1.00
C893   C     0.55285   0.16061   0.00790   0.00000  Uiso   1.00
C894   C     0.53362   0.17155   0.04131   0.00000  Uiso   1.00
C895   C     0.44011   0.15771   0.86111   0.00000  Uiso   1.00
C896   C     0.41320   0.13424   0.83219   0.00000  Uiso   1.00
C897   C     0.33008   0.13311   0.78524   0.00000  Uiso   1.00
H898   H     0.38635   0.21976   0.86805   0.00000  Uiso   1.00
H899   H     0.48243   0.24916   0.85681   0.00000  Uiso   1.00
H900   H     0.40054   0.22126   0.95910   0.00000  Uiso   1.00
H901   H     0.26091   0.19490   0.78342   0.00000  Uiso   1.00
H902   H     0.61286   0.27224   0.85201   0.00000  Uiso   1.00
H903   H     0.44017   0.21341   0.06770   0.00000  Uiso   1.00
H904   H     0.14573   0.15781   0.69724   0.00000  Uiso   1.00
H905   H     0.57048   0.14643   0.92703   0.00000  Uiso   1.00
H906   H     0.67667   0.17181   0.91902   0.00000  Uiso   1.00
H907   H     0.59478   0.14391   0.02132   0.00000  Uiso   1.00
H908   H     0.45515   0.11755   0.84564   0.00000  Uiso   1.00
H909   H     0.77052   0.20945   0.90251   0.00000  Uiso   1.00
H910   H     0.59782   0.15063   0.11820   0.00000  Uiso   1.00
H911   H     0.80339   0.59503   0.74774   0.00000  Uiso   1.00
O912   O     0.75824   0.25886   0.87094   0.00000  Uiso   1.00
O913   O     0.53166   0.18168   0.15392   0.00000  Uiso   1.00
O914   O     0.64536   0.60874   0.66788   0.00000  Uiso   1.00
N915   N     0.63539   0.25398   0.86498   0.00000  Uiso   1.00
N916   N     0.47394   0.19898   0.06665   0.00000  Uiso   1.00
N917   N     0.19866   0.14700   0.72030   0.00000  Uiso   1.00
N918   N     0.72022   0.22019   0.89216   0.00000  Uiso   1.00
N919   N     0.55877   0.16520   0.09382   0.00000  Uiso   1.00
N920   N     0.78349   0.61322   0.74748   0.00000  Uiso   1.00
C921   C     0.12755   0.17498   0.97220   0.00000  Uiso   1.00
C922   C     0.08433   0.15231   0.97922   0.00000  Uiso   1.00
C923   C     0.08425   0.12636   0.96547   0.00000  Uiso   1.00
C924   C     0.04108   0.10856   0.97507   0.00000  Uiso   1.00
C925   C     0.98033   0.07214   0.98256   0.00000  Uiso   1.00
C926   C     0.18713   0.18735   0.02915   0.00000  Uiso   1.00
C927   C     0.27348   0.19086   0.05737   0.00000  Uiso   1.00
C928   C     0.31684   0.20256   0.10901   0.00000  Uiso   1.00
C929   C     0.41567   0.22057   0.19400   0.00000  Uiso   1.00
C930   C     0.05876   0.19525   0.93669   0.00000  Uiso   1.00
C931   C     0.03719   0.20542   0.88717   0.00000  Uiso   1.00
C932   C     0.97249   0.22378   0.86096   0.00000  Uiso   1.00
C933   C     0.87201   0.25407   0.80240   0.00000  Uiso   1.00
C934   C     0.05103   0.18952   0.01371   0.00000  Uiso   1.00
C935   C     0.04277   0.16020   0.00177   0.00000  Uiso   1.00
C936   C     0.99958   0.14244   0.01139   0.00000  Uiso   1.00
C937   C     0.99944   0.11646   0.99765   0.00000  Uiso   1.00
C938   C     0.14557   0.19524   0.05170   0.00000  Uiso   1.00
C939   C     0.18881   0.20694   0.10330   0.00000  Uiso   1.00
C940   C     0.27520   0.21047   0.13160   0.00000  Uiso   1.00
C941   C     0.01720   0.20315   0.95923   0.00000  Uiso   1.00
C942   C     0.95252   0.22150   0.93310   0.00000  Uiso   1.00
C943   C     0.93085   0.23169   0.88355   0.00000  Uiso   1.00
H944   H     0.15992   0.16884   0.95465   0.00000  Uiso   1.00
H945   H     0.11643   0.12026   0.94802   0.00000  Uiso   1.00
H946   H     0.30562   0.18476   0.03991   0.00000  Uiso   1.00
H947   H     0.06937   0.19931   0.86974   0.00000  Uiso   1.00
H948   H     0.04991   0.06987   0.95063   0.00000  Uiso   1.00
H949   H     0.44883   0.20588   0.14438   0.00000  Uiso   1.00
H950   H     0.95065   0.23657   0.78554   0.00000  Uiso   1.00
H951   H     0.01867   0.19566   0.03127   0.00000  Uiso   1.00
H952   H     0.96743   0.14855   0.02884   0.00000  Uiso   1.00
H953   H     0.15663   0.21305   0.12073   0.00000  Uiso   1.00
H954   H     0.92037   0.22760   0.95056   0.00000  Uiso   1.00
H955   H     0.92898   0.09283   0.01623   0.00000  Uiso   1.00
H956   H     0.32790   0.22884   0.20998   0.00000  Uiso   1.00
H957   H     0.82971   0.25954   0.85113   0.00000  Uiso   1.00
O958   O     0.95831   0.04988   0.98047   0.00000  Uiso   1.00
O959   O     0.48168   0.22832   0.23466   0.00000  Uiso   1.00
O960   O     0.82807   0.26858   0.76386   0.00000  Uiso   1.00
N961   N     0.02847   0.08174   0.96640   0.00000  Uiso   1.00
N962   N     0.40144   0.20890   0.14754   0.00000  Uiso   1.00
N963   N     0.93569   0.23760   0.81206   0.00000  Uiso   1.00
N964   N     0.96339   0.09410   0.00169   0.00000  Uiso   1.00
N965   N     0.33637   0.22125   0.18284   0.00000  Uiso   1.00
N966   N     0.87062   0.24996   0.84736   0.00000  Uiso   1.00
C967   C     0.33829   0.11984   0.98316   0.00000  Uiso   1.00
C968   C     0.37752   0.09531   0.97822   0.00000  Uiso   1.00
C969   C     0.45555   0.09397   0.98774   0.00000  Uiso   1.00
C970   C     0.48013   0.06971   0.98100   0.00000  Uiso   1.00
C971   C     0.54888   0.03498   0.97569   0.00000  Uiso   1.00
C972   C     0.25265   0.12319   0.92738   0.00000  Uiso   1.00
C973   C     0.22569   0.14530   0.89416   0.00000  Uiso   1.00
C974   C     0.14515   0.14450   0.84463   0.00000  Uiso   1.00
C975   C     0.02002   0.15308   0.76040   0.00000  Uiso   1.00
C976   C     0.31951   0.11310   0.02408   0.00000  Uiso   1.00
C977   C     0.34875   0.12674   0.07217   0.00000  Uiso   1.00
C978   C     0.32448   0.11746   0.10405   0.00000  Uiso   1.00
C979   C     0.30316   0.11038   0.16997   0.00000  Uiso   1.00
C980   C     0.24317   0.07911   0.95426   0.00000  Uiso   1.00
C981   C     0.32585   0.07318   0.96252   0.00000  Uiso   1.00
C982   C     0.35032   0.04891   0.95576   0.00000  Uiso   1.00
C983   C     0.42837   0.04754   0.96528   0.00000  Uiso   1.00
C984   C     0.20099   0.10107   0.91168   0.00000  Uiso   1.00
C985   C     0.12046   0.10024   0.86218   0.00000  Uiso   1.00
C986   C     0.09339   0.12234   0.82890   0.00000  Uiso   1.00
C987   C     0.26785   0.09098   0.00838   0.00000  Uiso   1.00
C988   C     0.24352   0.08168   0.04019   0.00000  Uiso   1.00
C989   C     0.27272   0.09530   0.08832   0.00000  Uiso   1.00
H990   H     0.37851   0.13706   0.99538   0.00000  Uiso   1.00
H991   H     0.49552   0.11110   0.99989   0.00000  Uiso   1.00
H992   H     0.26569   0.16242   0.90632   0.00000  Uiso   1.00
H993   H     0.38873   0.14386   0.08431   0.00000  Uiso   1.00
H994   H     0.60244   0.07256   0.99794   0.00000  Uiso   1.00
H995   H     0.11783   0.18077   0.80066   0.00000  Uiso   1.00
H996   H     0.37729   0.14165   0.17597   0.00000  Uiso   1.00
H997   H     0.20294   0.06189   0.94204   0.00000  Uiso   1.00
H998   H     0.81032   0.53180   0.94361   0.00000  Uiso   1.00
H999   H     0.08049   0.08312   0.85005   0.00000  Uiso   1.00
H1000  H     0.20354   0.06456   0.02803   0.00000  Uiso   1.00
H1001  H     0.95213   0.50820   0.95226   0.00000  Uiso   1.00
H1002  H     0.46751   0.61641   0.75499   0.00000  Uiso   1.00
H1003  H     0.22697   0.07728   0.13030   0.00000  Uiso   1.00
O1004  O     0.60107   0.02194   0.97708   0.00000  Uiso   1.00
O1005  O     0.96527   0.16392   0.71827   0.00000  Uiso   1.00
O1006  O     0.30568   0.11258   0.21067   0.00000  Uiso   1.00
N1007  N     0.55234   0.06154   0.98698   0.00000  Uiso   1.00
N1008  N     0.09925   0.16271   0.80254   0.00000  Uiso   1.00
N1009  N     0.34181   0.12613   0.15341   0.00000  Uiso   1.00
N1010  N     0.47145   0.02691   0.96240   0.00000  Uiso   1.00
N1011  N     0.01837   0.12808   0.77796   0.00000  Uiso   1.00
N1012  N     0.26093   0.09150   0.12884   0.00000  Uiso   1.00
C1013  C     0.07631   0.30387   0.00167   0.00000  Uiso   1.00
C1014  C     0.00681   0.29579   0.00683   0.00000  Uiso   1.00
C1015  C     0.99660   0.27105   0.02117   0.00000  Uiso   1.00
C1016  C     0.92904   0.26761   0.02363   0.00000  Uiso   1.00
C1017  C     0.82952   0.25193   0.03337   0.00000  Uiso   1.00
C1018  C     0.03137   0.31462   0.94335   0.00000  Uiso   1.00
C1019  C     0.04181   0.30572   0.90431   0.00000  Uiso   1.00
C1020  C     0.99494   0.31814   0.85334   0.00000  Uiso   1.00
C1021  C     0.93358   0.33171   0.76453   0.00000  Uiso   1.00
C1022  C     0.12097   0.32715   0.04035   0.00000  Uiso   1.00
C1023  C     0.20676   0.32879   0.08286   0.00000  Uiso   1.00
C1024  C     0.23533   0.35176   0.11354   0.00000  Uiso   1.00
C1025  C     0.31310   0.38479   0.17534   0.00000  Uiso   1.00
C1026  C     0.97450   0.34175   0.98056   0.00000  Uiso   1.00
C1027  C     0.95152   0.31636   0.99537   0.00000  Uiso   1.00
C1028  C     0.88396   0.31296   0.99781   0.00000  Uiso   1.00
C1029  C     0.87365   0.28822   0.01215   0.00000  Uiso   1.00
C1030  C     0.97607   0.33520   0.93188   0.00000  Uiso   1.00
C1031  C     0.92918   0.34763   0.88096   0.00000  Uiso   1.00
C1032  C     0.93954   0.33875   0.84185   0.00000  Uiso   1.00
C1033  C     0.06568   0.34773   0.02888   0.00000  Uiso   1.00
C1034  C     0.09412   0.37070   0.05951   0.00000  Uiso   1.00
C1035  C     0.17993   0.37237   0.10206   0.00000  Uiso   1.00
H1036  H     0.11936   0.28785   0.01059   0.00000  Uiso   1.00
H1037  H     0.03940   0.25513   0.03003   0.00000  Uiso   1.00
H1038  H     0.08462   0.28980   0.91320   0.00000  Uiso   1.00
H1039  H     0.24953   0.31286   0.09172   0.00000  Uiso   1.00
H1040  H     0.92635   0.22793   0.04651   0.00000  Uiso   1.00
H1041  H     0.02171   0.30103   0.80017   0.00000  Uiso   1.00
H1042  H     0.36947   0.34967   0.17661   0.00000  Uiso   1.00
H1043  H     0.93145   0.35777   0.97163   0.00000  Uiso   1.00
H1044  H     0.84118   0.32889   0.98894   0.00000  Uiso   1.00
H1045  H     0.88639   0.36356   0.87210   0.00000  Uiso   1.00
H1046  H     0.05131   0.38662   0.05062   0.00000  Uiso   1.00
H1047  H     0.76546   0.28779   0.01316   0.00000  Uiso   1.00
H1048  H     0.86082   0.36090   0.76681   0.00000  Uiso   1.00
H1049  H     0.20858   0.40954   0.14325   0.00000  Uiso   1.00
O1050  O     0.78989   0.23760   0.04190   0.00000  Uiso   1.00
O1051  O     0.91501   0.33351   0.71871   0.00000  Uiso   1.00
O1052  O     0.37127   0.39732   0.21260   0.00000  Uiso   1.00
N1053  N     0.90088   0.24598   0.03630   0.00000  Uiso   1.00
N1054  N     0.99003   0.31433   0.80597   0.00000  Uiso   1.00
N1055  N     0.31516   0.35980   0.15791   0.00000  Uiso   1.00
N1056  N     0.81431   0.27820   0.01835   0.00000  Uiso   1.00
N1057  N     0.90345   0.34654   0.78803   0.00000  Uiso   1.00
N1058  N     0.22859   0.39202   0.13996   0.00000  Uiso   1.00
C1059  C     0.38799   0.31962   0.91758   0.00000  Uiso   1.00
C1060  C     0.42304   0.34414   0.90897   0.00000  Uiso   1.00
C1061  C     0.41338   0.36963   0.92039   0.00000  Uiso   1.00
C1062  C     0.45020   0.38936   0.90964   0.00000  Uiso   1.00
C1063  C     0.49776   0.42829   0.89950   0.00000  Uiso   1.00
C1064  C     0.33391   0.30594   0.86169   0.00000  Uiso   1.00
C1065  C     0.24932   0.29931   0.83336   0.00000  Uiso   1.00
C1066  C     0.21112   0.28689   0.78281   0.00000  Uiso   1.00
C1067  C     0.12033   0.26649   0.69928   0.00000  Uiso   1.00
C1068  C     0.46361   0.30173   0.95506   0.00000  Uiso   1.00
C1069  C     0.48806   0.29154   0.00524   0.00000  Uiso   1.00
C1070  C     0.55905   0.27556   0.03329   0.00000  Uiso   1.00
C1071  C     0.66962   0.24862   0.09475   0.00000  Uiso   1.00
C1072  C     0.47057   0.30934   0.87816   0.00000  Uiso   1.00
C1073  C     0.46789   0.33856   0.88756   0.00000  Uiso   1.00
C1074  C     0.50474   0.35826   0.87678   0.00000  Uiso   1.00
C1075  C     0.49514   0.38377   0.88819   0.00000  Uiso   1.00
C1076  C     0.37876   0.30036   0.84028   0.00000  Uiso   1.00
C1077  C     0.34068   0.28794   0.78976   0.00000  Uiso   1.00
C1078  C     0.25605   0.28129   0.76136   0.00000  Uiso   1.00
C1079  C     0.50846   0.29614   0.93365   0.00000  Uiso   1.00
C1080  C     0.57942   0.28017   0.96163   0.00000  Uiso   1.00
C1081  C     0.60398   0.26996   0.01185   0.00000  Uiso   1.00
H1082  H     0.35307   0.32397   0.93424   0.00000  Uiso   1.00
H1083  H     0.37866   0.37394   0.93695   0.00000  Uiso   1.00
H1084  H     0.21463   0.30363   0.84994   0.00000  Uiso   1.00
H1085  H     0.45334   0.29587   0.02179   0.00000  Uiso   1.00
H1086  H     0.42678   0.42689   0.93050   0.00000  Uiso   1.00
H1087  H     0.08093   0.27863   0.74704   0.00000  Uiso   1.00
H1088  H     0.58428   0.26225   0.10942   0.00000  Uiso   1.00
H1089  H     0.50548   0.30499   0.86149   0.00000  Uiso   1.00
H1090  H     0.53944   0.35393   0.86022   0.00000  Uiso   1.00
H1091  H     0.37541   0.28362   0.77320   0.00000  Uiso   1.00
H1092  H     0.61411   0.27585   0.94505   0.00000  Uiso   1.00
H1093  H     0.55727   0.41065   0.86822   0.00000  Uiso   1.00
H1094  H     0.21142   0.26239   0.68476   0.00000  Uiso   1.00
H1095  H     0.71477   0.24601   0.04714   0.00000  Uiso   1.00
O1096  O     0.51159   0.45131   0.89981   0.00000  Uiso   1.00
O1097  O     0.05785   0.25679   0.65913   0.00000  Uiso   1.00
O1098  O     0.71823   0.23530   0.13456   0.00000  Uiso   1.00
N1099  N     0.45285   0.41635   0.91603   0.00000  Uiso   1.00
N1100  N     0.12949   0.27774   0.74450   0.00000  Uiso   1.00
N1101  N     0.60007   0.26242   0.08329   0.00000  Uiso   1.00
N1102  N     0.52307   0.40761   0.88251   0.00000  Uiso   1.00
N1103  N     0.19971   0.26900   0.71098   0.00000  Uiso   1.00
N1104  N     0.67029   0.25368   0.04977   0.00000  Uiso   1.00
