data_job_05615
_audit_creation_date              2018-12-19
_audit_creation_method            'Materials Studio'
_symmetry_space_group_name_H-M    'P1'
_symmetry_Int_Tables_number       1
_symmetry_cell_setting            triclinic
loop_
_symmetry_equiv_pos_as_xyz
  x,y,z
_cell_length_a                    21.7649
_cell_length_b                    21.7649
_cell_length_c                    23.8882
_cell_angle_alpha                 90.0000
_cell_angle_beta                  90.0000
_cell_angle_gamma                 90.0000
loop_
_atom_site_label
_atom_site_type_symbol
_atom_site_fract_x
_atom_site_fract_y
_atom_site_fract_z
_atom_site_U_iso_or_equiv
_atom_site_adp_type
_atom_site_occupancy
C1     C     0.55162   0.83049   0.55230   0.00000  Uiso   1.00
C2     C     0.60001   0.80878   0.51059   0.00000  Uiso   1.00
C3     C     0.62813   0.75155   0.51047   0.00000  Uiso   1.00
C4     C     0.67124   0.74058   0.46881   0.00000  Uiso   1.00
C5     C     0.74421   0.70008   0.41016   0.00000  Uiso   1.00
C6     C     0.57692   0.88930   0.57824   0.00000  Uiso   1.00
C7     C     0.58560   0.89977   0.63500   0.00000  Uiso   1.00
C8     C     0.60926   0.95659   0.65028   0.00000  Uiso   1.00
C9     C     0.64633   0.04111   0.69666   0.00000  Uiso   1.00
C10    C     0.49614   0.84979   0.51751   0.00000  Uiso   1.00
C11    C     0.43689   0.82705   0.52322   0.00000  Uiso   1.00
C12    C     0.39253   0.85062   0.48739   0.00000  Uiso   1.00
C13    C     0.30418   0.87379   0.43948   0.00000  Uiso   1.00
C14    C     0.57818   0.91278   0.47852   0.00000  Uiso   1.00
C15    C     0.61444   0.85347   0.47052   0.00000  Uiso   1.00
C16    C     0.65752   0.84259   0.42885   0.00000  Uiso   1.00
C17    C     0.68569   0.78535   0.42867   0.00000  Uiso   1.00
C18    C     0.59135   0.93399   0.53817   0.00000  Uiso   1.00
C19    C     0.61499   0.99081   0.55337   0.00000  Uiso   1.00
C20    C     0.62372   0.00136   0.61014   0.00000  Uiso   1.00
C21    C     0.51056   0.89448   0.47744   0.00000  Uiso   1.00
C22    C     0.46628   0.91809   0.44160   0.00000  Uiso   1.00
C23    C     0.40699   0.89539   0.44725   0.00000  Uiso   1.00
H24    H     0.54039   0.79570   0.58350   0.00000  Uiso   1.00
H25    H     0.61696   0.71697   0.54149   0.00000  Uiso   1.00
H26    H     0.57443   0.86517   0.66600   0.00000  Uiso   1.00
H27    H     0.42575   0.79246   0.55424   0.00000  Uiso   1.00
H28    H     0.70822   0.64941   0.47726   0.00000  Uiso   1.00
H29    H     0.61854   0.96191   0.73979   0.00000  Uiso   1.00
H30    H     0.30500   0.80859   0.50412   0.00000  Uiso   1.00
H31    H     0.58941   0.94758   0.44732   0.00000  Uiso   1.00
H32    H     0.66867   0.87718   0.39784   0.00000  Uiso   1.00
H33    H     0.62615   0.02539   0.52235   0.00000  Uiso   1.00
H34    H     0.47746   0.95268   0.41059   0.00000  Uiso   1.00
H35    H     0.75020   0.77945   0.36067   0.00000  Uiso   1.00
H36    H     0.66051   0.09195   0.62320   0.00000  Uiso   1.00
H37    H     0.34698   0.93862   0.38754   0.00000  Uiso   1.00
O38    O     0.78048   0.66539   0.38889   0.00000  Uiso   1.00
O39    O     0.66280   0.07538   0.73331   0.00000  Uiso   1.00
O40    O     0.25146   0.87422   0.42412   0.00000  Uiso   1.00
N41    N     0.70721   0.68967   0.45661   0.00000  Uiso   1.00
N42    N     0.62337   0.98184   0.70205   0.00000  Uiso   1.00
N43    N     0.33024   0.83850   0.48174   0.00000  Uiso   1.00
N44    N     0.72980   0.75964   0.39387   0.00000  Uiso   1.00
N45    N     0.64596   0.05181   0.63932   0.00000  Uiso   1.00
N46    N     0.35283   0.90847   0.41900   0.00000  Uiso   1.00
C47    C     0.05162   0.33049   0.05230   0.00000  Uiso   1.00
C48    C     0.10001   0.30878   0.01059   0.00000  Uiso   1.00
C49    C     0.12813   0.25155   0.01047   0.00000  Uiso   1.00
C50    C     0.17124   0.24058   0.96881   0.00000  Uiso   1.00
C51    C     0.24421   0.20008   0.91016   0.00000  Uiso   1.00
C52    C     0.07692   0.38930   0.07824   0.00000  Uiso   1.00
C53    C     0.08560   0.39977   0.13500   0.00000  Uiso   1.00
C54    C     0.10926   0.45659   0.15028   0.00000  Uiso   1.00
C55    C     0.14633   0.54111   0.19666   0.00000  Uiso   1.00
C56    C     0.99614   0.34979   0.01751   0.00000  Uiso   1.00
C57    C     0.93689   0.32705   0.02322   0.00000  Uiso   1.00
C58    C     0.89253   0.35062   0.98739   0.00000  Uiso   1.00
C59    C     0.80418   0.37379   0.93948   0.00000  Uiso   1.00
C60    C     0.07818   0.41278   0.97852   0.00000  Uiso   1.00
C61    C     0.11444   0.35347   0.97052   0.00000  Uiso   1.00
C62    C     0.15752   0.34259   0.92885   0.00000  Uiso   1.00
C63    C     0.18569   0.28535   0.92867   0.00000  Uiso   1.00
C64    C     0.09135   0.43399   0.03817   0.00000  Uiso   1.00
C65    C     0.11499   0.49081   0.05337   0.00000  Uiso   1.00
C66    C     0.12372   0.50136   0.11014   0.00000  Uiso   1.00
C67    C     0.01056   0.39448   0.97744   0.00000  Uiso   1.00
C68    C     0.96628   0.41809   0.94160   0.00000  Uiso   1.00
C69    C     0.90699   0.39539   0.94725   0.00000  Uiso   1.00
H70    H     0.04039   0.29570   0.08350   0.00000  Uiso   1.00
H71    H     0.11696   0.21697   0.04149   0.00000  Uiso   1.00
H72    H     0.07443   0.36517   0.16600   0.00000  Uiso   1.00
H73    H     0.92575   0.29246   0.05424   0.00000  Uiso   1.00
H74    H     0.20822   0.14941   0.97726   0.00000  Uiso   1.00
H75    H     0.11854   0.46191   0.23979   0.00000  Uiso   1.00
H76    H     0.80500   0.30859   0.00412   0.00000  Uiso   1.00
H77    H     0.08941   0.44758   0.94732   0.00000  Uiso   1.00
H78    H     0.16867   0.37718   0.89784   0.00000  Uiso   1.00
H79    H     0.12615   0.52539   0.02235   0.00000  Uiso   1.00
H80    H     0.97746   0.45268   0.91059   0.00000  Uiso   1.00
H81    H     0.25020   0.27945   0.86067   0.00000  Uiso   1.00
H82    H     0.16051   0.59195   0.12320   0.00000  Uiso   1.00
H83    H     0.84698   0.43862   0.88754   0.00000  Uiso   1.00
O84    O     0.28048   0.16539   0.88889   0.00000  Uiso   1.00
O85    O     0.16280   0.57538   0.23331   0.00000  Uiso   1.00
O86    O     0.75146   0.37422   0.92412   0.00000  Uiso   1.00
N87    N     0.20721   0.18967   0.95661   0.00000  Uiso   1.00
N88    N     0.12337   0.48184   0.20205   0.00000  Uiso   1.00
N89    N     0.83024   0.33850   0.98174   0.00000  Uiso   1.00
N90    N     0.22980   0.25964   0.89387   0.00000  Uiso   1.00
N91    N     0.14596   0.55181   0.13932   0.00000  Uiso   1.00
N92    N     0.85283   0.40847   0.91900   0.00000  Uiso   1.00
C93    C     0.94838   0.66951   0.05230   0.00000  Uiso   1.00
C94    C     0.89999   0.69122   0.01059   0.00000  Uiso   1.00
C95    C     0.87187   0.74845   0.01047   0.00000  Uiso   1.00
C96    C     0.82876   0.75942   0.96881   0.00000  Uiso   1.00
C97    C     0.75579   0.79992   0.91016   0.00000  Uiso   1.00
C98    C     0.92308   0.61070   0.07824   0.00000  Uiso   1.00
C99    C     0.91440   0.60023   0.13500   0.00000  Uiso   1.00
C100   C     0.89074   0.54341   0.15028   0.00000  Uiso   1.00
C101   C     0.85367   0.45889   0.19666   0.00000  Uiso   1.00
C102   C     0.00386   0.65021   0.01751   0.00000  Uiso   1.00
C103   C     0.06311   0.67295   0.02322   0.00000  Uiso   1.00
C104   C     0.10747   0.64938   0.98739   0.00000  Uiso   1.00
C105   C     0.19582   0.62621   0.93948   0.00000  Uiso   1.00
C106   C     0.92182   0.58722   0.97852   0.00000  Uiso   1.00
C107   C     0.88556   0.64653   0.97052   0.00000  Uiso   1.00
C108   C     0.84248   0.65741   0.92885   0.00000  Uiso   1.00
C109   C     0.81431   0.71465   0.92867   0.00000  Uiso   1.00
C110   C     0.90865   0.56601   0.03817   0.00000  Uiso   1.00
C111   C     0.88501   0.50919   0.05337   0.00000  Uiso   1.00
C112   C     0.87628   0.49864   0.11014   0.00000  Uiso   1.00
C113   C     0.98944   0.60552   0.97744   0.00000  Uiso   1.00
C114   C     0.03372   0.58191   0.94160   0.00000  Uiso   1.00
C115   C     0.09301   0.60461   0.94725   0.00000  Uiso   1.00
H116   H     0.95961   0.70430   0.08350   0.00000  Uiso   1.00
H117   H     0.88304   0.78303   0.04149   0.00000  Uiso   1.00
H118   H     0.92557   0.63483   0.16600   0.00000  Uiso   1.00
H119   H     0.07425   0.70754   0.05424   0.00000  Uiso   1.00
H120   H     0.79178   0.85059   0.97726   0.00000  Uiso   1.00
H121   H     0.88146   0.53809   0.23979   0.00000  Uiso   1.00
H122   H     0.19500   0.69141   0.00412   0.00000  Uiso   1.00
H123   H     0.91059   0.55242   0.94732   0.00000  Uiso   1.00
H124   H     0.83133   0.62282   0.89784   0.00000  Uiso   1.00
H125   H     0.87385   0.47461   0.02235   0.00000  Uiso   1.00
H126   H     0.02254   0.54732   0.91059   0.00000  Uiso   1.00
H127   H     0.74980   0.72055   0.86067   0.00000  Uiso   1.00
H128   H     0.83949   0.40805   0.12320   0.00000  Uiso   1.00
H129   H     0.15302   0.56138   0.88754   0.00000  Uiso   1.00
O130   O     0.71952   0.83461   0.88889   0.00000  Uiso   1.00
O131   O     0.83720   0.42462   0.23331   0.00000  Uiso   1.00
O132   O     0.24854   0.62578   0.92412   0.00000  Uiso   1.00
N133   N     0.79279   0.81033   0.95661   0.00000  Uiso   1.00
N134   N     0.87663   0.51816   0.20205   0.00000  Uiso   1.00
N135   N     0.16976   0.66150   0.98174   0.00000  Uiso   1.00
N136   N     0.77020   0.74036   0.89387   0.00000  Uiso   1.00
N137   N     0.85404   0.44819   0.13932   0.00000  Uiso   1.00
N138   N     0.14717   0.59153   0.91900   0.00000  Uiso   1.00
C139   C     0.44838   0.16951   0.55230   0.00000  Uiso   1.00
C140   C     0.39999   0.19122   0.51059   0.00000  Uiso   1.00
C141   C     0.37187   0.24845   0.51047   0.00000  Uiso   1.00
C142   C     0.32876   0.25942   0.46881   0.00000  Uiso   1.00
C143   C     0.25579   0.29992   0.41016   0.00000  Uiso   1.00
C144   C     0.42308   0.11070   0.57824   0.00000  Uiso   1.00
C145   C     0.41440   0.10023   0.63500   0.00000  Uiso   1.00
C146   C     0.39074   0.04341   0.65028   0.00000  Uiso   1.00
C147   C     0.35367   0.95889   0.69666   0.00000  Uiso   1.00
C148   C     0.50386   0.15021   0.51751   0.00000  Uiso   1.00
C149   C     0.56311   0.17295   0.52322   0.00000  Uiso   1.00
C150   C     0.60747   0.14938   0.48739   0.00000  Uiso   1.00
C151   C     0.69582   0.12621   0.43948   0.00000  Uiso   1.00
C152   C     0.42182   0.08722   0.47852   0.00000  Uiso   1.00
C153   C     0.38556   0.14653   0.47052   0.00000  Uiso   1.00
C154   C     0.34248   0.15741   0.42885   0.00000  Uiso   1.00
C155   C     0.31431   0.21465   0.42867   0.00000  Uiso   1.00
C156   C     0.40865   0.06601   0.53817   0.00000  Uiso   1.00
C157   C     0.38501   0.00919   0.55337   0.00000  Uiso   1.00
C158   C     0.37628   0.99864   0.61014   0.00000  Uiso   1.00
C159   C     0.48944   0.10552   0.47744   0.00000  Uiso   1.00
C160   C     0.53372   0.08191   0.44160   0.00000  Uiso   1.00
C161   C     0.59301   0.10461   0.44725   0.00000  Uiso   1.00
H162   H     0.45961   0.20430   0.58350   0.00000  Uiso   1.00
H163   H     0.38304   0.28303   0.54149   0.00000  Uiso   1.00
H164   H     0.42557   0.13483   0.66600   0.00000  Uiso   1.00
H165   H     0.57425   0.20754   0.55424   0.00000  Uiso   1.00
H166   H     0.29178   0.35059   0.47726   0.00000  Uiso   1.00
H167   H     0.38146   0.03809   0.73979   0.00000  Uiso   1.00
H168   H     0.69500   0.19141   0.50412   0.00000  Uiso   1.00
H169   H     0.41059   0.05242   0.44732   0.00000  Uiso   1.00
H170   H     0.33133   0.12282   0.39784   0.00000  Uiso   1.00
H171   H     0.37385   0.97461   0.52235   0.00000  Uiso   1.00
H172   H     0.52254   0.04732   0.41059   0.00000  Uiso   1.00
H173   H     0.24980   0.22055   0.36067   0.00000  Uiso   1.00
H174   H     0.33949   0.90805   0.62320   0.00000  Uiso   1.00
H175   H     0.65302   0.06138   0.38754   0.00000  Uiso   1.00
O176   O     0.21952   0.33461   0.38889   0.00000  Uiso   1.00
O177   O     0.33720   0.92462   0.73331   0.00000  Uiso   1.00
O178   O     0.74854   0.12578   0.42412   0.00000  Uiso   1.00
N179   N     0.29279   0.31033   0.45661   0.00000  Uiso   1.00
N180   N     0.37663   0.01816   0.70205   0.00000  Uiso   1.00
N181   N     0.66976   0.16150   0.48174   0.00000  Uiso   1.00
N182   N     0.27020   0.24036   0.39387   0.00000  Uiso   1.00
N183   N     0.35404   0.94819   0.63932   0.00000  Uiso   1.00
N184   N     0.64717   0.09153   0.41900   0.00000  Uiso   1.00
C185   C     0.16951   0.05162   0.80230   0.00000  Uiso   1.00
C186   C     0.19122   0.10001   0.76059   0.00000  Uiso   1.00
C187   C     0.24845   0.12813   0.76047   0.00000  Uiso   1.00
C188   C     0.25942   0.17124   0.71881   0.00000  Uiso   1.00
C189   C     0.29992   0.24421   0.66016   0.00000  Uiso   1.00
C190   C     0.11070   0.07692   0.82824   0.00000  Uiso   1.00
C191   C     0.10023   0.08560   0.88500   0.00000  Uiso   1.00
C192   C     0.04341   0.10926   0.90028   0.00000  Uiso   1.00
C193   C     0.95889   0.14633   0.94666   0.00000  Uiso   1.00
C194   C     0.15021   0.99614   0.76751   0.00000  Uiso   1.00
C195   C     0.17295   0.93689   0.77322   0.00000  Uiso   1.00
C196   C     0.14938   0.89253   0.73739   0.00000  Uiso   1.00
C197   C     0.12621   0.80418   0.68948   0.00000  Uiso   1.00
C198   C     0.08722   0.07818   0.72852   0.00000  Uiso   1.00
C199   C     0.14653   0.11444   0.72052   0.00000  Uiso   1.00
C200   C     0.15741   0.15752   0.67885   0.00000  Uiso   1.00
C201   C     0.21465   0.18569   0.67867   0.00000  Uiso   1.00
C202   C     0.06601   0.09135   0.78817   0.00000  Uiso   1.00
C203   C     0.00919   0.11499   0.80337   0.00000  Uiso   1.00
C204   C     0.99864   0.12372   0.86014   0.00000  Uiso   1.00
C205   C     0.10552   0.01056   0.72744   0.00000  Uiso   1.00
C206   C     0.08191   0.96628   0.69160   0.00000  Uiso   1.00
C207   C     0.10461   0.90699   0.69725   0.00000  Uiso   1.00
H208   H     0.20430   0.04039   0.83350   0.00000  Uiso   1.00
H209   H     0.28303   0.11696   0.79149   0.00000  Uiso   1.00
H210   H     0.13483   0.07443   0.91600   0.00000  Uiso   1.00
H211   H     0.20754   0.92575   0.80424   0.00000  Uiso   1.00
H212   H     0.35059   0.20822   0.72726   0.00000  Uiso   1.00
H213   H     0.03809   0.11854   0.98979   0.00000  Uiso   1.00
H214   H     0.19141   0.80500   0.75412   0.00000  Uiso   1.00
H215   H     0.05242   0.08941   0.69732   0.00000  Uiso   1.00
H216   H     0.12282   0.16867   0.64784   0.00000  Uiso   1.00
H217   H     0.97461   0.12615   0.77235   0.00000  Uiso   1.00
H218   H     0.04732   0.97746   0.66059   0.00000  Uiso   1.00
H219   H     0.22055   0.25020   0.61067   0.00000  Uiso   1.00
H220   H     0.90805   0.16051   0.87320   0.00000  Uiso   1.00
H221   H     0.06138   0.84698   0.63754   0.00000  Uiso   1.00
O222   O     0.33461   0.28048   0.63889   0.00000  Uiso   1.00
O223   O     0.92462   0.16280   0.98331   0.00000  Uiso   1.00
O224   O     0.12578   0.75146   0.67412   0.00000  Uiso   1.00
N225   N     0.31033   0.20721   0.70661   0.00000  Uiso   1.00
N226   N     0.01816   0.12337   0.95205   0.00000  Uiso   1.00
N227   N     0.16150   0.83024   0.73174   0.00000  Uiso   1.00
N228   N     0.24036   0.22980   0.64387   0.00000  Uiso   1.00
N229   N     0.94819   0.14596   0.88932   0.00000  Uiso   1.00
N230   N     0.09153   0.85283   0.66900   0.00000  Uiso   1.00
C231   C     0.66951   0.55162   0.30230   0.00000  Uiso   1.00
C232   C     0.69122   0.60001   0.26059   0.00000  Uiso   1.00
C233   C     0.74845   0.62813   0.26047   0.00000  Uiso   1.00
C234   C     0.75942   0.67124   0.21881   0.00000  Uiso   1.00
C235   C     0.79992   0.74421   0.16016   0.00000  Uiso   1.00
C236   C     0.61070   0.57692   0.32824   0.00000  Uiso   1.00
C237   C     0.60023   0.58560   0.38500   0.00000  Uiso   1.00
C238   C     0.54341   0.60926   0.40028   0.00000  Uiso   1.00
C239   C     0.45889   0.64633   0.44666   0.00000  Uiso   1.00
C240   C     0.65021   0.49614   0.26751   0.00000  Uiso   1.00
C241   C     0.67295   0.43689   0.27322   0.00000  Uiso   1.00
C242   C     0.64938   0.39253   0.23739   0.00000  Uiso   1.00
C243   C     0.62621   0.30418   0.18948   0.00000  Uiso   1.00
C244   C     0.58722   0.57818   0.22852   0.00000  Uiso   1.00
C245   C     0.64653   0.61444   0.22052   0.00000  Uiso   1.00
C246   C     0.65741   0.65752   0.17885   0.00000  Uiso   1.00
C247   C     0.71465   0.68569   0.17867   0.00000  Uiso   1.00
C248   C     0.56601   0.59135   0.28817   0.00000  Uiso   1.00
C249   C     0.50919   0.61499   0.30337   0.00000  Uiso   1.00
C250   C     0.49864   0.62372   0.36014   0.00000  Uiso   1.00
C251   C     0.60552   0.51056   0.22744   0.00000  Uiso   1.00
C252   C     0.58191   0.46628   0.19160   0.00000  Uiso   1.00
C253   C     0.60461   0.40699   0.19725   0.00000  Uiso   1.00
H254   H     0.70430   0.54039   0.33350   0.00000  Uiso   1.00
H255   H     0.78303   0.61696   0.29149   0.00000  Uiso   1.00
H256   H     0.63483   0.57443   0.41600   0.00000  Uiso   1.00
H257   H     0.70754   0.42575   0.30424   0.00000  Uiso   1.00
H258   H     0.85059   0.70822   0.22726   0.00000  Uiso   1.00
H259   H     0.53809   0.61854   0.48979   0.00000  Uiso   1.00
H260   H     0.69141   0.30500   0.25412   0.00000  Uiso   1.00
H261   H     0.55242   0.58941   0.19732   0.00000  Uiso   1.00
H262   H     0.62282   0.66867   0.14784   0.00000  Uiso   1.00
H263   H     0.47461   0.62615   0.27235   0.00000  Uiso   1.00
H264   H     0.54732   0.47746   0.16059   0.00000  Uiso   1.00
H265   H     0.72055   0.75020   0.11067   0.00000  Uiso   1.00
H266   H     0.40805   0.66051   0.37320   0.00000  Uiso   1.00
H267   H     0.56138   0.34698   0.13754   0.00000  Uiso   1.00
O268   O     0.83461   0.78048   0.13889   0.00000  Uiso   1.00
O269   O     0.42462   0.66280   0.48331   0.00000  Uiso   1.00
O270   O     0.62578   0.25146   0.17412   0.00000  Uiso   1.00
N271   N     0.81033   0.70721   0.20661   0.00000  Uiso   1.00
N272   N     0.51816   0.62337   0.45205   0.00000  Uiso   1.00
N273   N     0.66150   0.33024   0.23174   0.00000  Uiso   1.00
N274   N     0.74036   0.72980   0.14387   0.00000  Uiso   1.00
N275   N     0.44819   0.64596   0.38932   0.00000  Uiso   1.00
N276   N     0.59153   0.35283   0.16900   0.00000  Uiso   1.00
C277   C     0.33049   0.44838   0.30230   0.00000  Uiso   1.00
C278   C     0.30878   0.39999   0.26059   0.00000  Uiso   1.00
C279   C     0.25155   0.37187   0.26047   0.00000  Uiso   1.00
C280   C     0.24058   0.32876   0.21881   0.00000  Uiso   1.00
C281   C     0.20008   0.25579   0.16016   0.00000  Uiso   1.00
C282   C     0.38930   0.42308   0.32824   0.00000  Uiso   1.00
C283   C     0.39977   0.41440   0.38500   0.00000  Uiso   1.00
C284   C     0.45659   0.39074   0.40028   0.00000  Uiso   1.00
C285   C     0.54111   0.35367   0.44666   0.00000  Uiso   1.00
C286   C     0.34979   0.50386   0.26751   0.00000  Uiso   1.00
C287   C     0.32705   0.56311   0.27322   0.00000  Uiso   1.00
C288   C     0.35062   0.60747   0.23739   0.00000  Uiso   1.00
C289   C     0.37379   0.69582   0.18948   0.00000  Uiso   1.00
C290   C     0.41278   0.42182   0.22852   0.00000  Uiso   1.00
C291   C     0.35347   0.38556   0.22052   0.00000  Uiso   1.00
C292   C     0.34259   0.34248   0.17885   0.00000  Uiso   1.00
C293   C     0.28535   0.31431   0.17867   0.00000  Uiso   1.00
C294   C     0.43399   0.40865   0.28817   0.00000  Uiso   1.00
C295   C     0.49081   0.38501   0.30337   0.00000  Uiso   1.00
C296   C     0.50136   0.37628   0.36014   0.00000  Uiso   1.00
C297   C     0.39448   0.48944   0.22744   0.00000  Uiso   1.00
C298   C     0.41809   0.53372   0.19160   0.00000  Uiso   1.00
C299   C     0.39539   0.59301   0.19725   0.00000  Uiso   1.00
H300   H     0.29570   0.45961   0.33350   0.00000  Uiso   1.00
H301   H     0.21697   0.38304   0.29149   0.00000  Uiso   1.00
H302   H     0.36517   0.42557   0.41600   0.00000  Uiso   1.00
H303   H     0.29246   0.57425   0.30424   0.00000  Uiso   1.00
H304   H     0.14941   0.29178   0.22726   0.00000  Uiso   1.00
H305   H     0.46191   0.38146   0.48979   0.00000  Uiso   1.00
H306   H     0.30859   0.69500   0.25412   0.00000  Uiso   1.00
H307   H     0.44758   0.41059   0.19732   0.00000  Uiso   1.00
H308   H     0.37718   0.33133   0.14784   0.00000  Uiso   1.00
H309   H     0.52539   0.37385   0.27235   0.00000  Uiso   1.00
H310   H     0.45268   0.52254   0.16059   0.00000  Uiso   1.00
H311   H     0.27945   0.24980   0.11067   0.00000  Uiso   1.00
H312   H     0.59195   0.33949   0.37320   0.00000  Uiso   1.00
H313   H     0.43862   0.65302   0.13754   0.00000  Uiso   1.00
O314   O     0.16539   0.21952   0.13889   0.00000  Uiso   1.00
O315   O     0.57538   0.33720   0.48331   0.00000  Uiso   1.00
O316   O     0.37422   0.74854   0.17412   0.00000  Uiso   1.00
N317   N     0.18967   0.29279   0.20661   0.00000  Uiso   1.00
N318   N     0.48184   0.37663   0.45205   0.00000  Uiso   1.00
N319   N     0.33850   0.66976   0.23174   0.00000  Uiso   1.00
N320   N     0.25964   0.27020   0.14387   0.00000  Uiso   1.00
N321   N     0.55181   0.35404   0.38932   0.00000  Uiso   1.00
N322   N     0.40847   0.64717   0.16900   0.00000  Uiso   1.00
C323   C     0.83049   0.94838   0.80230   0.00000  Uiso   1.00
C324   C     0.80878   0.89999   0.76059   0.00000  Uiso   1.00
C325   C     0.75155   0.87187   0.76047   0.00000  Uiso   1.00
C326   C     0.74058   0.82876   0.71881   0.00000  Uiso   1.00
C327   C     0.70008   0.75579   0.66016   0.00000  Uiso   1.00
C328   C     0.88930   0.92308   0.82824   0.00000  Uiso   1.00
C329   C     0.89977   0.91440   0.88500   0.00000  Uiso   1.00
C330   C     0.95659   0.89074   0.90028   0.00000  Uiso   1.00
C331   C     0.04111   0.85367   0.94666   0.00000  Uiso   1.00
C332   C     0.84979   0.00386   0.76751   0.00000  Uiso   1.00
C333   C     0.82705   0.06311   0.77322   0.00000  Uiso   1.00
C334   C     0.85062   0.10747   0.73739   0.00000  Uiso   1.00
C335   C     0.87379   0.19582   0.68948   0.00000  Uiso   1.00
C336   C     0.91278   0.92182   0.72852   0.00000  Uiso   1.00
C337   C     0.85347   0.88556   0.72052   0.00000  Uiso   1.00
C338   C     0.84259   0.84248   0.67885   0.00000  Uiso   1.00
C339   C     0.78535   0.81431   0.67867   0.00000  Uiso   1.00
C340   C     0.93399   0.90865   0.78817   0.00000  Uiso   1.00
C341   C     0.99081   0.88501   0.80337   0.00000  Uiso   1.00
C342   C     0.00136   0.87628   0.86014   0.00000  Uiso   1.00
C343   C     0.89448   0.98944   0.72744   0.00000  Uiso   1.00
C344   C     0.91809   0.03372   0.69160   0.00000  Uiso   1.00
C345   C     0.89539   0.09301   0.69725   0.00000  Uiso   1.00
H346   H     0.79570   0.95961   0.83350   0.00000  Uiso   1.00
H347   H     0.71697   0.88304   0.79149   0.00000  Uiso   1.00
H348   H     0.86517   0.92557   0.91600   0.00000  Uiso   1.00
H349   H     0.79246   0.07425   0.80424   0.00000  Uiso   1.00
H350   H     0.64941   0.79178   0.72726   0.00000  Uiso   1.00
H351   H     0.96191   0.88146   0.98979   0.00000  Uiso   1.00
H352   H     0.80859   0.19500   0.75412   0.00000  Uiso   1.00
H353   H     0.94758   0.91059   0.69732   0.00000  Uiso   1.00
H354   H     0.87718   0.83133   0.64784   0.00000  Uiso   1.00
H355   H     0.02539   0.87385   0.77235   0.00000  Uiso   1.00
H356   H     0.95268   0.02254   0.66059   0.00000  Uiso   1.00
H357   H     0.77945   0.74980   0.61067   0.00000  Uiso   1.00
H358   H     0.09195   0.83949   0.87320   0.00000  Uiso   1.00
H359   H     0.93862   0.15302   0.63754   0.00000  Uiso   1.00
O360   O     0.66539   0.71952   0.63889   0.00000  Uiso   1.00
O361   O     0.07538   0.83720   0.98331   0.00000  Uiso   1.00
O362   O     0.87422   0.24854   0.67412   0.00000  Uiso   1.00
N363   N     0.68967   0.79279   0.70661   0.00000  Uiso   1.00
N364   N     0.98184   0.87663   0.95205   0.00000  Uiso   1.00
N365   N     0.83850   0.16976   0.73174   0.00000  Uiso   1.00
N366   N     0.75964   0.77020   0.64387   0.00000  Uiso   1.00
N367   N     0.05181   0.85404   0.88932   0.00000  Uiso   1.00
N368   N     0.90847   0.14717   0.66900   0.00000  Uiso   1.00
C369   C     0.44838   0.66951   0.69770   0.00000  Uiso   1.00
C370   C     0.39999   0.69122   0.73941   0.00000  Uiso   1.00
C371   C     0.37187   0.74845   0.73953   0.00000  Uiso   1.00
C372   C     0.32876   0.75942   0.78119   0.00000  Uiso   1.00
C373   C     0.25579   0.79992   0.83984   0.00000  Uiso   1.00
C374   C     0.42308   0.61070   0.67176   0.00000  Uiso   1.00
C375   C     0.41440   0.60023   0.61500   0.00000  Uiso   1.00
C376   C     0.39074   0.54341   0.59972   0.00000  Uiso   1.00
C377   C     0.35367   0.45889   0.55334   0.00000  Uiso   1.00
C378   C     0.50386   0.65021   0.73249   0.00000  Uiso   1.00
C379   C     0.56311   0.67295   0.72678   0.00000  Uiso   1.00
C380   C     0.60747   0.64938   0.76261   0.00000  Uiso   1.00
C381   C     0.69582   0.62621   0.81052   0.00000  Uiso   1.00
C382   C     0.42182   0.58722   0.77148   0.00000  Uiso   1.00
C383   C     0.38556   0.64653   0.77948   0.00000  Uiso   1.00
C384   C     0.34248   0.65741   0.82115   0.00000  Uiso   1.00
C385   C     0.31431   0.71465   0.82133   0.00000  Uiso   1.00
C386   C     0.40865   0.56601   0.71183   0.00000  Uiso   1.00
C387   C     0.38501   0.50919   0.69663   0.00000  Uiso   1.00
C388   C     0.37628   0.49864   0.63986   0.00000  Uiso   1.00
C389   C     0.48944   0.60552   0.77256   0.00000  Uiso   1.00
C390   C     0.53372   0.58191   0.80840   0.00000  Uiso   1.00
C391   C     0.59301   0.60461   0.80275   0.00000  Uiso   1.00
H392   H     0.45961   0.70430   0.66650   0.00000  Uiso   1.00
H393   H     0.38304   0.78303   0.70851   0.00000  Uiso   1.00
H394   H     0.42557   0.63483   0.58400   0.00000  Uiso   1.00
H395   H     0.57425   0.70754   0.69576   0.00000  Uiso   1.00
H396   H     0.29178   0.85059   0.77274   0.00000  Uiso   1.00
H397   H     0.38146   0.53809   0.51021   0.00000  Uiso   1.00
H398   H     0.69500   0.69141   0.74588   0.00000  Uiso   1.00
H399   H     0.41059   0.55242   0.80268   0.00000  Uiso   1.00
H400   H     0.33133   0.62282   0.85216   0.00000  Uiso   1.00
H401   H     0.37385   0.47461   0.72765   0.00000  Uiso   1.00
H402   H     0.52254   0.54732   0.83941   0.00000  Uiso   1.00
H403   H     0.24980   0.72055   0.88933   0.00000  Uiso   1.00
H404   H     0.33949   0.40805   0.62680   0.00000  Uiso   1.00
H405   H     0.65302   0.56138   0.86246   0.00000  Uiso   1.00
O406   O     0.21952   0.83461   0.86111   0.00000  Uiso   1.00
O407   O     0.33720   0.42462   0.51669   0.00000  Uiso   1.00
O408   O     0.74854   0.62578   0.82588   0.00000  Uiso   1.00
N409   N     0.29279   0.81033   0.79339   0.00000  Uiso   1.00
N410   N     0.37663   0.51816   0.54795   0.00000  Uiso   1.00
N411   N     0.66976   0.66150   0.76826   0.00000  Uiso   1.00
N412   N     0.27020   0.74036   0.85613   0.00000  Uiso   1.00
N413   N     0.35404   0.44819   0.61068   0.00000  Uiso   1.00
N414   N     0.64717   0.59153   0.83100   0.00000  Uiso   1.00
C415   C     0.94838   0.16951   0.19770   0.00000  Uiso   1.00
C416   C     0.89999   0.19122   0.23941   0.00000  Uiso   1.00
C417   C     0.87187   0.24845   0.23953   0.00000  Uiso   1.00
C418   C     0.82876   0.25942   0.28119   0.00000  Uiso   1.00
C419   C     0.75579   0.29992   0.33984   0.00000  Uiso   1.00
C420   C     0.92308   0.11070   0.17176   0.00000  Uiso   1.00
C421   C     0.91440   0.10023   0.11500   0.00000  Uiso   1.00
C422   C     0.89074   0.04341   0.09972   0.00000  Uiso   1.00
C423   C     0.85367   0.95889   0.05334   0.00000  Uiso   1.00
C424   C     0.00386   0.15021   0.23249   0.00000  Uiso   1.00
C425   C     0.06311   0.17295   0.22678   0.00000  Uiso   1.00
C426   C     0.10747   0.14938   0.26261   0.00000  Uiso   1.00
C427   C     0.19582   0.12621   0.31052   0.00000  Uiso   1.00
C428   C     0.92182   0.08722   0.27148   0.00000  Uiso   1.00
C429   C     0.88556   0.14653   0.27948   0.00000  Uiso   1.00
C430   C     0.84248   0.15741   0.32115   0.00000  Uiso   1.00
C431   C     0.81431   0.21465   0.32133   0.00000  Uiso   1.00
C432   C     0.90865   0.06601   0.21183   0.00000  Uiso   1.00
C433   C     0.88501   0.00919   0.19663   0.00000  Uiso   1.00
C434   C     0.87628   0.99864   0.13986   0.00000  Uiso   1.00
C435   C     0.98944   0.10552   0.27256   0.00000  Uiso   1.00
C436   C     0.03372   0.08191   0.30840   0.00000  Uiso   1.00
C437   C     0.09301   0.10461   0.30275   0.00000  Uiso   1.00
H438   H     0.95961   0.20430   0.16650   0.00000  Uiso   1.00
H439   H     0.88304   0.28303   0.20851   0.00000  Uiso   1.00
H440   H     0.92557   0.13483   0.08400   0.00000  Uiso   1.00
H441   H     0.07425   0.20754   0.19576   0.00000  Uiso   1.00
H442   H     0.79178   0.35059   0.27274   0.00000  Uiso   1.00
H443   H     0.88146   0.03809   0.01021   0.00000  Uiso   1.00
H444   H     0.19500   0.19141   0.24588   0.00000  Uiso   1.00
H445   H     0.91059   0.05242   0.30268   0.00000  Uiso   1.00
H446   H     0.83133   0.12282   0.35216   0.00000  Uiso   1.00
H447   H     0.87385   0.97461   0.22765   0.00000  Uiso   1.00
H448   H     0.02254   0.04732   0.33941   0.00000  Uiso   1.00
H449   H     0.74980   0.22055   0.38933   0.00000  Uiso   1.00
H450   H     0.83949   0.90805   0.12680   0.00000  Uiso   1.00
H451   H     0.15302   0.06138   0.36246   0.00000  Uiso   1.00
O452   O     0.71952   0.33461   0.36111   0.00000  Uiso   1.00
O453   O     0.83720   0.92462   0.01669   0.00000  Uiso   1.00
O454   O     0.24854   0.12578   0.32588   0.00000  Uiso   1.00
N455   N     0.79279   0.31033   0.29339   0.00000  Uiso   1.00
N456   N     0.87663   0.01816   0.04795   0.00000  Uiso   1.00
N457   N     0.16976   0.16150   0.26826   0.00000  Uiso   1.00
N458   N     0.77020   0.24036   0.35613   0.00000  Uiso   1.00
N459   N     0.85404   0.94819   0.11068   0.00000  Uiso   1.00
N460   N     0.14717   0.09153   0.33100   0.00000  Uiso   1.00
C461   C     0.05162   0.83049   0.19770   0.00000  Uiso   1.00
C462   C     0.10001   0.80878   0.23941   0.00000  Uiso   1.00
C463   C     0.12813   0.75155   0.23953   0.00000  Uiso   1.00
C464   C     0.17124   0.74058   0.28119   0.00000  Uiso   1.00
C465   C     0.24421   0.70008   0.33984   0.00000  Uiso   1.00
C466   C     0.07692   0.88930   0.17176   0.00000  Uiso   1.00
C467   C     0.08560   0.89977   0.11500   0.00000  Uiso   1.00
C468   C     0.10926   0.95659   0.09972   0.00000  Uiso   1.00
C469   C     0.14633   0.04111   0.05334   0.00000  Uiso   1.00
C470   C     0.99614   0.84979   0.23249   0.00000  Uiso   1.00
C471   C     0.93689   0.82705   0.22678   0.00000  Uiso   1.00
C472   C     0.89253   0.85062   0.26261   0.00000  Uiso   1.00
C473   C     0.80418   0.87379   0.31052   0.00000  Uiso   1.00
C474   C     0.07818   0.91278   0.27148   0.00000  Uiso   1.00
C475   C     0.11444   0.85347   0.27948   0.00000  Uiso   1.00
C476   C     0.15752   0.84259   0.32115   0.00000  Uiso   1.00
C477   C     0.18569   0.78535   0.32133   0.00000  Uiso   1.00
C478   C     0.09135   0.93399   0.21183   0.00000  Uiso   1.00
C479   C     0.11499   0.99081   0.19663   0.00000  Uiso   1.00
C480   C     0.12372   0.00136   0.13986   0.00000  Uiso   1.00
C481   C     0.01056   0.89448   0.27256   0.00000  Uiso   1.00
C482   C     0.96628   0.91809   0.30840   0.00000  Uiso   1.00
C483   C     0.90699   0.89539   0.30275   0.00000  Uiso   1.00
H484   H     0.04039   0.79570   0.16650   0.00000  Uiso   1.00
H485   H     0.11696   0.71697   0.20851   0.00000  Uiso   1.00
H486   H     0.07443   0.86517   0.08400   0.00000  Uiso   1.00
H487   H     0.92575   0.79246   0.19576   0.00000  Uiso   1.00
H488   H     0.20822   0.64941   0.27274   0.00000  Uiso   1.00
H489   H     0.11854   0.96191   0.01021   0.00000  Uiso   1.00
H490   H     0.80500   0.80859   0.24588   0.00000  Uiso   1.00
H491   H     0.08941   0.94758   0.30268   0.00000  Uiso   1.00
H492   H     0.16867   0.87718   0.35216   0.00000  Uiso   1.00
H493   H     0.12615   0.02539   0.22765   0.00000  Uiso   1.00
H494   H     0.97746   0.95268   0.33941   0.00000  Uiso   1.00
H495   H     0.25020   0.77945   0.38933   0.00000  Uiso   1.00
H496   H     0.16051   0.09195   0.12680   0.00000  Uiso   1.00
H497   H     0.84698   0.93862   0.36246   0.00000  Uiso   1.00
O498   O     0.28048   0.66539   0.36111   0.00000  Uiso   1.00
O499   O     0.16280   0.07538   0.01669   0.00000  Uiso   1.00
O500   O     0.75146   0.87422   0.32588   0.00000  Uiso   1.00
N501   N     0.20721   0.68967   0.29339   0.00000  Uiso   1.00
N502   N     0.12337   0.98184   0.04795   0.00000  Uiso   1.00
N503   N     0.83024   0.83850   0.26826   0.00000  Uiso   1.00
N504   N     0.22980   0.75964   0.35613   0.00000  Uiso   1.00
N505   N     0.14596   0.05181   0.11068   0.00000  Uiso   1.00
N506   N     0.85283   0.90847   0.33100   0.00000  Uiso   1.00
C507   C     0.55162   0.33049   0.69770   0.00000  Uiso   1.00
C508   C     0.60001   0.30878   0.73941   0.00000  Uiso   1.00
C509   C     0.62813   0.25155   0.73953   0.00000  Uiso   1.00
C510   C     0.67124   0.24058   0.78119   0.00000  Uiso   1.00
C511   C     0.74421   0.20008   0.83984   0.00000  Uiso   1.00
C512   C     0.57692   0.38930   0.67176   0.00000  Uiso   1.00
C513   C     0.58560   0.39977   0.61500   0.00000  Uiso   1.00
C514   C     0.60926   0.45659   0.59972   0.00000  Uiso   1.00
C515   C     0.64633   0.54111   0.55334   0.00000  Uiso   1.00
C516   C     0.49614   0.34979   0.73249   0.00000  Uiso   1.00
C517   C     0.43689   0.32705   0.72678   0.00000  Uiso   1.00
C518   C     0.39253   0.35062   0.76261   0.00000  Uiso   1.00
C519   C     0.30418   0.37379   0.81052   0.00000  Uiso   1.00
C520   C     0.57818   0.41278   0.77148   0.00000  Uiso   1.00
C521   C     0.61444   0.35347   0.77948   0.00000  Uiso   1.00
C522   C     0.65752   0.34259   0.82115   0.00000  Uiso   1.00
C523   C     0.68569   0.28535   0.82133   0.00000  Uiso   1.00
C524   C     0.59135   0.43399   0.71183   0.00000  Uiso   1.00
C525   C     0.61499   0.49081   0.69663   0.00000  Uiso   1.00
C526   C     0.62372   0.50136   0.63986   0.00000  Uiso   1.00
C527   C     0.51056   0.39448   0.77256   0.00000  Uiso   1.00
C528   C     0.46628   0.41809   0.80840   0.00000  Uiso   1.00
C529   C     0.40699   0.39539   0.80275   0.00000  Uiso   1.00
H530   H     0.54039   0.29570   0.66650   0.00000  Uiso   1.00
H531   H     0.61696   0.21697   0.70851   0.00000  Uiso   1.00
H532   H     0.57443   0.36517   0.58400   0.00000  Uiso   1.00
H533   H     0.42575   0.29246   0.69576   0.00000  Uiso   1.00
H534   H     0.70822   0.14941   0.77274   0.00000  Uiso   1.00
H535   H     0.61854   0.46191   0.51021   0.00000  Uiso   1.00
H536   H     0.30500   0.30859   0.74588   0.00000  Uiso   1.00
H537   H     0.58941   0.44758   0.80268   0.00000  Uiso   1.00
H538   H     0.66867   0.37718   0.85216   0.00000  Uiso   1.00
H539   H     0.62615   0.52539   0.72765   0.00000  Uiso   1.00
H540   H     0.47746   0.45268   0.83941   0.00000  Uiso   1.00
H541   H     0.75020   0.27945   0.88933   0.00000  Uiso   1.00
H542   H     0.66051   0.59195   0.62680   0.00000  Uiso   1.00
H543   H     0.34698   0.43862   0.86246   0.00000  Uiso   1.00
O544   O     0.78048   0.16539   0.86111   0.00000  Uiso   1.00
O545   O     0.66280   0.57538   0.51669   0.00000  Uiso   1.00
O546   O     0.25146   0.37422   0.82588   0.00000  Uiso   1.00
N547   N     0.70721   0.18967   0.79339   0.00000  Uiso   1.00
N548   N     0.62337   0.48184   0.54795   0.00000  Uiso   1.00
N549   N     0.33024   0.33850   0.76826   0.00000  Uiso   1.00
N550   N     0.72980   0.25964   0.85613   0.00000  Uiso   1.00
N551   N     0.64596   0.55181   0.61068   0.00000  Uiso   1.00
N552   N     0.35283   0.40847   0.83100   0.00000  Uiso   1.00
C553   C     0.83049   0.44838   0.44770   0.00000  Uiso   1.00
C554   C     0.80878   0.39999   0.48941   0.00000  Uiso   1.00
C555   C     0.75155   0.37187   0.48953   0.00000  Uiso   1.00
C556   C     0.74058   0.32876   0.53119   0.00000  Uiso   1.00
C557   C     0.70008   0.25579   0.58984   0.00000  Uiso   1.00
C558   C     0.88930   0.42308   0.42176   0.00000  Uiso   1.00
C559   C     0.89977   0.41440   0.36500   0.00000  Uiso   1.00
C560   C     0.95659   0.39074   0.34972   0.00000  Uiso   1.00
C561   C     0.04111   0.35367   0.30334   0.00000  Uiso   1.00
C562   C     0.84979   0.50386   0.48249   0.00000  Uiso   1.00
C563   C     0.82705   0.56311   0.47678   0.00000  Uiso   1.00
C564   C     0.85062   0.60747   0.51261   0.00000  Uiso   1.00
C565   C     0.87379   0.69582   0.56052   0.00000  Uiso   1.00
C566   C     0.91278   0.42182   0.52148   0.00000  Uiso   1.00
C567   C     0.85347   0.38556   0.52948   0.00000  Uiso   1.00
C568   C     0.84259   0.34248   0.57115   0.00000  Uiso   1.00
C569   C     0.78535   0.31431   0.57133   0.00000  Uiso   1.00
C570   C     0.93399   0.40865   0.46183   0.00000  Uiso   1.00
C571   C     0.99081   0.38501   0.44663   0.00000  Uiso   1.00
C572   C     0.00136   0.37628   0.38986   0.00000  Uiso   1.00
C573   C     0.89448   0.48944   0.52256   0.00000  Uiso   1.00
C574   C     0.91809   0.53372   0.55840   0.00000  Uiso   1.00
C575   C     0.89539   0.59301   0.55275   0.00000  Uiso   1.00
H576   H     0.79570   0.45961   0.41650   0.00000  Uiso   1.00
H577   H     0.71697   0.38304   0.45851   0.00000  Uiso   1.00
H578   H     0.86517   0.42557   0.33400   0.00000  Uiso   1.00
H579   H     0.79246   0.57425   0.44576   0.00000  Uiso   1.00
H580   H     0.64941   0.29178   0.52274   0.00000  Uiso   1.00
H581   H     0.96191   0.38146   0.26021   0.00000  Uiso   1.00
H582   H     0.80859   0.69500   0.49588   0.00000  Uiso   1.00
H583   H     0.94758   0.41059   0.55268   0.00000  Uiso   1.00
H584   H     0.87718   0.33133   0.60216   0.00000  Uiso   1.00
H585   H     0.02539   0.37385   0.47765   0.00000  Uiso   1.00
H586   H     0.95268   0.52254   0.58941   0.00000  Uiso   1.00
H587   H     0.77945   0.24980   0.63933   0.00000  Uiso   1.00
H588   H     0.09195   0.33949   0.37680   0.00000  Uiso   1.00
H589   H     0.93862   0.65302   0.61246   0.00000  Uiso   1.00
O590   O     0.66539   0.21952   0.61111   0.00000  Uiso   1.00
O591   O     0.07538   0.33720   0.26669   0.00000  Uiso   1.00
O592   O     0.87422   0.74854   0.57588   0.00000  Uiso   1.00
N593   N     0.68967   0.29279   0.54339   0.00000  Uiso   1.00
N594   N     0.98184   0.37663   0.29795   0.00000  Uiso   1.00
N595   N     0.83850   0.66976   0.51826   0.00000  Uiso   1.00
N596   N     0.75964   0.27020   0.60613   0.00000  Uiso   1.00
N597   N     0.05181   0.35404   0.36068   0.00000  Uiso   1.00
N598   N     0.90847   0.64717   0.58100   0.00000  Uiso   1.00
C599   C     0.33049   0.94838   0.94770   0.00000  Uiso   1.00
C600   C     0.30878   0.89999   0.98941   0.00000  Uiso   1.00
C601   C     0.25155   0.87187   0.98953   0.00000  Uiso   1.00
C602   C     0.24058   0.82876   0.03119   0.00000  Uiso   1.00
C603   C     0.20008   0.75579   0.08984   0.00000  Uiso   1.00
C604   C     0.38930   0.92308   0.92176   0.00000  Uiso   1.00
C605   C     0.39977   0.91440   0.86500   0.00000  Uiso   1.00
C606   C     0.45659   0.89074   0.84972   0.00000  Uiso   1.00
C607   C     0.54111   0.85367   0.80334   0.00000  Uiso   1.00
C608   C     0.34979   0.00386   0.98249   0.00000  Uiso   1.00
C609   C     0.32705   0.06311   0.97678   0.00000  Uiso   1.00
C610   C     0.35062   0.10747   0.01261   0.00000  Uiso   1.00
C611   C     0.37379   0.19582   0.06052   0.00000  Uiso   1.00
C612   C     0.41278   0.92182   0.02148   0.00000  Uiso   1.00
C613   C     0.35347   0.88556   0.02948   0.00000  Uiso   1.00
C614   C     0.34259   0.84248   0.07115   0.00000  Uiso   1.00
C615   C     0.28535   0.81431   0.07133   0.00000  Uiso   1.00
C616   C     0.43399   0.90865   0.96183   0.00000  Uiso   1.00
C617   C     0.49081   0.88501   0.94663   0.00000  Uiso   1.00
C618   C     0.50136   0.87628   0.88986   0.00000  Uiso   1.00
C619   C     0.39448   0.98944   0.02256   0.00000  Uiso   1.00
C620   C     0.41809   0.03372   0.05840   0.00000  Uiso   1.00
C621   C     0.39539   0.09301   0.05275   0.00000  Uiso   1.00
H622   H     0.29570   0.95961   0.91650   0.00000  Uiso   1.00
H623   H     0.21697   0.88304   0.95851   0.00000  Uiso   1.00
H624   H     0.36517   0.92557   0.83400   0.00000  Uiso   1.00
H625   H     0.29246   0.07425   0.94576   0.00000  Uiso   1.00
H626   H     0.14941   0.79178   0.02274   0.00000  Uiso   1.00
H627   H     0.46191   0.88146   0.76021   0.00000  Uiso   1.00
H628   H     0.30859   0.19500   0.99588   0.00000  Uiso   1.00
H629   H     0.44758   0.91059   0.05268   0.00000  Uiso   1.00
H630   H     0.37718   0.83133   0.10216   0.00000  Uiso   1.00
H631   H     0.52539   0.87385   0.97765   0.00000  Uiso   1.00
H632   H     0.45268   0.02254   0.08941   0.00000  Uiso   1.00
H633   H     0.27945   0.74980   0.13933   0.00000  Uiso   1.00
H634   H     0.59195   0.83949   0.87680   0.00000  Uiso   1.00
H635   H     0.43862   0.15302   0.11246   0.00000  Uiso   1.00
O636   O     0.16539   0.71952   0.11111   0.00000  Uiso   1.00
O637   O     0.57538   0.83720   0.76669   0.00000  Uiso   1.00
O638   O     0.37422   0.24854   0.07588   0.00000  Uiso   1.00
N639   N     0.18967   0.79279   0.04339   0.00000  Uiso   1.00
N640   N     0.48184   0.87663   0.79795   0.00000  Uiso   1.00
N641   N     0.33850   0.16976   0.01826   0.00000  Uiso   1.00
N642   N     0.25964   0.77020   0.10613   0.00000  Uiso   1.00
N643   N     0.55181   0.85404   0.86068   0.00000  Uiso   1.00
N644   N     0.40847   0.14717   0.08100   0.00000  Uiso   1.00
C645   C     0.66951   0.05162   0.94770   0.00000  Uiso   1.00
C646   C     0.69122   0.10001   0.98941   0.00000  Uiso   1.00
C647   C     0.74845   0.12813   0.98953   0.00000  Uiso   1.00
C648   C     0.75942   0.17124   0.03119   0.00000  Uiso   1.00
C649   C     0.79992   0.24421   0.08984   0.00000  Uiso   1.00
C650   C     0.61070   0.07692   0.92176   0.00000  Uiso   1.00
C651   C     0.60023   0.08560   0.86500   0.00000  Uiso   1.00
C652   C     0.54341   0.10926   0.84972   0.00000  Uiso   1.00
C653   C     0.45889   0.14633   0.80334   0.00000  Uiso   1.00
C654   C     0.65021   0.99614   0.98249   0.00000  Uiso   1.00
C655   C     0.67295   0.93689   0.97678   0.00000  Uiso   1.00
C656   C     0.64938   0.89253   0.01261   0.00000  Uiso   1.00
C657   C     0.62621   0.80418   0.06052   0.00000  Uiso   1.00
C658   C     0.58722   0.07818   0.02148   0.00000  Uiso   1.00
C659   C     0.64653   0.11444   0.02948   0.00000  Uiso   1.00
C660   C     0.65741   0.15752   0.07115   0.00000  Uiso   1.00
C661   C     0.71465   0.18569   0.07133   0.00000  Uiso   1.00
C662   C     0.56601   0.09135   0.96183   0.00000  Uiso   1.00
C663   C     0.50919   0.11499   0.94663   0.00000  Uiso   1.00
C664   C     0.49864   0.12372   0.88986   0.00000  Uiso   1.00
C665   C     0.60552   0.01056   0.02256   0.00000  Uiso   1.00
C666   C     0.58191   0.96628   0.05840   0.00000  Uiso   1.00
C667   C     0.60461   0.90699   0.05275   0.00000  Uiso   1.00
H668   H     0.70430   0.04039   0.91650   0.00000  Uiso   1.00
H669   H     0.78303   0.11696   0.95851   0.00000  Uiso   1.00
H670   H     0.63483   0.07443   0.83400   0.00000  Uiso   1.00
H671   H     0.70754   0.92575   0.94576   0.00000  Uiso   1.00
H672   H     0.85059   0.20822   0.02274   0.00000  Uiso   1.00
H673   H     0.53809   0.11854   0.76021   0.00000  Uiso   1.00
H674   H     0.69141   0.80500   0.99588   0.00000  Uiso   1.00
H675   H     0.55242   0.08941   0.05268   0.00000  Uiso   1.00
H676   H     0.62282   0.16867   0.10216   0.00000  Uiso   1.00
H677   H     0.47461   0.12615   0.97765   0.00000  Uiso   1.00
H678   H     0.54732   0.97746   0.08941   0.00000  Uiso   1.00
H679   H     0.72055   0.25020   0.13933   0.00000  Uiso   1.00
H680   H     0.40805   0.16051   0.87680   0.00000  Uiso   1.00
H681   H     0.56138   0.84698   0.11246   0.00000  Uiso   1.00
O682   O     0.83461   0.28048   0.11111   0.00000  Uiso   1.00
O683   O     0.42462   0.16280   0.76669   0.00000  Uiso   1.00
O684   O     0.62578   0.75146   0.07588   0.00000  Uiso   1.00
N685   N     0.81033   0.20721   0.04339   0.00000  Uiso   1.00
N686   N     0.51816   0.12337   0.79795   0.00000  Uiso   1.00
N687   N     0.66150   0.83024   0.01826   0.00000  Uiso   1.00
N688   N     0.74036   0.22980   0.10613   0.00000  Uiso   1.00
N689   N     0.44819   0.14596   0.86068   0.00000  Uiso   1.00
N690   N     0.59153   0.85283   0.08100   0.00000  Uiso   1.00
C691   C     0.16951   0.55162   0.44770   0.00000  Uiso   1.00
C692   C     0.19122   0.60001   0.48941   0.00000  Uiso   1.00
C693   C     0.24845   0.62813   0.48953   0.00000  Uiso   1.00
C694   C     0.25942   0.67124   0.53119   0.00000  Uiso   1.00
C695   C     0.29992   0.74421   0.58984   0.00000  Uiso   1.00
C696   C     0.11070   0.57692   0.42176   0.00000  Uiso   1.00
C697   C     0.10023   0.58560   0.36500   0.00000  Uiso   1.00
C698   C     0.04341   0.60926   0.34972   0.00000  Uiso   1.00
C699   C     0.95889   0.64633   0.30334   0.00000  Uiso   1.00
C700   C     0.15021   0.49614   0.48249   0.00000  Uiso   1.00
C701   C     0.17295   0.43689   0.47678   0.00000  Uiso   1.00
C702   C     0.14938   0.39253   0.51261   0.00000  Uiso   1.00
C703   C     0.12621   0.30418   0.56052   0.00000  Uiso   1.00
C704   C     0.08722   0.57818   0.52148   0.00000  Uiso   1.00
C705   C     0.14653   0.61444   0.52948   0.00000  Uiso   1.00
C706   C     0.15741   0.65752   0.57115   0.00000  Uiso   1.00
C707   C     0.21465   0.68569   0.57133   0.00000  Uiso   1.00
C708   C     0.06601   0.59135   0.46183   0.00000  Uiso   1.00
C709   C     0.00919   0.61499   0.44663   0.00000  Uiso   1.00
C710   C     0.99864   0.62372   0.38986   0.00000  Uiso   1.00
C711   C     0.10552   0.51056   0.52256   0.00000  Uiso   1.00
C712   C     0.08191   0.46628   0.55840   0.00000  Uiso   1.00
C713   C     0.10461   0.40699   0.55275   0.00000  Uiso   1.00
H714   H     0.20430   0.54039   0.41650   0.00000  Uiso   1.00
H715   H     0.28303   0.61696   0.45851   0.00000  Uiso   1.00
H716   H     0.13483   0.57443   0.33400   0.00000  Uiso   1.00
H717   H     0.20754   0.42575   0.44576   0.00000  Uiso   1.00
H718   H     0.35059   0.70822   0.52274   0.00000  Uiso   1.00
H719   H     0.03809   0.61854   0.26021   0.00000  Uiso   1.00
H720   H     0.19141   0.30500   0.49588   0.00000  Uiso   1.00
H721   H     0.05242   0.58941   0.55268   0.00000  Uiso   1.00
H722   H     0.12282   0.66867   0.60216   0.00000  Uiso   1.00
H723   H     0.97461   0.62615   0.47765   0.00000  Uiso   1.00
H724   H     0.04732   0.47746   0.58941   0.00000  Uiso   1.00
H725   H     0.22055   0.75020   0.63933   0.00000  Uiso   1.00
H726   H     0.90805   0.66051   0.37680   0.00000  Uiso   1.00
H727   H     0.06138   0.34698   0.61246   0.00000  Uiso   1.00
O728   O     0.33461   0.78048   0.61111   0.00000  Uiso   1.00
O729   O     0.92462   0.66280   0.26669   0.00000  Uiso   1.00
O730   O     0.12578   0.25146   0.57588   0.00000  Uiso   1.00
N731   N     0.31033   0.70721   0.54339   0.00000  Uiso   1.00
N732   N     0.01816   0.62337   0.29795   0.00000  Uiso   1.00
N733   N     0.16150   0.33024   0.51826   0.00000  Uiso   1.00
N734   N     0.24036   0.72980   0.60613   0.00000  Uiso   1.00
N735   N     0.94819   0.64596   0.36068   0.00000  Uiso   1.00
N736   N     0.09153   0.35283   0.58100   0.00000  Uiso   1.00
