data_job_06862
_audit_creation_date              2018-12-19
_audit_creation_method            'Materials Studio'
_symmetry_space_group_name_H-M    'P1'
_symmetry_Int_Tables_number       1
_symmetry_cell_setting            triclinic
loop_
_symmetry_equiv_pos_as_xyz
  x,y,z
_cell_length_a                    30.7822
_cell_length_b                    30.0663
_cell_length_c                    20.6668
_cell_angle_alpha                 90.0000
_cell_angle_beta                  86.7669
_cell_angle_gamma                 90.0000
loop_
_atom_site_label
_atom_site_type_symbol
_atom_site_fract_x
_atom_site_fract_y
_atom_site_fract_z
_atom_site_U_iso_or_equiv
_atom_site_adp_type
_atom_site_occupancy
C1     C     0.49404   0.87943   0.19966   0.00000  Uiso   1.00
C2     C     0.50929   0.84656   0.24979   0.00000  Uiso   1.00
C3     C     0.53594   0.81002   0.23692   0.00000  Uiso   1.00
C4     C     0.54619   0.78402   0.28944   0.00000  Uiso   1.00
C5     C     0.57227   0.73142   0.35768   0.00000  Uiso   1.00
C6     C     0.44446   0.87934   0.20699   0.00000  Uiso   1.00
C7     C     0.41660   0.87036   0.15811   0.00000  Uiso   1.00
C8     C     0.37228   0.87195   0.17460   0.00000  Uiso   1.00
C9     C     0.79771   0.37027   0.17637   0.00000  Uiso   1.00
C10    C     0.50835   0.92526   0.22181   0.00000  Uiso   1.00
C11    C     0.53419   0.95490   0.18539   0.00000  Uiso   1.00
C12    C     0.54364   0.99516   0.21435   0.00000  Uiso   1.00
C13    C     0.56826   0.06478   0.23914   0.00000  Uiso   1.00
C14    C     0.46485   0.89822   0.31583   0.00000  Uiso   1.00
C15    C     0.49344   0.85677   0.31289   0.00000  Uiso   1.00
C16    C     0.50365   0.83082   0.36545   0.00000  Uiso   1.00
C17    C     0.53031   0.79425   0.35266   0.00000  Uiso   1.00
C18    C     0.42861   0.88954   0.27008   0.00000  Uiso   1.00
C19    C     0.38431   0.89116   0.28665   0.00000  Uiso   1.00
C20    C     0.35639   0.88218   0.23782   0.00000  Uiso   1.00
C21    C     0.49250   0.93547   0.28491   0.00000  Uiso   1.00
C22    C     0.50190   0.97569   0.31393   0.00000  Uiso   1.00
C23    C     0.52776   0.00539   0.27757   0.00000  Uiso   1.00
H24    H     0.50637   0.87148   0.15053   0.00000  Uiso   1.00
H25    H     0.54820   0.80213   0.18808   0.00000  Uiso   1.00
H26    H     0.42888   0.86246   0.10929   0.00000  Uiso   1.00
H27    H     0.54645   0.94699   0.13656   0.00000  Uiso   1.00
H28    H     0.58756   0.72974   0.25753   0.00000  Uiso   1.00
H29    H     0.83597   0.35697   0.09139   0.00000  Uiso   1.00
H30    H     0.58390   0.03521   0.14891   0.00000  Uiso   1.00
H31    H     0.45251   0.90617   0.36496   0.00000  Uiso   1.00
H32    H     0.49138   0.83873   0.41428   0.00000  Uiso   1.00
H33    H     0.37206   0.89906   0.33548   0.00000  Uiso   1.00
H34    H     0.48963   0.98358   0.36276   0.00000  Uiso   1.00
H35    H     0.54145   0.75944   0.44112   0.00000  Uiso   1.00
H36    H     0.78986   0.38667   0.27498   0.00000  Uiso   1.00
H37    H     0.53778   0.06491   0.33250   0.00000  Uiso   1.00
O38    O     0.59104   0.69959   0.37789   0.00000  Uiso   1.00
O39    O     0.76096   0.36652   0.15992   0.00000  Uiso   1.00
O40    O     0.58623   0.10036   0.23538   0.00000  Uiso   1.00
N41    N     0.57138   0.74599   0.29397   0.00000  Uiso   1.00
N42    N     0.83616   0.36494   0.13864   0.00000  Uiso   1.00
N43    N     0.56794   0.03158   0.19241   0.00000  Uiso   1.00
N44    N     0.54657   0.76197   0.39276   0.00000  Uiso   1.00
N45    N     0.81135   0.38092   0.23743   0.00000  Uiso   1.00
N46    N     0.54312   0.04756   0.29120   0.00000  Uiso   1.00
C47    C     0.34148   0.92284   0.90472   0.00000  Uiso   1.00
C48    C     0.30562   0.91363   0.85854   0.00000  Uiso   1.00
C49    C     0.30573   0.92697   0.79425   0.00000  Uiso   1.00
C50    C     0.76986   0.41526   0.76014   0.00000  Uiso   1.00
C51    C     0.71944   0.40465   0.68400   0.00000  Uiso   1.00
C52    C     0.31962   0.94682   0.96287   0.00000  Uiso   1.00
C53    C     0.33151   0.98807   0.98629   0.00000  Uiso   1.00
C54    C     0.30743   0.00430   0.04002   0.00000  Uiso   1.00
C55    C     0.27877   0.04521   0.12587   0.00000  Uiso   1.00
C56    C     0.35542   0.87758   0.92961   0.00000  Uiso   1.00
C57    C     0.39741   0.86061   0.92509   0.00000  Uiso   1.00
C58    C     0.40347   0.81855   0.95083   0.00000  Uiso   1.00
C59    C     0.93039   0.25196   0.98505   0.00000  Uiso   1.00
C60    C     0.77758   0.37833   0.95849   0.00000  Uiso   1.00
C61    C     0.77091   0.38945   0.88774   0.00000  Uiso   1.00
C62    C     0.73503   0.37773   0.85373   0.00000  Uiso   1.00
C63    C     0.73509   0.39104   0.78939   0.00000  Uiso   1.00
C64    C     0.78491   0.42265   0.99207   0.00000  Uiso   1.00
C65    C     0.76081   0.43882   0.04577   0.00000  Uiso   1.00
C66    C     0.27266   0.98008   0.06927   0.00000  Uiso   1.00
C67    C     0.82071   0.35340   0.95881   0.00000  Uiso   1.00
C68    C     0.82671   0.31137   0.98457   0.00000  Uiso   1.00
C69    C     0.86870   0.29434   0.98008   0.00000  Uiso   1.00
H70    H     0.36850   0.94166   0.88199   0.00000  Uiso   1.00
H71    H     0.33259   0.94568   0.77167   0.00000  Uiso   1.00
H72    H     0.35837   0.00676   0.96369   0.00000  Uiso   1.00
H73    H     0.42426   0.87933   0.90249   0.00000  Uiso   1.00
H74    H     0.27747   0.93948   0.66223   0.00000  Uiso   1.00
H75    H     0.33183   0.06828   0.06714   0.00000  Uiso   1.00
H76    H     0.47077   0.79955   0.93809   0.00000  Uiso   1.00
H77    H     0.75056   0.35951   0.98122   0.00000  Uiso   1.00
H78    H     0.70818   0.35902   0.87634   0.00000  Uiso   1.00
H79    H     0.73395   0.42011   0.06836   0.00000  Uiso   1.00
H80    H     0.79984   0.29267   0.00716   0.00000  Uiso   1.00
H81    H     0.67648   0.36915   0.74719   0.00000  Uiso   1.00
H82    H     0.23085   0.99795   0.15210   0.00000  Uiso   1.00
H83    H     0.86978   0.22922   0.02305   0.00000  Uiso   1.00
O84    O     0.70121   0.40549   0.63393   0.00000  Uiso   1.00
O85    O     0.77254   0.57446   0.16516   0.00000  Uiso   1.00
O86    O     0.95482   0.22190   0.99584   0.00000  Uiso   1.00
N87    N     0.75952   0.42299   0.69662   0.00000  Uiso   1.00
N88    N     0.31034   0.04341   0.07517   0.00000  Uiso   1.00
N89    N     0.44024   0.79218   0.95454   0.00000  Uiso   1.00
N90    N     0.70518   0.38514   0.74233   0.00000  Uiso   1.00
N91    N     0.25600   0.00556   0.12089   0.00000  Uiso   1.00
N92    N     0.88590   0.25433   0.00025   0.00000  Uiso   1.00
C93    C     0.44261   0.14356   0.08974   0.00000  Uiso   1.00
C94    C     0.45548   0.18752   0.12010   0.00000  Uiso   1.00
C95    C     0.49767   0.20302   0.12455   0.00000  Uiso   1.00
C96    C     0.50262   0.24405   0.15407   0.00000  Uiso   1.00
C97    C     0.52806   0.30856   0.19756   0.00000  Uiso   1.00
C98    C     0.41544   0.11877   0.14214   0.00000  Uiso   1.00
C99    C     0.42396   0.07647   0.16511   0.00000  Uiso   1.00
C100   C     0.39520   0.05963   0.21318   0.00000  Uiso   1.00
C101   C     0.35847   0.01739   0.29084   0.00000  Uiso   1.00
C102   C     0.41153   0.15543   0.03750   0.00000  Uiso   1.00
C103   C     0.41676   0.14393   0.97249   0.00000  Uiso   1.00
C104   C     0.38471   0.15794   0.93245   0.00000  Uiso   1.00
C105   C     0.84191   0.67261   0.84765   0.00000  Uiso   1.00
C106   C     0.87637   0.68886   0.13424   0.00000  Uiso   1.00
C107   C     0.91950   0.71213   0.14427   0.00000  Uiso   1.00
C108   C     0.92438   0.75315   0.17379   0.00000  Uiso   1.00
C109   C     0.96657   0.76870   0.17828   0.00000  Uiso   1.00
C110   C     0.37946   0.14338   0.16631   0.00000  Uiso   1.00
C111   C     0.35067   0.12660   0.21435   0.00000  Uiso   1.00
C112   C     0.35915   0.08428   0.23739   0.00000  Uiso   1.00
C113   C     0.87555   0.68004   0.06167   0.00000  Uiso   1.00
C114   C     0.84348   0.69406   0.02172   0.00000  Uiso   1.00
C115   C     0.84866   0.68259   0.95667   0.00000  Uiso   1.00
H116   H     0.47062   0.12440   0.07093   0.00000  Uiso   1.00
H117   H     0.52550   0.18396   0.10585   0.00000  Uiso   1.00
H118   H     0.45181   0.05743   0.14639   0.00000  Uiso   1.00
H119   H     0.44461   0.12489   0.95380   0.00000  Uiso   1.00
H120   H     0.57048   0.26085   0.15524   0.00000  Uiso   1.00
H121   H     0.41508   0.99405   0.24072   0.00000  Uiso   1.00
H122   H     0.39991   0.13628   0.83460   0.00000  Uiso   1.00
H123   H     0.84836   0.70802   0.15306   0.00000  Uiso   1.00
H124   H     0.89653   0.77218   0.19249   0.00000  Uiso   1.00
H125   H     0.82283   0.64565   0.23304   0.00000  Uiso   1.00
H126   H     0.81564   0.71310   0.04044   0.00000  Uiso   1.00
H127   H     0.96580   0.83245   0.22556   0.00000  Uiso   1.00
H128   H     0.31040   0.06564   0.31104   0.00000  Uiso   1.00
H129   H     0.79523   0.70788   0.90492   0.00000  Uiso   1.00
O130   O     0.55204   0.33734   0.21487   0.00000  Uiso   1.00
O131   O     0.34815   0.98730   0.32701   0.00000  Uiso   1.00
O132   O     0.82825   0.67391   0.79419   0.00000  Uiso   1.00
N133   N     0.53924   0.26890   0.16637   0.00000  Uiso   1.00
N134   N     0.39395   0.01946   0.24630   0.00000  Uiso   1.00
N135   N     0.37976   0.15243   0.86661   0.00000  Uiso   1.00
N136   N     0.98291   0.80743   0.20421   0.00000  Uiso   1.00
N137   N     0.33762   0.05798   0.28414   0.00000  Uiso   1.00
N138   N     0.82343   0.69095   0.90445   0.00000  Uiso   1.00
C139   C     0.95942   0.09288   0.68901   0.00000  Uiso   1.00
C140   C     0.97389   0.12584   0.73959   0.00000  Uiso   1.00
C141   C     0.00000   0.16285   0.72730   0.00000  Uiso   1.00
C142   C     0.00955   0.18885   0.78017   0.00000  Uiso   1.00
C143   C     0.53443   0.74166   0.84915   0.00000  Uiso   1.00
C144   C     0.90984   0.09214   0.69576   0.00000  Uiso   1.00
C145   C     0.88211   0.10080   0.64661   0.00000  Uiso   1.00
C146   C     0.83775   0.09843   0.66258   0.00000  Uiso   1.00
C147   C     0.76319   0.09889   0.66349   0.00000  Uiso   1.00
C148   C     0.97434   0.04722   0.71098   0.00000  Uiso   1.00
C149   C     0.00083   0.01812   0.67463   0.00000  Uiso   1.00
C150   C     0.01077   0.97793   0.70340   0.00000  Uiso   1.00
C151   C     0.03636   0.90864   0.72795   0.00000  Uiso   1.00
C152   C     0.92995   0.07325   0.80474   0.00000  Uiso   1.00
C153   C     0.95788   0.11517   0.80246   0.00000  Uiso   1.00
C154   C     0.96739   0.14113   0.85535   0.00000  Uiso   1.00
C155   C     0.99352   0.17817   0.84314   0.00000  Uiso   1.00
C156   C     0.89383   0.08147   0.75862   0.00000  Uiso   1.00
C157   C     0.84950   0.07909   0.77466   0.00000  Uiso   1.00
C158   C     0.82171   0.08775   0.72555   0.00000  Uiso   1.00
C159   C     0.95833   0.03656   0.77384   0.00000  Uiso   1.00
C160   C     0.96823   0.99640   0.80268   0.00000  Uiso   1.00
C161   C     0.99473   0.96725   0.76637   0.00000  Uiso   1.00
H162   H     0.97188   0.10118   0.64007   0.00000  Uiso   1.00
H163   H     0.01238   0.17109   0.67865   0.00000  Uiso   1.00
H164   H     0.89451   0.10905   0.59797   0.00000  Uiso   1.00
H165   H     0.01321   0.02638   0.62598   0.00000  Uiso   1.00
H166   H     0.55021   0.74390   0.74914   0.00000  Uiso   1.00
H167   H     0.80166   0.11308   0.57902   0.00000  Uiso   1.00
H168   H     0.05198   0.93875   0.63809   0.00000  Uiso   1.00
H169   H     0.91749   0.06495   0.85369   0.00000  Uiso   1.00
H170   H     0.95500   0.13287   0.90399   0.00000  Uiso   1.00
H171   H     0.83713   0.07083   0.82331   0.00000  Uiso   1.00
H172   H     0.95583   0.98816   0.85132   0.00000  Uiso   1.00
H173   H     0.50363   0.71288   0.93204   0.00000  Uiso   1.00
H174   H     0.75509   0.08206   0.76192   0.00000  Uiso   1.00
H175   H     0.00541   0.90773   0.82099   0.00000  Uiso   1.00
O176   O     0.55257   0.77373   0.86983   0.00000  Uiso   1.00
O177   O     0.72649   0.10209   0.64663   0.00000  Uiso   1.00
O178   O     0.05490   0.87338   0.72413   0.00000  Uiso   1.00
N179   N     0.53410   0.72727   0.78529   0.00000  Uiso   1.00
N180   N     0.80173   0.10497   0.62623   0.00000  Uiso   1.00
N181   N     0.03575   0.94198   0.68145   0.00000  Uiso   1.00
N182   N     0.50904   0.71058   0.88370   0.00000  Uiso   1.00
N183   N     0.77667   0.08828   0.72465   0.00000  Uiso   1.00
N184   N     0.01069   0.92529   0.77987   0.00000  Uiso   1.00
C185   C     0.81547   0.03489   0.39473   0.00000  Uiso   1.00
C186   C     0.77955   0.04517   0.34911   0.00000  Uiso   1.00
C187   C     0.77834   0.03097   0.28534   0.00000  Uiso   1.00
C188   C     0.74265   0.04390   0.25170   0.00000  Uiso   1.00
C189   C     0.69191   0.05587   0.17643   0.00000  Uiso   1.00
C190   C     0.79313   0.01278   0.45411   0.00000  Uiso   1.00
C191   C     0.80335   0.97134   0.47865   0.00000  Uiso   1.00
C192   C     0.77911   0.95702   0.53340   0.00000  Uiso   1.00
C193   C     0.74949   0.91871   0.62119   0.00000  Uiso   1.00
C194   C     0.83179   0.07976   0.41773   0.00000  Uiso   1.00
C195   C     0.87450   0.09463   0.41169   0.00000  Uiso   1.00
C196   C     0.88280   0.13669   0.43583   0.00000  Uiso   1.00
C197   C     0.91319   0.20238   0.46713   0.00000  Uiso   1.00
C198   C     0.75426   0.08313   0.44836   0.00000  Uiso   1.00
C199   C     0.74630   0.07138   0.37824   0.00000  Uiso   1.00
C200   C     0.71061   0.08434   0.34468   0.00000  Uiso   1.00
C201   C     0.70934   0.07016   0.28088   0.00000  Uiso   1.00
C202   C     0.75989   0.03898   0.48324   0.00000  Uiso   1.00
C203   C     0.73562   0.02472   0.53798   0.00000  Uiso   1.00
C204   C     0.74580   0.98327   0.56258   0.00000  Uiso   1.00
C205   C     0.79854   0.10596   0.44686   0.00000  Uiso   1.00
C206   C     0.80677   0.14801   0.47102   0.00000  Uiso   1.00
C207   C     0.84949   0.16294   0.46501   0.00000  Uiso   1.00
H208   H     0.84136   0.01448   0.37206   0.00000  Uiso   1.00
H209   H     0.80407   0.01068   0.26282   0.00000  Uiso   1.00
H210   H     0.82909   0.95108   0.45610   0.00000  Uiso   1.00
H211   H     0.90022   0.07435   0.38915   0.00000  Uiso   1.00
H212   H     0.74806   0.01801   0.15456   0.00000  Uiso   1.00
H213   H     0.80081   0.89233   0.56211   0.00000  Uiso   1.00
H214   H     0.95082   0.15227   0.42094   0.00000  Uiso   1.00
H215   H     0.72837   0.10353   0.47104   0.00000  Uiso   1.00
H216   H     0.68488   0.10462   0.36723   0.00000  Uiso   1.00
H217   H     0.70989   0.04501   0.56051   0.00000  Uiso   1.00
H218   H     0.78103   0.16828   0.49356   0.00000  Uiso   1.00
H219   H     0.65132   0.09425   0.23931   0.00000  Uiso   1.00
H220   H     0.70407   0.96857   0.64686   0.00000  Uiso   1.00
H221   H     0.85408   0.22851   0.50568   0.00000  Uiso   1.00
O222   O     0.67311   0.05523   0.12687   0.00000  Uiso   1.00
O223   O     0.74233   0.89034   0.66156   0.00000  Uiso   1.00
O224   O     0.93914   0.23138   0.47634   0.00000  Uiso   1.00
N225   N     0.73126   0.03581   0.18875   0.00000  Uiso   1.00
N226   N     0.78058   0.91831   0.56977   0.00000  Uiso   1.00
N227   N     0.92083   0.16132   0.43781   0.00000  Uiso   1.00
N228   N     0.67921   0.07684   0.23435   0.00000  Uiso   1.00
N229   N     0.72853   0.95933   0.61538   0.00000  Uiso   1.00
N230   N     0.86878   0.20235   0.48341   0.00000  Uiso   1.00
C231   C     0.93284   0.83241   0.59432   0.00000  Uiso   1.00
C232   C     0.94261   0.78758   0.62479   0.00000  Uiso   1.00
C233   C     0.48364   0.27158   0.63698   0.00000  Uiso   1.00
C234   C     0.48571   0.22977   0.66517   0.00000  Uiso   1.00
C235   C     0.50660   0.16395   0.71017   0.00000  Uiso   1.00
C236   C     0.90135   0.85608   0.64242   0.00000  Uiso   1.00
C237   C     0.90769   0.89768   0.66942   0.00000  Uiso   1.00
C238   C     0.87502   0.91354   0.71243   0.00000  Uiso   1.00
C239   C     0.83184   0.95408   0.78476   0.00000  Uiso   1.00
C240   C     0.90708   0.82219   0.53520   0.00000  Uiso   1.00
C241   C     0.91823   0.83531   0.47205   0.00000  Uiso   1.00
C242   C     0.89039   0.82264   0.42480   0.00000  Uiso   1.00
C243   C     0.85611   0.81057   0.33065   0.00000  Uiso   1.00
C244   C     0.86356   0.78661   0.62269   0.00000  Uiso   1.00
C245   C     0.90498   0.76270   0.64021   0.00000  Uiso   1.00
C246   C     0.90699   0.72091   0.66838   0.00000  Uiso   1.00
C247   C     0.44801   0.20485   0.68061   0.00000  Uiso   1.00
C248   C     0.86372   0.83120   0.65783   0.00000  Uiso   1.00
C249   C     0.83103   0.84701   0.70081   0.00000  Uiso   1.00
C250   C     0.83732   0.88862   0.72787   0.00000  Uiso   1.00
C251   C     0.86945   0.79731   0.55061   0.00000  Uiso   1.00
C252   C     0.84158   0.78463   0.50345   0.00000  Uiso   1.00
C253   C     0.85269   0.79772   0.44024   0.00000  Uiso   1.00
H254   H     0.96214   0.85178   0.58232   0.00000  Uiso   1.00
H255   H     0.51276   0.29085   0.62506   0.00000  Uiso   1.00
H256   H     0.93681   0.91693   0.65748   0.00000  Uiso   1.00
H257   H     0.94736   0.85456   0.46014   0.00000  Uiso   1.00
H258   H     0.55228   0.21232   0.67925   0.00000  Uiso   1.00
H259   H     0.89214   0.97818   0.74759   0.00000  Uiso   1.00
H260   H     0.91437   0.84666   0.33148   0.00000  Uiso   1.00
H261   H     0.83426   0.76724   0.63469   0.00000  Uiso   1.00
H262   H     0.87786   0.70166   0.68030   0.00000  Uiso   1.00
H263   H     0.80192   0.82774   0.71272   0.00000  Uiso   1.00
H264   H     0.81246   0.76538   0.51539   0.00000  Uiso   1.00
H265   H     0.44279   0.13994   0.72409   0.00000  Uiso   1.00
H266   H     0.78265   0.90579   0.79243   0.00000  Uiso   1.00
H267   H     0.80489   0.77428   0.37632   0.00000  Uiso   1.00
O268   O     0.52852   0.13452   0.73074   0.00000  Uiso   1.00
O269   O     0.81843   0.98332   0.82040   0.00000  Uiso   1.00
O270   O     0.84760   0.81077   0.27447   0.00000  Uiso   1.00
N271   N     0.52053   0.20428   0.68353   0.00000  Uiso   1.00
N272   N     0.87081   0.95284   0.74744   0.00000  Uiso   1.00
N273   N     0.89159   0.82989   0.35841   0.00000  Uiso   1.00
N274   N     0.46161   0.16533   0.70766   0.00000  Uiso   1.00
N275   N     0.81190   0.91389   0.77157   0.00000  Uiso   1.00
N276   N     0.83268   0.79094   0.38254   0.00000  Uiso   1.00
C277   C     0.99404   0.37943   0.19966   0.00000  Uiso   1.00
C278   C     0.00929   0.34656   0.24979   0.00000  Uiso   1.00
C279   C     0.03594   0.31002   0.23692   0.00000  Uiso   1.00
C280   C     0.04619   0.28402   0.28944   0.00000  Uiso   1.00
C281   C     0.07227   0.23142   0.35768   0.00000  Uiso   1.00
C282   C     0.94446   0.37934   0.20699   0.00000  Uiso   1.00
C283   C     0.91660   0.37036   0.15811   0.00000  Uiso   1.00
C284   C     0.87228   0.37195   0.17460   0.00000  Uiso   1.00
C285   C     0.29771   0.87027   0.17637   0.00000  Uiso   1.00
C286   C     0.00835   0.42526   0.22181   0.00000  Uiso   1.00
C287   C     0.03419   0.45490   0.18539   0.00000  Uiso   1.00
C288   C     0.04364   0.49516   0.21435   0.00000  Uiso   1.00
C289   C     0.06826   0.56478   0.23914   0.00000  Uiso   1.00
C290   C     0.96485   0.39822   0.31583   0.00000  Uiso   1.00
C291   C     0.99344   0.35677   0.31289   0.00000  Uiso   1.00
C292   C     0.00365   0.33082   0.36545   0.00000  Uiso   1.00
C293   C     0.03031   0.29425   0.35266   0.00000  Uiso   1.00
C294   C     0.92861   0.38954   0.27008   0.00000  Uiso   1.00
C295   C     0.88431   0.39116   0.28665   0.00000  Uiso   1.00
C296   C     0.85639   0.38218   0.23782   0.00000  Uiso   1.00
C297   C     0.99250   0.43547   0.28491   0.00000  Uiso   1.00
C298   C     0.00190   0.47569   0.31393   0.00000  Uiso   1.00
C299   C     0.02776   0.50539   0.27757   0.00000  Uiso   1.00
H300   H     0.00637   0.37148   0.15053   0.00000  Uiso   1.00
H301   H     0.04820   0.30213   0.18808   0.00000  Uiso   1.00
H302   H     0.92888   0.36246   0.10929   0.00000  Uiso   1.00
H303   H     0.04645   0.44699   0.13656   0.00000  Uiso   1.00
H304   H     0.08756   0.22974   0.25753   0.00000  Uiso   1.00
H305   H     0.33597   0.85697   0.09139   0.00000  Uiso   1.00
H306   H     0.08390   0.53521   0.14891   0.00000  Uiso   1.00
H307   H     0.95251   0.40617   0.36496   0.00000  Uiso   1.00
H308   H     0.99138   0.33873   0.41428   0.00000  Uiso   1.00
H309   H     0.87206   0.39906   0.33548   0.00000  Uiso   1.00
H310   H     0.98963   0.48358   0.36276   0.00000  Uiso   1.00
H311   H     0.04145   0.25944   0.44112   0.00000  Uiso   1.00
H312   H     0.28986   0.88667   0.27498   0.00000  Uiso   1.00
H313   H     0.03778   0.56491   0.33250   0.00000  Uiso   1.00
O314   O     0.09104   0.19959   0.37789   0.00000  Uiso   1.00
O315   O     0.26096   0.86652   0.15992   0.00000  Uiso   1.00
O316   O     0.08623   0.60036   0.23538   0.00000  Uiso   1.00
N317   N     0.07138   0.24599   0.29397   0.00000  Uiso   1.00
N318   N     0.33616   0.86494   0.13864   0.00000  Uiso   1.00
N319   N     0.06794   0.53158   0.19241   0.00000  Uiso   1.00
N320   N     0.04657   0.26197   0.39276   0.00000  Uiso   1.00
N321   N     0.31135   0.88092   0.23743   0.00000  Uiso   1.00
N322   N     0.04312   0.54756   0.29120   0.00000  Uiso   1.00
C323   C     0.84148   0.42284   0.90472   0.00000  Uiso   1.00
C324   C     0.80562   0.41363   0.85854   0.00000  Uiso   1.00
C325   C     0.80573   0.42697   0.79425   0.00000  Uiso   1.00
C326   C     0.26986   0.91526   0.76014   0.00000  Uiso   1.00
C327   C     0.21944   0.90465   0.68400   0.00000  Uiso   1.00
C328   C     0.81962   0.44682   0.96287   0.00000  Uiso   1.00
C329   C     0.83151   0.48807   0.98629   0.00000  Uiso   1.00
C330   C     0.80743   0.50430   0.04002   0.00000  Uiso   1.00
C331   C     0.77877   0.54521   0.12587   0.00000  Uiso   1.00
C332   C     0.85542   0.37758   0.92961   0.00000  Uiso   1.00
C333   C     0.89741   0.36061   0.92509   0.00000  Uiso   1.00
C334   C     0.90347   0.31855   0.95083   0.00000  Uiso   1.00
C335   C     0.43039   0.75196   0.98505   0.00000  Uiso   1.00
C336   C     0.27758   0.87833   0.95849   0.00000  Uiso   1.00
C337   C     0.27091   0.88945   0.88774   0.00000  Uiso   1.00
C338   C     0.23503   0.87773   0.85373   0.00000  Uiso   1.00
C339   C     0.23509   0.89104   0.78939   0.00000  Uiso   1.00
C340   C     0.28491   0.92265   0.99207   0.00000  Uiso   1.00
C341   C     0.26081   0.93882   0.04577   0.00000  Uiso   1.00
C342   C     0.77266   0.48008   0.06927   0.00000  Uiso   1.00
C343   C     0.32071   0.85340   0.95881   0.00000  Uiso   1.00
C344   C     0.32671   0.81137   0.98457   0.00000  Uiso   1.00
C345   C     0.36870   0.79434   0.98008   0.00000  Uiso   1.00
H346   H     0.86850   0.44166   0.88199   0.00000  Uiso   1.00
H347   H     0.83259   0.44568   0.77167   0.00000  Uiso   1.00
H348   H     0.85837   0.50676   0.96369   0.00000  Uiso   1.00
H349   H     0.92426   0.37933   0.90249   0.00000  Uiso   1.00
H350   H     0.77747   0.43948   0.66223   0.00000  Uiso   1.00
H351   H     0.83183   0.56828   0.06714   0.00000  Uiso   1.00
H352   H     0.97077   0.29955   0.93809   0.00000  Uiso   1.00
H353   H     0.25056   0.85951   0.98122   0.00000  Uiso   1.00
H354   H     0.20818   0.85902   0.87634   0.00000  Uiso   1.00
H355   H     0.23395   0.92011   0.06836   0.00000  Uiso   1.00
H356   H     0.29984   0.79267   0.00716   0.00000  Uiso   1.00
H357   H     0.17648   0.86915   0.74719   0.00000  Uiso   1.00
H358   H     0.73085   0.49795   0.15210   0.00000  Uiso   1.00
H359   H     0.36978   0.72922   0.02305   0.00000  Uiso   1.00
O360   O     0.20121   0.90549   0.63393   0.00000  Uiso   1.00
O361   O     0.27254   0.07446   0.16516   0.00000  Uiso   1.00
O362   O     0.45482   0.72190   0.99584   0.00000  Uiso   1.00
N363   N     0.25952   0.92299   0.69662   0.00000  Uiso   1.00
N364   N     0.81034   0.54341   0.07517   0.00000  Uiso   1.00
N365   N     0.94024   0.29218   0.95454   0.00000  Uiso   1.00
N366   N     0.20518   0.88514   0.74233   0.00000  Uiso   1.00
N367   N     0.75600   0.50556   0.12089   0.00000  Uiso   1.00
N368   N     0.38590   0.75433   0.00025   0.00000  Uiso   1.00
C369   C     0.94261   0.64356   0.08974   0.00000  Uiso   1.00
C370   C     0.95548   0.68752   0.12010   0.00000  Uiso   1.00
C371   C     0.99767   0.70302   0.12455   0.00000  Uiso   1.00
C372   C     0.00262   0.74405   0.15407   0.00000  Uiso   1.00
C373   C     0.02806   0.80856   0.19756   0.00000  Uiso   1.00
C374   C     0.91544   0.61877   0.14214   0.00000  Uiso   1.00
C375   C     0.92396   0.57647   0.16511   0.00000  Uiso   1.00
C376   C     0.89520   0.55963   0.21318   0.00000  Uiso   1.00
C377   C     0.85847   0.51739   0.29084   0.00000  Uiso   1.00
C378   C     0.91153   0.65543   0.03750   0.00000  Uiso   1.00
C379   C     0.91676   0.64393   0.97249   0.00000  Uiso   1.00
C380   C     0.88471   0.65794   0.93245   0.00000  Uiso   1.00
C381   C     0.34191   0.17261   0.84765   0.00000  Uiso   1.00
C382   C     0.37637   0.18886   0.13424   0.00000  Uiso   1.00
C383   C     0.41950   0.21213   0.14427   0.00000  Uiso   1.00
C384   C     0.42438   0.25315   0.17379   0.00000  Uiso   1.00
C385   C     0.46657   0.26870   0.17828   0.00000  Uiso   1.00
C386   C     0.87946   0.64338   0.16631   0.00000  Uiso   1.00
C387   C     0.85067   0.62660   0.21435   0.00000  Uiso   1.00
C388   C     0.85915   0.58428   0.23739   0.00000  Uiso   1.00
C389   C     0.37555   0.18004   0.06167   0.00000  Uiso   1.00
C390   C     0.34348   0.19406   0.02172   0.00000  Uiso   1.00
C391   C     0.34866   0.18259   0.95667   0.00000  Uiso   1.00
H392   H     0.97062   0.62440   0.07093   0.00000  Uiso   1.00
H393   H     0.02550   0.68396   0.10585   0.00000  Uiso   1.00
H394   H     0.95181   0.55743   0.14639   0.00000  Uiso   1.00
H395   H     0.94461   0.62489   0.95380   0.00000  Uiso   1.00
H396   H     0.07048   0.76085   0.15524   0.00000  Uiso   1.00
H397   H     0.91508   0.49405   0.24072   0.00000  Uiso   1.00
H398   H     0.89991   0.63628   0.83460   0.00000  Uiso   1.00
H399   H     0.34836   0.20802   0.15306   0.00000  Uiso   1.00
H400   H     0.39653   0.27218   0.19249   0.00000  Uiso   1.00
H401   H     0.32283   0.14565   0.23304   0.00000  Uiso   1.00
H402   H     0.31564   0.21310   0.04044   0.00000  Uiso   1.00
H403   H     0.46580   0.33245   0.22556   0.00000  Uiso   1.00
H404   H     0.81040   0.56564   0.31104   0.00000  Uiso   1.00
H405   H     0.29523   0.20788   0.90492   0.00000  Uiso   1.00
O406   O     0.05204   0.83734   0.21487   0.00000  Uiso   1.00
O407   O     0.84815   0.48730   0.32701   0.00000  Uiso   1.00
O408   O     0.32825   0.17391   0.79419   0.00000  Uiso   1.00
N409   N     0.03924   0.76890   0.16637   0.00000  Uiso   1.00
N410   N     0.89395   0.51946   0.24630   0.00000  Uiso   1.00
N411   N     0.87976   0.65243   0.86661   0.00000  Uiso   1.00
N412   N     0.48291   0.30743   0.20421   0.00000  Uiso   1.00
N413   N     0.83762   0.55798   0.28414   0.00000  Uiso   1.00
N414   N     0.32343   0.19095   0.90445   0.00000  Uiso   1.00
C415   C     0.45942   0.59288   0.68901   0.00000  Uiso   1.00
C416   C     0.47389   0.62584   0.73959   0.00000  Uiso   1.00
C417   C     0.50000   0.66285   0.72730   0.00000  Uiso   1.00
C418   C     0.50955   0.68885   0.78017   0.00000  Uiso   1.00
C419   C     0.03443   0.24166   0.84915   0.00000  Uiso   1.00
C420   C     0.40984   0.59214   0.69576   0.00000  Uiso   1.00
C421   C     0.38211   0.60080   0.64661   0.00000  Uiso   1.00
C422   C     0.33775   0.59843   0.66258   0.00000  Uiso   1.00
C423   C     0.26319   0.59889   0.66349   0.00000  Uiso   1.00
C424   C     0.47434   0.54722   0.71098   0.00000  Uiso   1.00
C425   C     0.50083   0.51812   0.67463   0.00000  Uiso   1.00
C426   C     0.51077   0.47793   0.70340   0.00000  Uiso   1.00
C427   C     0.53636   0.40864   0.72795   0.00000  Uiso   1.00
C428   C     0.42995   0.57325   0.80474   0.00000  Uiso   1.00
C429   C     0.45788   0.61517   0.80246   0.00000  Uiso   1.00
C430   C     0.46739   0.64113   0.85535   0.00000  Uiso   1.00
C431   C     0.49352   0.67817   0.84314   0.00000  Uiso   1.00
C432   C     0.39383   0.58147   0.75862   0.00000  Uiso   1.00
C433   C     0.34950   0.57909   0.77466   0.00000  Uiso   1.00
C434   C     0.32171   0.58775   0.72555   0.00000  Uiso   1.00
C435   C     0.45833   0.53656   0.77384   0.00000  Uiso   1.00
C436   C     0.46823   0.49640   0.80268   0.00000  Uiso   1.00
C437   C     0.49473   0.46725   0.76637   0.00000  Uiso   1.00
H438   H     0.47188   0.60118   0.64007   0.00000  Uiso   1.00
H439   H     0.51238   0.67109   0.67865   0.00000  Uiso   1.00
H440   H     0.39451   0.60905   0.59797   0.00000  Uiso   1.00
H441   H     0.51321   0.52638   0.62598   0.00000  Uiso   1.00
H442   H     0.05021   0.24390   0.74914   0.00000  Uiso   1.00
H443   H     0.30166   0.61308   0.57902   0.00000  Uiso   1.00
H444   H     0.55198   0.43875   0.63809   0.00000  Uiso   1.00
H445   H     0.41749   0.56495   0.85369   0.00000  Uiso   1.00
H446   H     0.45500   0.63287   0.90399   0.00000  Uiso   1.00
H447   H     0.33713   0.57083   0.82331   0.00000  Uiso   1.00
H448   H     0.45583   0.48816   0.85132   0.00000  Uiso   1.00
H449   H     0.00363   0.21288   0.93204   0.00000  Uiso   1.00
H450   H     0.25509   0.58206   0.76192   0.00000  Uiso   1.00
H451   H     0.50541   0.40773   0.82099   0.00000  Uiso   1.00
O452   O     0.05257   0.27373   0.86983   0.00000  Uiso   1.00
O453   O     0.22649   0.60209   0.64663   0.00000  Uiso   1.00
O454   O     0.55490   0.37338   0.72413   0.00000  Uiso   1.00
N455   N     0.03410   0.22727   0.78529   0.00000  Uiso   1.00
N456   N     0.30173   0.60497   0.62623   0.00000  Uiso   1.00
N457   N     0.53575   0.44198   0.68145   0.00000  Uiso   1.00
N458   N     0.00904   0.21058   0.88370   0.00000  Uiso   1.00
N459   N     0.27667   0.58828   0.72465   0.00000  Uiso   1.00
N460   N     0.51069   0.42529   0.77987   0.00000  Uiso   1.00
C461   C     0.31547   0.53489   0.39473   0.00000  Uiso   1.00
C462   C     0.27955   0.54517   0.34911   0.00000  Uiso   1.00
C463   C     0.27834   0.53097   0.28534   0.00000  Uiso   1.00
C464   C     0.24265   0.54390   0.25170   0.00000  Uiso   1.00
C465   C     0.19191   0.55587   0.17643   0.00000  Uiso   1.00
C466   C     0.29313   0.51278   0.45411   0.00000  Uiso   1.00
C467   C     0.30335   0.47134   0.47865   0.00000  Uiso   1.00
C468   C     0.27911   0.45702   0.53340   0.00000  Uiso   1.00
C469   C     0.24949   0.41871   0.62119   0.00000  Uiso   1.00
C470   C     0.33179   0.57976   0.41773   0.00000  Uiso   1.00
C471   C     0.37450   0.59463   0.41169   0.00000  Uiso   1.00
C472   C     0.38280   0.63669   0.43583   0.00000  Uiso   1.00
C473   C     0.41319   0.70238   0.46713   0.00000  Uiso   1.00
C474   C     0.25426   0.58313   0.44836   0.00000  Uiso   1.00
C475   C     0.24630   0.57138   0.37824   0.00000  Uiso   1.00
C476   C     0.21061   0.58434   0.34468   0.00000  Uiso   1.00
C477   C     0.20934   0.57016   0.28088   0.00000  Uiso   1.00
C478   C     0.25989   0.53898   0.48324   0.00000  Uiso   1.00
C479   C     0.23562   0.52472   0.53798   0.00000  Uiso   1.00
C480   C     0.24580   0.48327   0.56258   0.00000  Uiso   1.00
C481   C     0.29854   0.60596   0.44686   0.00000  Uiso   1.00
C482   C     0.30677   0.64801   0.47102   0.00000  Uiso   1.00
C483   C     0.34949   0.66294   0.46501   0.00000  Uiso   1.00
H484   H     0.34136   0.51448   0.37206   0.00000  Uiso   1.00
H485   H     0.30407   0.51068   0.26282   0.00000  Uiso   1.00
H486   H     0.32909   0.45108   0.45610   0.00000  Uiso   1.00
H487   H     0.40022   0.57435   0.38915   0.00000  Uiso   1.00
H488   H     0.24806   0.51801   0.15456   0.00000  Uiso   1.00
H489   H     0.30081   0.39233   0.56211   0.00000  Uiso   1.00
H490   H     0.45082   0.65227   0.42094   0.00000  Uiso   1.00
H491   H     0.22837   0.60353   0.47104   0.00000  Uiso   1.00
H492   H     0.18488   0.60462   0.36723   0.00000  Uiso   1.00
H493   H     0.20989   0.54501   0.56051   0.00000  Uiso   1.00
H494   H     0.28103   0.66828   0.49356   0.00000  Uiso   1.00
H495   H     0.15132   0.59425   0.23931   0.00000  Uiso   1.00
H496   H     0.20407   0.46857   0.64686   0.00000  Uiso   1.00
H497   H     0.35408   0.72851   0.50568   0.00000  Uiso   1.00
O498   O     0.17311   0.55523   0.12687   0.00000  Uiso   1.00
O499   O     0.24233   0.39034   0.66156   0.00000  Uiso   1.00
O500   O     0.43914   0.73138   0.47634   0.00000  Uiso   1.00
N501   N     0.23126   0.53581   0.18875   0.00000  Uiso   1.00
N502   N     0.28058   0.41831   0.56977   0.00000  Uiso   1.00
N503   N     0.42083   0.66132   0.43781   0.00000  Uiso   1.00
N504   N     0.17921   0.57684   0.23435   0.00000  Uiso   1.00
N505   N     0.22853   0.45933   0.61538   0.00000  Uiso   1.00
N506   N     0.36878   0.70235   0.48341   0.00000  Uiso   1.00
C507   C     0.43284   0.33241   0.59432   0.00000  Uiso   1.00
C508   C     0.44261   0.28758   0.62479   0.00000  Uiso   1.00
C509   C     0.98364   0.77158   0.63698   0.00000  Uiso   1.00
C510   C     0.98571   0.72977   0.66517   0.00000  Uiso   1.00
C511   C     0.00660   0.66395   0.71017   0.00000  Uiso   1.00
C512   C     0.40135   0.35608   0.64242   0.00000  Uiso   1.00
C513   C     0.40769   0.39768   0.66942   0.00000  Uiso   1.00
C514   C     0.37502   0.41354   0.71243   0.00000  Uiso   1.00
C515   C     0.33184   0.45408   0.78476   0.00000  Uiso   1.00
C516   C     0.40708   0.32219   0.53520   0.00000  Uiso   1.00
C517   C     0.41823   0.33531   0.47205   0.00000  Uiso   1.00
C518   C     0.39039   0.32264   0.42480   0.00000  Uiso   1.00
C519   C     0.35611   0.31057   0.33065   0.00000  Uiso   1.00
C520   C     0.36356   0.28661   0.62269   0.00000  Uiso   1.00
C521   C     0.40498   0.26270   0.64021   0.00000  Uiso   1.00
C522   C     0.40699   0.22091   0.66838   0.00000  Uiso   1.00
C523   C     0.94801   0.70485   0.68061   0.00000  Uiso   1.00
C524   C     0.36372   0.33120   0.65783   0.00000  Uiso   1.00
C525   C     0.33103   0.34701   0.70081   0.00000  Uiso   1.00
C526   C     0.33732   0.38862   0.72787   0.00000  Uiso   1.00
C527   C     0.36945   0.29731   0.55061   0.00000  Uiso   1.00
C528   C     0.34158   0.28463   0.50345   0.00000  Uiso   1.00
C529   C     0.35269   0.29772   0.44024   0.00000  Uiso   1.00
H530   H     0.46214   0.35178   0.58232   0.00000  Uiso   1.00
H531   H     0.01276   0.79085   0.62506   0.00000  Uiso   1.00
H532   H     0.43681   0.41693   0.65748   0.00000  Uiso   1.00
H533   H     0.44736   0.35456   0.46014   0.00000  Uiso   1.00
H534   H     0.05228   0.71232   0.67925   0.00000  Uiso   1.00
H535   H     0.39214   0.47818   0.74759   0.00000  Uiso   1.00
H536   H     0.41437   0.34666   0.33148   0.00000  Uiso   1.00
H537   H     0.33426   0.26724   0.63469   0.00000  Uiso   1.00
H538   H     0.37786   0.20166   0.68030   0.00000  Uiso   1.00
H539   H     0.30192   0.32774   0.71272   0.00000  Uiso   1.00
H540   H     0.31246   0.26538   0.51539   0.00000  Uiso   1.00
H541   H     0.94279   0.63994   0.72409   0.00000  Uiso   1.00
H542   H     0.28265   0.40579   0.79243   0.00000  Uiso   1.00
H543   H     0.30489   0.27428   0.37632   0.00000  Uiso   1.00
O544   O     0.02852   0.63452   0.73074   0.00000  Uiso   1.00
O545   O     0.31843   0.48332   0.82040   0.00000  Uiso   1.00
O546   O     0.34760   0.31077   0.27447   0.00000  Uiso   1.00
N547   N     0.02053   0.70428   0.68353   0.00000  Uiso   1.00
N548   N     0.37081   0.45284   0.74744   0.00000  Uiso   1.00
N549   N     0.39159   0.32989   0.35841   0.00000  Uiso   1.00
N550   N     0.96161   0.66533   0.70766   0.00000  Uiso   1.00
N551   N     0.31190   0.41389   0.77157   0.00000  Uiso   1.00
N552   N     0.33268   0.29094   0.38254   0.00000  Uiso   1.00
C553   C     0.50596   0.87943   0.80034   0.00000  Uiso   1.00
C554   C     0.49071   0.84656   0.75021   0.00000  Uiso   1.00
C555   C     0.46406   0.81002   0.76308   0.00000  Uiso   1.00
C556   C     0.45381   0.78402   0.71056   0.00000  Uiso   1.00
C557   C     0.42773   0.73142   0.64232   0.00000  Uiso   1.00
C558   C     0.55554   0.87934   0.79301   0.00000  Uiso   1.00
C559   C     0.58340   0.87036   0.84189   0.00000  Uiso   1.00
C560   C     0.62772   0.87195   0.82540   0.00000  Uiso   1.00
C561   C     0.20229   0.37027   0.82363   0.00000  Uiso   1.00
C562   C     0.49165   0.92526   0.77819   0.00000  Uiso   1.00
C563   C     0.46581   0.95490   0.81461   0.00000  Uiso   1.00
C564   C     0.45636   0.99516   0.78565   0.00000  Uiso   1.00
C565   C     0.43174   0.06478   0.76086   0.00000  Uiso   1.00
C566   C     0.53515   0.89822   0.68417   0.00000  Uiso   1.00
C567   C     0.50656   0.85677   0.68711   0.00000  Uiso   1.00
C568   C     0.49635   0.83082   0.63455   0.00000  Uiso   1.00
C569   C     0.46969   0.79425   0.64734   0.00000  Uiso   1.00
C570   C     0.57139   0.88954   0.72992   0.00000  Uiso   1.00
C571   C     0.61569   0.89116   0.71335   0.00000  Uiso   1.00
C572   C     0.64361   0.88218   0.76218   0.00000  Uiso   1.00
C573   C     0.50750   0.93547   0.71509   0.00000  Uiso   1.00
C574   C     0.49810   0.97569   0.68607   0.00000  Uiso   1.00
C575   C     0.47224   0.00539   0.72243   0.00000  Uiso   1.00
H576   H     0.49363   0.87148   0.84947   0.00000  Uiso   1.00
H577   H     0.45180   0.80213   0.81192   0.00000  Uiso   1.00
H578   H     0.57112   0.86246   0.89071   0.00000  Uiso   1.00
H579   H     0.45355   0.94699   0.86344   0.00000  Uiso   1.00
H580   H     0.41244   0.72974   0.74247   0.00000  Uiso   1.00
H581   H     0.16403   0.35697   0.90861   0.00000  Uiso   1.00
H582   H     0.41610   0.03521   0.85109   0.00000  Uiso   1.00
H583   H     0.54749   0.90617   0.63504   0.00000  Uiso   1.00
H584   H     0.50862   0.83873   0.58572   0.00000  Uiso   1.00
H585   H     0.62794   0.89906   0.66452   0.00000  Uiso   1.00
H586   H     0.51037   0.98358   0.63724   0.00000  Uiso   1.00
H587   H     0.45855   0.75944   0.55888   0.00000  Uiso   1.00
H588   H     0.21014   0.38667   0.72502   0.00000  Uiso   1.00
H589   H     0.46222   0.06491   0.66750   0.00000  Uiso   1.00
O590   O     0.40896   0.69959   0.62211   0.00000  Uiso   1.00
O591   O     0.23904   0.36652   0.84008   0.00000  Uiso   1.00
O592   O     0.41377   0.10036   0.76462   0.00000  Uiso   1.00
N593   N     0.42862   0.74599   0.70603   0.00000  Uiso   1.00
N594   N     0.16384   0.36494   0.86136   0.00000  Uiso   1.00
N595   N     0.43206   0.03158   0.80759   0.00000  Uiso   1.00
N596   N     0.45343   0.76197   0.60724   0.00000  Uiso   1.00
N597   N     0.18865   0.38092   0.76257   0.00000  Uiso   1.00
N598   N     0.45688   0.04756   0.70880   0.00000  Uiso   1.00
C599   C     0.65852   0.92284   0.09528   0.00000  Uiso   1.00
C600   C     0.69438   0.91363   0.14146   0.00000  Uiso   1.00
C601   C     0.69427   0.92697   0.20575   0.00000  Uiso   1.00
C602   C     0.23014   0.41526   0.23986   0.00000  Uiso   1.00
C603   C     0.28056   0.40465   0.31600   0.00000  Uiso   1.00
C604   C     0.68038   0.94682   0.03713   0.00000  Uiso   1.00
C605   C     0.66849   0.98807   0.01371   0.00000  Uiso   1.00
C606   C     0.69257   0.00430   0.95998   0.00000  Uiso   1.00
C607   C     0.72123   0.04521   0.87413   0.00000  Uiso   1.00
C608   C     0.64458   0.87758   0.07039   0.00000  Uiso   1.00
C609   C     0.60259   0.86061   0.07491   0.00000  Uiso   1.00
C610   C     0.59653   0.81855   0.04917   0.00000  Uiso   1.00
C611   C     0.06961   0.25196   0.01495   0.00000  Uiso   1.00
C612   C     0.22242   0.37833   0.04151   0.00000  Uiso   1.00
C613   C     0.22909   0.38945   0.11226   0.00000  Uiso   1.00
C614   C     0.26497   0.37773   0.14627   0.00000  Uiso   1.00
C615   C     0.26491   0.39104   0.21061   0.00000  Uiso   1.00
C616   C     0.21509   0.42265   0.00793   0.00000  Uiso   1.00
C617   C     0.23919   0.43882   0.95423   0.00000  Uiso   1.00
C618   C     0.72734   0.98008   0.93073   0.00000  Uiso   1.00
C619   C     0.17929   0.35340   0.04119   0.00000  Uiso   1.00
C620   C     0.17329   0.31137   0.01543   0.00000  Uiso   1.00
C621   C     0.13130   0.29434   0.01992   0.00000  Uiso   1.00
H622   H     0.63150   0.94166   0.11801   0.00000  Uiso   1.00
H623   H     0.66741   0.94568   0.22833   0.00000  Uiso   1.00
H624   H     0.64163   0.00676   0.03631   0.00000  Uiso   1.00
H625   H     0.57574   0.87933   0.09751   0.00000  Uiso   1.00
H626   H     0.72253   0.93948   0.33777   0.00000  Uiso   1.00
H627   H     0.66817   0.06828   0.93286   0.00000  Uiso   1.00
H628   H     0.52923   0.79955   0.06191   0.00000  Uiso   1.00
H629   H     0.24944   0.35951   0.01878   0.00000  Uiso   1.00
H630   H     0.29182   0.35902   0.12366   0.00000  Uiso   1.00
H631   H     0.26605   0.42011   0.93164   0.00000  Uiso   1.00
H632   H     0.20016   0.29267   0.99284   0.00000  Uiso   1.00
H633   H     0.32352   0.36915   0.25281   0.00000  Uiso   1.00
H634   H     0.76915   0.99795   0.84790   0.00000  Uiso   1.00
H635   H     0.13022   0.22922   0.97695   0.00000  Uiso   1.00
O636   O     0.29879   0.40549   0.36607   0.00000  Uiso   1.00
O637   O     0.22746   0.57446   0.83484   0.00000  Uiso   1.00
O638   O     0.04518   0.22190   0.00416   0.00000  Uiso   1.00
N639   N     0.24048   0.42299   0.30338   0.00000  Uiso   1.00
N640   N     0.68966   0.04341   0.92483   0.00000  Uiso   1.00
N641   N     0.55976   0.79218   0.04546   0.00000  Uiso   1.00
N642   N     0.29482   0.38514   0.25767   0.00000  Uiso   1.00
N643   N     0.74400   0.00556   0.87911   0.00000  Uiso   1.00
N644   N     0.11410   0.25433   0.99975   0.00000  Uiso   1.00
C645   C     0.55739   0.14356   0.91026   0.00000  Uiso   1.00
C646   C     0.54452   0.18752   0.87990   0.00000  Uiso   1.00
C647   C     0.50233   0.20302   0.87545   0.00000  Uiso   1.00
C648   C     0.49738   0.24405   0.84593   0.00000  Uiso   1.00
C649   C     0.47194   0.30856   0.80244   0.00000  Uiso   1.00
C650   C     0.58456   0.11877   0.85786   0.00000  Uiso   1.00
C651   C     0.57604   0.07647   0.83489   0.00000  Uiso   1.00
C652   C     0.60480   0.05963   0.78682   0.00000  Uiso   1.00
C653   C     0.64153   0.01739   0.70916   0.00000  Uiso   1.00
C654   C     0.58847   0.15543   0.96250   0.00000  Uiso   1.00
C655   C     0.58324   0.14393   0.02751   0.00000  Uiso   1.00
C656   C     0.61529   0.15794   0.06755   0.00000  Uiso   1.00
C657   C     0.15809   0.67261   0.15235   0.00000  Uiso   1.00
C658   C     0.12363   0.68886   0.86576   0.00000  Uiso   1.00
C659   C     0.08050   0.71213   0.85573   0.00000  Uiso   1.00
C660   C     0.07562   0.75315   0.82621   0.00000  Uiso   1.00
C661   C     0.03343   0.76870   0.82172   0.00000  Uiso   1.00
C662   C     0.62054   0.14338   0.83369   0.00000  Uiso   1.00
C663   C     0.64933   0.12660   0.78565   0.00000  Uiso   1.00
C664   C     0.64085   0.08428   0.76261   0.00000  Uiso   1.00
C665   C     0.12445   0.68004   0.93833   0.00000  Uiso   1.00
C666   C     0.15652   0.69406   0.97828   0.00000  Uiso   1.00
C667   C     0.15134   0.68259   0.04333   0.00000  Uiso   1.00
H668   H     0.52938   0.12440   0.92907   0.00000  Uiso   1.00
H669   H     0.47450   0.18396   0.89415   0.00000  Uiso   1.00
H670   H     0.54819   0.05743   0.85361   0.00000  Uiso   1.00
H671   H     0.55539   0.12489   0.04620   0.00000  Uiso   1.00
H672   H     0.42952   0.26085   0.84476   0.00000  Uiso   1.00
H673   H     0.58492   0.99405   0.75928   0.00000  Uiso   1.00
H674   H     0.60009   0.13628   0.16540   0.00000  Uiso   1.00
H675   H     0.15164   0.70802   0.84694   0.00000  Uiso   1.00
H676   H     0.10347   0.77218   0.80751   0.00000  Uiso   1.00
H677   H     0.17717   0.64565   0.76696   0.00000  Uiso   1.00
H678   H     0.18436   0.71310   0.95956   0.00000  Uiso   1.00
H679   H     0.03420   0.83245   0.77444   0.00000  Uiso   1.00
H680   H     0.68960   0.06564   0.68896   0.00000  Uiso   1.00
H681   H     0.20477   0.70788   0.09508   0.00000  Uiso   1.00
O682   O     0.44796   0.33734   0.78513   0.00000  Uiso   1.00
O683   O     0.65185   0.98730   0.67299   0.00000  Uiso   1.00
O684   O     0.17175   0.67391   0.20581   0.00000  Uiso   1.00
N685   N     0.46076   0.26890   0.83363   0.00000  Uiso   1.00
N686   N     0.60605   0.01946   0.75370   0.00000  Uiso   1.00
N687   N     0.62024   0.15243   0.13339   0.00000  Uiso   1.00
N688   N     0.01709   0.80743   0.79579   0.00000  Uiso   1.00
N689   N     0.66238   0.05798   0.71586   0.00000  Uiso   1.00
N690   N     0.17657   0.69095   0.09555   0.00000  Uiso   1.00
C691   C     0.04058   0.09288   0.31099   0.00000  Uiso   1.00
C692   C     0.02611   0.12584   0.26041   0.00000  Uiso   1.00
C693   C    -0.00000   0.16285   0.27270   0.00000  Uiso   1.00
C694   C     0.99045   0.18885   0.21983   0.00000  Uiso   1.00
C695   C     0.46557   0.74166   0.15085   0.00000  Uiso   1.00
C696   C     0.09016   0.09214   0.30424   0.00000  Uiso   1.00
C697   C     0.11789   0.10080   0.35339   0.00000  Uiso   1.00
C698   C     0.16225   0.09843   0.33742   0.00000  Uiso   1.00
C699   C     0.23681   0.09889   0.33651   0.00000  Uiso   1.00
C700   C     0.02566   0.04722   0.28902   0.00000  Uiso   1.00
C701   C     0.99917   0.01812   0.32537   0.00000  Uiso   1.00
C702   C     0.98923   0.97793   0.29660   0.00000  Uiso   1.00
C703   C     0.96364   0.90864   0.27205   0.00000  Uiso   1.00
C704   C     0.07005   0.07325   0.19526   0.00000  Uiso   1.00
C705   C     0.04212   0.11517   0.19754   0.00000  Uiso   1.00
C706   C     0.03261   0.14113   0.14465   0.00000  Uiso   1.00
C707   C     0.00648   0.17817   0.15686   0.00000  Uiso   1.00
C708   C     0.10617   0.08147   0.24138   0.00000  Uiso   1.00
C709   C     0.15050   0.07909   0.22534   0.00000  Uiso   1.00
C710   C     0.17829   0.08775   0.27445   0.00000  Uiso   1.00
C711   C     0.04167   0.03656   0.22616   0.00000  Uiso   1.00
C712   C     0.03177   0.99640   0.19732   0.00000  Uiso   1.00
C713   C     0.00527   0.96725   0.23363   0.00000  Uiso   1.00
H714   H     0.02812   0.10118   0.35993   0.00000  Uiso   1.00
H715   H     0.98762   0.17109   0.32135   0.00000  Uiso   1.00
H716   H     0.10549   0.10905   0.40203   0.00000  Uiso   1.00
H717   H     0.98679   0.02638   0.37402   0.00000  Uiso   1.00
H718   H     0.44979   0.74390   0.25086   0.00000  Uiso   1.00
H719   H     0.19834   0.11308   0.42098   0.00000  Uiso   1.00
H720   H     0.94802   0.93875   0.36191   0.00000  Uiso   1.00
H721   H     0.08251   0.06495   0.14631   0.00000  Uiso   1.00
H722   H     0.04500   0.13287   0.09601   0.00000  Uiso   1.00
H723   H     0.16287   0.07083   0.17669   0.00000  Uiso   1.00
H724   H     0.04417   0.98816   0.14868   0.00000  Uiso   1.00
H725   H     0.49637   0.71288   0.06796   0.00000  Uiso   1.00
H726   H     0.24491   0.08206   0.23808   0.00000  Uiso   1.00
H727   H     0.99459   0.90773   0.17901   0.00000  Uiso   1.00
O728   O     0.44743   0.77373   0.13017   0.00000  Uiso   1.00
O729   O     0.27351   0.10209   0.35337   0.00000  Uiso   1.00
O730   O     0.94510   0.87338   0.27587   0.00000  Uiso   1.00
N731   N     0.46590   0.72727   0.21471   0.00000  Uiso   1.00
N732   N     0.19827   0.10497   0.37377   0.00000  Uiso   1.00
N733   N     0.96425   0.94198   0.31855   0.00000  Uiso   1.00
N734   N     0.49096   0.71058   0.11630   0.00000  Uiso   1.00
N735   N     0.22333   0.08828   0.27535   0.00000  Uiso   1.00
N736   N     0.98931   0.92529   0.22013   0.00000  Uiso   1.00
C737   C     0.18453   0.03489   0.60527   0.00000  Uiso   1.00
C738   C     0.22045   0.04517   0.65089   0.00000  Uiso   1.00
C739   C     0.22166   0.03097   0.71466   0.00000  Uiso   1.00
C740   C     0.25735   0.04390   0.74830   0.00000  Uiso   1.00
C741   C     0.30809   0.05587   0.82357   0.00000  Uiso   1.00
C742   C     0.20687   0.01278   0.54589   0.00000  Uiso   1.00
C743   C     0.19665   0.97134   0.52135   0.00000  Uiso   1.00
C744   C     0.22089   0.95702   0.46660   0.00000  Uiso   1.00
C745   C     0.25051   0.91871   0.37881   0.00000  Uiso   1.00
C746   C     0.16821   0.07976   0.58227   0.00000  Uiso   1.00
C747   C     0.12550   0.09463   0.58831   0.00000  Uiso   1.00
C748   C     0.11720   0.13669   0.56417   0.00000  Uiso   1.00
C749   C     0.08681   0.20238   0.53287   0.00000  Uiso   1.00
C750   C     0.24574   0.08313   0.55164   0.00000  Uiso   1.00
C751   C     0.25370   0.07138   0.62176   0.00000  Uiso   1.00
C752   C     0.28939   0.08434   0.65532   0.00000  Uiso   1.00
C753   C     0.29066   0.07016   0.71912   0.00000  Uiso   1.00
C754   C     0.24011   0.03898   0.51676   0.00000  Uiso   1.00
C755   C     0.26438   0.02472   0.46202   0.00000  Uiso   1.00
C756   C     0.25420   0.98327   0.43742   0.00000  Uiso   1.00
C757   C     0.20146   0.10596   0.55314   0.00000  Uiso   1.00
C758   C     0.19323   0.14801   0.52898   0.00000  Uiso   1.00
C759   C     0.15051   0.16294   0.53499   0.00000  Uiso   1.00
H760   H     0.15864   0.01448   0.62794   0.00000  Uiso   1.00
H761   H     0.19593   0.01068   0.73718   0.00000  Uiso   1.00
H762   H     0.17091   0.95108   0.54390   0.00000  Uiso   1.00
H763   H     0.09978   0.07435   0.61085   0.00000  Uiso   1.00
H764   H     0.25194   0.01801   0.84544   0.00000  Uiso   1.00
H765   H     0.19919   0.89233   0.43789   0.00000  Uiso   1.00
H766   H     0.04918   0.15227   0.57906   0.00000  Uiso   1.00
H767   H     0.27163   0.10353   0.52896   0.00000  Uiso   1.00
H768   H     0.31512   0.10462   0.63277   0.00000  Uiso   1.00
H769   H     0.29011   0.04501   0.43949   0.00000  Uiso   1.00
H770   H     0.21897   0.16828   0.50644   0.00000  Uiso   1.00
H771   H     0.34868   0.09425   0.76069   0.00000  Uiso   1.00
H772   H     0.29593   0.96857   0.35314   0.00000  Uiso   1.00
H773   H     0.14592   0.22851   0.49432   0.00000  Uiso   1.00
O774   O     0.32689   0.05523   0.87313   0.00000  Uiso   1.00
O775   O     0.25767   0.89034   0.33844   0.00000  Uiso   1.00
O776   O     0.06086   0.23138   0.52366   0.00000  Uiso   1.00
N777   N     0.26874   0.03581   0.81125   0.00000  Uiso   1.00
N778   N     0.21942   0.91831   0.43023   0.00000  Uiso   1.00
N779   N     0.07917   0.16132   0.56219   0.00000  Uiso   1.00
N780   N     0.32079   0.07684   0.76565   0.00000  Uiso   1.00
N781   N     0.27147   0.95933   0.38462   0.00000  Uiso   1.00
N782   N     0.13122   0.20235   0.51659   0.00000  Uiso   1.00
C783   C     0.06716   0.83241   0.40568   0.00000  Uiso   1.00
C784   C     0.05739   0.78758   0.37521   0.00000  Uiso   1.00
C785   C     0.51636   0.27158   0.36302   0.00000  Uiso   1.00
C786   C     0.51429   0.22977   0.33483   0.00000  Uiso   1.00
C787   C     0.49340   0.16395   0.28983   0.00000  Uiso   1.00
C788   C     0.09865   0.85608   0.35758   0.00000  Uiso   1.00
C789   C     0.09231   0.89768   0.33058   0.00000  Uiso   1.00
C790   C     0.12498   0.91354   0.28757   0.00000  Uiso   1.00
C791   C     0.16816   0.95408   0.21524   0.00000  Uiso   1.00
C792   C     0.09292   0.82219   0.46480   0.00000  Uiso   1.00
C793   C     0.08177   0.83531   0.52795   0.00000  Uiso   1.00
C794   C     0.10961   0.82264   0.57520   0.00000  Uiso   1.00
C795   C     0.14389   0.81057   0.66935   0.00000  Uiso   1.00
C796   C     0.13644   0.78661   0.37731   0.00000  Uiso   1.00
C797   C     0.09502   0.76270   0.35979   0.00000  Uiso   1.00
C798   C     0.09301   0.72091   0.33162   0.00000  Uiso   1.00
C799   C     0.55199   0.20485   0.31939   0.00000  Uiso   1.00
C800   C     0.13628   0.83120   0.34217   0.00000  Uiso   1.00
C801   C     0.16897   0.84701   0.29919   0.00000  Uiso   1.00
C802   C     0.16268   0.88862   0.27213   0.00000  Uiso   1.00
C803   C     0.13055   0.79731   0.44939   0.00000  Uiso   1.00
C804   C     0.15842   0.78463   0.49655   0.00000  Uiso   1.00
C805   C     0.14731   0.79772   0.55976   0.00000  Uiso   1.00
H806   H     0.03786   0.85178   0.41768   0.00000  Uiso   1.00
H807   H     0.48724   0.29085   0.37494   0.00000  Uiso   1.00
H808   H     0.06319   0.91693   0.34252   0.00000  Uiso   1.00
H809   H     0.05264   0.85456   0.53986   0.00000  Uiso   1.00
H810   H     0.44772   0.21232   0.32075   0.00000  Uiso   1.00
H811   H     0.10786   0.97818   0.25241   0.00000  Uiso   1.00
H812   H     0.08563   0.84666   0.66852   0.00000  Uiso   1.00
H813   H     0.16574   0.76724   0.36531   0.00000  Uiso   1.00
H814   H     0.12214   0.70166   0.31970   0.00000  Uiso   1.00
H815   H     0.19808   0.82774   0.28728   0.00000  Uiso   1.00
H816   H     0.18754   0.76538   0.48461   0.00000  Uiso   1.00
H817   H     0.55721   0.13994   0.27591   0.00000  Uiso   1.00
H818   H     0.21735   0.90579   0.20757   0.00000  Uiso   1.00
H819   H     0.19511   0.77428   0.62368   0.00000  Uiso   1.00
O820   O     0.47148   0.13452   0.26926   0.00000  Uiso   1.00
O821   O     0.18157   0.98332   0.17960   0.00000  Uiso   1.00
O822   O     0.15240   0.81077   0.72553   0.00000  Uiso   1.00
N823   N     0.47947   0.20428   0.31647   0.00000  Uiso   1.00
N824   N     0.12919   0.95284   0.25256   0.00000  Uiso   1.00
N825   N     0.10841   0.82989   0.64159   0.00000  Uiso   1.00
N826   N     0.53839   0.16533   0.29234   0.00000  Uiso   1.00
N827   N     0.18810   0.91389   0.22843   0.00000  Uiso   1.00
N828   N     0.16732   0.79094   0.61746   0.00000  Uiso   1.00
C829   C     0.00596   0.37943   0.80034   0.00000  Uiso   1.00
C830   C     0.99071   0.34656   0.75021   0.00000  Uiso   1.00
C831   C     0.96406   0.31002   0.76308   0.00000  Uiso   1.00
C832   C     0.95381   0.28402   0.71056   0.00000  Uiso   1.00
C833   C     0.92773   0.23142   0.64232   0.00000  Uiso   1.00
C834   C     0.05554   0.37934   0.79301   0.00000  Uiso   1.00
C835   C     0.08340   0.37036   0.84189   0.00000  Uiso   1.00
C836   C     0.12772   0.37195   0.82540   0.00000  Uiso   1.00
C837   C     0.70229   0.87027   0.82363   0.00000  Uiso   1.00
C838   C     0.99165   0.42526   0.77819   0.00000  Uiso   1.00
C839   C     0.96581   0.45490   0.81461   0.00000  Uiso   1.00
C840   C     0.95636   0.49516   0.78565   0.00000  Uiso   1.00
C841   C     0.93174   0.56478   0.76086   0.00000  Uiso   1.00
C842   C     0.03515   0.39822   0.68417   0.00000  Uiso   1.00
C843   C     0.00656   0.35677   0.68711   0.00000  Uiso   1.00
C844   C     0.99635   0.33082   0.63455   0.00000  Uiso   1.00
C845   C     0.96969   0.29425   0.64734   0.00000  Uiso   1.00
C846   C     0.07139   0.38954   0.72992   0.00000  Uiso   1.00
C847   C     0.11569   0.39116   0.71335   0.00000  Uiso   1.00
C848   C     0.14361   0.38218   0.76218   0.00000  Uiso   1.00
C849   C     0.00750   0.43547   0.71509   0.00000  Uiso   1.00
C850   C     0.99810   0.47569   0.68607   0.00000  Uiso   1.00
C851   C     0.97224   0.50539   0.72243   0.00000  Uiso   1.00
H852   H     0.99363   0.37148   0.84947   0.00000  Uiso   1.00
H853   H     0.95180   0.30213   0.81192   0.00000  Uiso   1.00
H854   H     0.07112   0.36246   0.89071   0.00000  Uiso   1.00
H855   H     0.95355   0.44699   0.86344   0.00000  Uiso   1.00
H856   H     0.91244   0.22974   0.74247   0.00000  Uiso   1.00
H857   H     0.66403   0.85697   0.90861   0.00000  Uiso   1.00
H858   H     0.91610   0.53521   0.85109   0.00000  Uiso   1.00
H859   H     0.04749   0.40617   0.63504   0.00000  Uiso   1.00
H860   H     0.00862   0.33873   0.58572   0.00000  Uiso   1.00
H861   H     0.12794   0.39906   0.66452   0.00000  Uiso   1.00
H862   H     0.01037   0.48358   0.63724   0.00000  Uiso   1.00
H863   H     0.95855   0.25944   0.55888   0.00000  Uiso   1.00
H864   H     0.71014   0.88667   0.72502   0.00000  Uiso   1.00
H865   H     0.96222   0.56491   0.66750   0.00000  Uiso   1.00
O866   O     0.90896   0.19959   0.62211   0.00000  Uiso   1.00
O867   O     0.73904   0.86652   0.84008   0.00000  Uiso   1.00
O868   O     0.91377   0.60036   0.76462   0.00000  Uiso   1.00
N869   N     0.92862   0.24599   0.70603   0.00000  Uiso   1.00
N870   N     0.66384   0.86494   0.86136   0.00000  Uiso   1.00
N871   N     0.93206   0.53158   0.80759   0.00000  Uiso   1.00
N872   N     0.95343   0.26197   0.60724   0.00000  Uiso   1.00
N873   N     0.68865   0.88092   0.76257   0.00000  Uiso   1.00
N874   N     0.95688   0.54756   0.70880   0.00000  Uiso   1.00
C875   C     0.15852   0.42284   0.09528   0.00000  Uiso   1.00
C876   C     0.19438   0.41363   0.14146   0.00000  Uiso   1.00
C877   C     0.19427   0.42697   0.20575   0.00000  Uiso   1.00
C878   C     0.73014   0.91526   0.23986   0.00000  Uiso   1.00
C879   C     0.78056   0.90465   0.31600   0.00000  Uiso   1.00
C880   C     0.18038   0.44682   0.03713   0.00000  Uiso   1.00
C881   C     0.16849   0.48807   0.01371   0.00000  Uiso   1.00
C882   C     0.19257   0.50430   0.95998   0.00000  Uiso   1.00
C883   C     0.22123   0.54521   0.87413   0.00000  Uiso   1.00
C884   C     0.14458   0.37758   0.07039   0.00000  Uiso   1.00
C885   C     0.10259   0.36061   0.07491   0.00000  Uiso   1.00
C886   C     0.09653   0.31855   0.04917   0.00000  Uiso   1.00
C887   C     0.56961   0.75196   0.01495   0.00000  Uiso   1.00
C888   C     0.72242   0.87833   0.04151   0.00000  Uiso   1.00
C889   C     0.72909   0.88945   0.11226   0.00000  Uiso   1.00
C890   C     0.76497   0.87773   0.14627   0.00000  Uiso   1.00
C891   C     0.76491   0.89104   0.21061   0.00000  Uiso   1.00
C892   C     0.71509   0.92265   0.00793   0.00000  Uiso   1.00
C893   C     0.73919   0.93882   0.95423   0.00000  Uiso   1.00
C894   C     0.22734   0.48008   0.93073   0.00000  Uiso   1.00
C895   C     0.67929   0.85340   0.04119   0.00000  Uiso   1.00
C896   C     0.67329   0.81137   0.01543   0.00000  Uiso   1.00
C897   C     0.63130   0.79434   0.01992   0.00000  Uiso   1.00
H898   H     0.13150   0.44166   0.11801   0.00000  Uiso   1.00
H899   H     0.16741   0.44568   0.22833   0.00000  Uiso   1.00
H900   H     0.14163   0.50676   0.03631   0.00000  Uiso   1.00
H901   H     0.07574   0.37933   0.09751   0.00000  Uiso   1.00
H902   H     0.22253   0.43948   0.33777   0.00000  Uiso   1.00
H903   H     0.16817   0.56828   0.93286   0.00000  Uiso   1.00
H904   H     0.02923   0.29955   0.06191   0.00000  Uiso   1.00
H905   H     0.74944   0.85951   0.01878   0.00000  Uiso   1.00
H906   H     0.79182   0.85902   0.12366   0.00000  Uiso   1.00
H907   H     0.76605   0.92011   0.93164   0.00000  Uiso   1.00
H908   H     0.70016   0.79267   0.99284   0.00000  Uiso   1.00
H909   H     0.82352   0.86915   0.25281   0.00000  Uiso   1.00
H910   H     0.26915   0.49795   0.84790   0.00000  Uiso   1.00
H911   H     0.63022   0.72922   0.97695   0.00000  Uiso   1.00
O912   O     0.79879   0.90549   0.36607   0.00000  Uiso   1.00
O913   O     0.72746   0.07446   0.83484   0.00000  Uiso   1.00
O914   O     0.54518   0.72190   0.00416   0.00000  Uiso   1.00
N915   N     0.74048   0.92299   0.30338   0.00000  Uiso   1.00
N916   N     0.18966   0.54341   0.92483   0.00000  Uiso   1.00
N917   N     0.05976   0.29218   0.04546   0.00000  Uiso   1.00
N918   N     0.79482   0.88514   0.25767   0.00000  Uiso   1.00
N919   N     0.24400   0.50556   0.87911   0.00000  Uiso   1.00
N920   N     0.61410   0.75433   0.99975   0.00000  Uiso   1.00
C921   C     0.05739   0.64356   0.91026   0.00000  Uiso   1.00
C922   C     0.04452   0.68752   0.87990   0.00000  Uiso   1.00
C923   C     0.00233   0.70302   0.87545   0.00000  Uiso   1.00
C924   C     0.99738   0.74405   0.84593   0.00000  Uiso   1.00
C925   C     0.97194   0.80856   0.80244   0.00000  Uiso   1.00
C926   C     0.08456   0.61877   0.85786   0.00000  Uiso   1.00
C927   C     0.07604   0.57647   0.83489   0.00000  Uiso   1.00
C928   C     0.10480   0.55963   0.78682   0.00000  Uiso   1.00
C929   C     0.14153   0.51739   0.70916   0.00000  Uiso   1.00
C930   C     0.08847   0.65543   0.96250   0.00000  Uiso   1.00
C931   C     0.08324   0.64393   0.02751   0.00000  Uiso   1.00
C932   C     0.11529   0.65794   0.06755   0.00000  Uiso   1.00
C933   C     0.65809   0.17261   0.15235   0.00000  Uiso   1.00
C934   C     0.62363   0.18886   0.86576   0.00000  Uiso   1.00
C935   C     0.58050   0.21213   0.85573   0.00000  Uiso   1.00
C936   C     0.57562   0.25315   0.82621   0.00000  Uiso   1.00
C937   C     0.53343   0.26870   0.82172   0.00000  Uiso   1.00
C938   C     0.12054   0.64338   0.83369   0.00000  Uiso   1.00
C939   C     0.14933   0.62660   0.78565   0.00000  Uiso   1.00
C940   C     0.14085   0.58428   0.76261   0.00000  Uiso   1.00
C941   C     0.62445   0.18004   0.93833   0.00000  Uiso   1.00
C942   C     0.65652   0.19406   0.97828   0.00000  Uiso   1.00
C943   C     0.65134   0.18259   0.04333   0.00000  Uiso   1.00
H944   H     0.02938   0.62440   0.92907   0.00000  Uiso   1.00
H945   H     0.97450   0.68396   0.89415   0.00000  Uiso   1.00
H946   H     0.04819   0.55743   0.85361   0.00000  Uiso   1.00
H947   H     0.05539   0.62489   0.04620   0.00000  Uiso   1.00
H948   H     0.92952   0.76085   0.84476   0.00000  Uiso   1.00
H949   H     0.08492   0.49405   0.75928   0.00000  Uiso   1.00
H950   H     0.10009   0.63628   0.16540   0.00000  Uiso   1.00
H951   H     0.65164   0.20802   0.84694   0.00000  Uiso   1.00
H952   H     0.60347   0.27218   0.80751   0.00000  Uiso   1.00
H953   H     0.67717   0.14565   0.76696   0.00000  Uiso   1.00
H954   H     0.68436   0.21310   0.95956   0.00000  Uiso   1.00
H955   H     0.53420   0.33245   0.77444   0.00000  Uiso   1.00
H956   H     0.18960   0.56564   0.68896   0.00000  Uiso   1.00
H957   H     0.70477   0.20788   0.09508   0.00000  Uiso   1.00
O958   O     0.94796   0.83734   0.78513   0.00000  Uiso   1.00
O959   O     0.15185   0.48730   0.67299   0.00000  Uiso   1.00
O960   O     0.67175   0.17391   0.20581   0.00000  Uiso   1.00
N961   N     0.96076   0.76890   0.83363   0.00000  Uiso   1.00
N962   N     0.10605   0.51946   0.75370   0.00000  Uiso   1.00
N963   N     0.12024   0.65243   0.13339   0.00000  Uiso   1.00
N964   N     0.51709   0.30743   0.79579   0.00000  Uiso   1.00
N965   N     0.16238   0.55798   0.71586   0.00000  Uiso   1.00
N966   N     0.67657   0.19095   0.09555   0.00000  Uiso   1.00
C967   C     0.54058   0.59288   0.31099   0.00000  Uiso   1.00
C968   C     0.52611   0.62584   0.26041   0.00000  Uiso   1.00
C969   C     0.50000   0.66285   0.27270   0.00000  Uiso   1.00
C970   C     0.49045   0.68885   0.21983   0.00000  Uiso   1.00
C971   C     0.96557   0.24166   0.15085   0.00000  Uiso   1.00
C972   C     0.59016   0.59214   0.30424   0.00000  Uiso   1.00
C973   C     0.61789   0.60080   0.35339   0.00000  Uiso   1.00
C974   C     0.66225   0.59843   0.33742   0.00000  Uiso   1.00
C975   C     0.73681   0.59889   0.33651   0.00000  Uiso   1.00
C976   C     0.52566   0.54722   0.28902   0.00000  Uiso   1.00
C977   C     0.49917   0.51812   0.32537   0.00000  Uiso   1.00
C978   C     0.48923   0.47793   0.29660   0.00000  Uiso   1.00
C979   C     0.46364   0.40864   0.27205   0.00000  Uiso   1.00
C980   C     0.57005   0.57325   0.19526   0.00000  Uiso   1.00
C981   C     0.54212   0.61517   0.19754   0.00000  Uiso   1.00
C982   C     0.53261   0.64113   0.14465   0.00000  Uiso   1.00
C983   C     0.50648   0.67817   0.15686   0.00000  Uiso   1.00
C984   C     0.60617   0.58147   0.24138   0.00000  Uiso   1.00
C985   C     0.65050   0.57909   0.22534   0.00000  Uiso   1.00
C986   C     0.67829   0.58775   0.27445   0.00000  Uiso   1.00
C987   C     0.54167   0.53656   0.22616   0.00000  Uiso   1.00
C988   C     0.53177   0.49640   0.19732   0.00000  Uiso   1.00
C989   C     0.50527   0.46725   0.23363   0.00000  Uiso   1.00
H990   H     0.52812   0.60118   0.35993   0.00000  Uiso   1.00
H991   H     0.48762   0.67109   0.32135   0.00000  Uiso   1.00
H992   H     0.60549   0.60905   0.40203   0.00000  Uiso   1.00
H993   H     0.48679   0.52638   0.37402   0.00000  Uiso   1.00
H994   H     0.94979   0.24390   0.25086   0.00000  Uiso   1.00
H995   H     0.69834   0.61308   0.42098   0.00000  Uiso   1.00
H996   H     0.44802   0.43875   0.36191   0.00000  Uiso   1.00
H997   H     0.58251   0.56495   0.14631   0.00000  Uiso   1.00
H998   H     0.54500   0.63287   0.09601   0.00000  Uiso   1.00
H999   H     0.66287   0.57083   0.17669   0.00000  Uiso   1.00
H1000  H     0.54417   0.48816   0.14868   0.00000  Uiso   1.00
H1001  H     0.99637   0.21288   0.06796   0.00000  Uiso   1.00
H1002  H     0.74491   0.58206   0.23808   0.00000  Uiso   1.00
H1003  H     0.49459   0.40773   0.17901   0.00000  Uiso   1.00
O1004  O     0.94743   0.27373   0.13017   0.00000  Uiso   1.00
O1005  O     0.77351   0.60209   0.35337   0.00000  Uiso   1.00
O1006  O     0.44510   0.37338   0.27587   0.00000  Uiso   1.00
N1007  N     0.96590   0.22727   0.21471   0.00000  Uiso   1.00
N1008  N     0.69827   0.60497   0.37377   0.00000  Uiso   1.00
N1009  N     0.46425   0.44198   0.31855   0.00000  Uiso   1.00
N1010  N     0.99096   0.21058   0.11630   0.00000  Uiso   1.00
N1011  N     0.72333   0.58828   0.27535   0.00000  Uiso   1.00
N1012  N     0.48931   0.42529   0.22013   0.00000  Uiso   1.00
C1013  C     0.68453   0.53489   0.60527   0.00000  Uiso   1.00
C1014  C     0.72045   0.54517   0.65089   0.00000  Uiso   1.00
C1015  C     0.72166   0.53097   0.71466   0.00000  Uiso   1.00
C1016  C     0.75735   0.54390   0.74830   0.00000  Uiso   1.00
C1017  C     0.80809   0.55587   0.82357   0.00000  Uiso   1.00
C1018  C     0.70687   0.51278   0.54589   0.00000  Uiso   1.00
C1019  C     0.69665   0.47134   0.52135   0.00000  Uiso   1.00
C1020  C     0.72089   0.45702   0.46660   0.00000  Uiso   1.00
C1021  C     0.75051   0.41871   0.37881   0.00000  Uiso   1.00
C1022  C     0.66821   0.57976   0.58227   0.00000  Uiso   1.00
C1023  C     0.62550   0.59463   0.58831   0.00000  Uiso   1.00
C1024  C     0.61720   0.63669   0.56417   0.00000  Uiso   1.00
C1025  C     0.58681   0.70238   0.53287   0.00000  Uiso   1.00
C1026  C     0.74574   0.58313   0.55164   0.00000  Uiso   1.00
C1027  C     0.75370   0.57138   0.62176   0.00000  Uiso   1.00
C1028  C     0.78939   0.58434   0.65532   0.00000  Uiso   1.00
C1029  C     0.79066   0.57016   0.71912   0.00000  Uiso   1.00
C1030  C     0.74011   0.53898   0.51676   0.00000  Uiso   1.00
C1031  C     0.76438   0.52472   0.46202   0.00000  Uiso   1.00
C1032  C     0.75420   0.48327   0.43742   0.00000  Uiso   1.00
C1033  C     0.70146   0.60596   0.55314   0.00000  Uiso   1.00
C1034  C     0.69323   0.64801   0.52898   0.00000  Uiso   1.00
C1035  C     0.65051   0.66294   0.53499   0.00000  Uiso   1.00
H1036  H     0.65864   0.51448   0.62794   0.00000  Uiso   1.00
H1037  H     0.69593   0.51068   0.73718   0.00000  Uiso   1.00
H1038  H     0.67091   0.45108   0.54390   0.00000  Uiso   1.00
H1039  H     0.59978   0.57435   0.61085   0.00000  Uiso   1.00
H1040  H     0.75194   0.51801   0.84544   0.00000  Uiso   1.00
H1041  H     0.69919   0.39233   0.43789   0.00000  Uiso   1.00
H1042  H     0.54918   0.65227   0.57906   0.00000  Uiso   1.00
H1043  H     0.77163   0.60353   0.52896   0.00000  Uiso   1.00
H1044  H     0.81512   0.60462   0.63277   0.00000  Uiso   1.00
H1045  H     0.79011   0.54501   0.43949   0.00000  Uiso   1.00
H1046  H     0.71897   0.66828   0.50644   0.00000  Uiso   1.00
H1047  H     0.84868   0.59425   0.76069   0.00000  Uiso   1.00
H1048  H     0.79593   0.46857   0.35314   0.00000  Uiso   1.00
H1049  H     0.64592   0.72851   0.49432   0.00000  Uiso   1.00
O1050  O     0.82689   0.55523   0.87313   0.00000  Uiso   1.00
O1051  O     0.75767   0.39034   0.33844   0.00000  Uiso   1.00
O1052  O     0.56086   0.73138   0.52366   0.00000  Uiso   1.00
N1053  N     0.76874   0.53581   0.81125   0.00000  Uiso   1.00
N1054  N     0.71942   0.41831   0.43023   0.00000  Uiso   1.00
N1055  N     0.57917   0.66132   0.56219   0.00000  Uiso   1.00
N1056  N     0.82079   0.57684   0.76565   0.00000  Uiso   1.00
N1057  N     0.77147   0.45933   0.38462   0.00000  Uiso   1.00
N1058  N     0.63122   0.70235   0.51659   0.00000  Uiso   1.00
C1059  C     0.56716   0.33241   0.40568   0.00000  Uiso   1.00
C1060  C     0.55739   0.28758   0.37521   0.00000  Uiso   1.00
C1061  C     0.01636   0.77158   0.36302   0.00000  Uiso   1.00
C1062  C     0.01429   0.72977   0.33483   0.00000  Uiso   1.00
C1063  C     0.99340   0.66395   0.28983   0.00000  Uiso   1.00
C1064  C     0.59865   0.35608   0.35758   0.00000  Uiso   1.00
C1065  C     0.59231   0.39768   0.33058   0.00000  Uiso   1.00
C1066  C     0.62498   0.41354   0.28757   0.00000  Uiso   1.00
C1067  C     0.66816   0.45408   0.21524   0.00000  Uiso   1.00
C1068  C     0.59292   0.32219   0.46480   0.00000  Uiso   1.00
C1069  C     0.58177   0.33531   0.52795   0.00000  Uiso   1.00
C1070  C     0.60961   0.32264   0.57520   0.00000  Uiso   1.00
C1071  C     0.64389   0.31057   0.66935   0.00000  Uiso   1.00
C1072  C     0.63644   0.28661   0.37731   0.00000  Uiso   1.00
C1073  C     0.59502   0.26270   0.35979   0.00000  Uiso   1.00
C1074  C     0.59301   0.22091   0.33162   0.00000  Uiso   1.00
C1075  C     0.05199   0.70485   0.31939   0.00000  Uiso   1.00
C1076  C     0.63628   0.33120   0.34217   0.00000  Uiso   1.00
C1077  C     0.66897   0.34701   0.29919   0.00000  Uiso   1.00
C1078  C     0.66268   0.38862   0.27213   0.00000  Uiso   1.00
C1079  C     0.63055   0.29731   0.44939   0.00000  Uiso   1.00
C1080  C     0.65842   0.28463   0.49655   0.00000  Uiso   1.00
C1081  C     0.64731   0.29772   0.55976   0.00000  Uiso   1.00
H1082  H     0.53786   0.35178   0.41768   0.00000  Uiso   1.00
H1083  H     0.98724   0.79085   0.37494   0.00000  Uiso   1.00
H1084  H     0.56319   0.41693   0.34252   0.00000  Uiso   1.00
H1085  H     0.55264   0.35456   0.53986   0.00000  Uiso   1.00
H1086  H     0.94772   0.71232   0.32075   0.00000  Uiso   1.00
H1087  H     0.60786   0.47818   0.25241   0.00000  Uiso   1.00
H1088  H     0.58563   0.34666   0.66852   0.00000  Uiso   1.00
H1089  H     0.66574   0.26724   0.36531   0.00000  Uiso   1.00
H1090  H     0.62214   0.20166   0.31970   0.00000  Uiso   1.00
H1091  H     0.69808   0.32774   0.28728   0.00000  Uiso   1.00
H1092  H     0.68754   0.26538   0.48461   0.00000  Uiso   1.00
H1093  H     0.05721   0.63994   0.27591   0.00000  Uiso   1.00
H1094  H     0.71735   0.40579   0.20757   0.00000  Uiso   1.00
H1095  H     0.69511   0.27428   0.62368   0.00000  Uiso   1.00
O1096  O     0.97148   0.63452   0.26926   0.00000  Uiso   1.00
O1097  O     0.68157   0.48332   0.17960   0.00000  Uiso   1.00
O1098  O     0.65240   0.31077   0.72553   0.00000  Uiso   1.00
N1099  N     0.97947   0.70428   0.31647   0.00000  Uiso   1.00
N1100  N     0.62919   0.45284   0.25256   0.00000  Uiso   1.00
N1101  N     0.60841   0.32989   0.64159   0.00000  Uiso   1.00
N1102  N     0.03839   0.66533   0.29234   0.00000  Uiso   1.00
N1103  N     0.68810   0.41389   0.22843   0.00000  Uiso   1.00
N1104  N     0.66732   0.29094   0.61746   0.00000  Uiso   1.00
