data_job_02848
_audit_creation_date              2018-12-19
_audit_creation_method            'Materials Studio'
_symmetry_space_group_name_H-M    'P1'
_symmetry_Int_Tables_number       1
_symmetry_cell_setting            triclinic
loop_
_symmetry_equiv_pos_as_xyz
  x,y,z
_cell_length_a                    40.5048
_cell_length_b                    47.3248
_cell_length_c                    13.8708
_cell_angle_alpha                 90.0000
_cell_angle_beta                  90.0000
_cell_angle_gamma                 90.0000
loop_
_atom_site_label
_atom_site_type_symbol
_atom_site_fract_x
_atom_site_fract_y
_atom_site_fract_z
_atom_site_U_iso_or_equiv
_atom_site_adp_type
_atom_site_occupancy
C1     C     0.82629   0.37494   0.28441   0.00000  Uiso   1.00
C2     C     0.80891   0.40052   0.32796   0.00000  Uiso   1.00
C3     C     0.79432   0.42236   0.27654   0.00000  Uiso   1.00
C4     C     0.77970   0.44383   0.32971   0.00000  Uiso   1.00
C5     C     0.75273   0.48361   0.38197   0.00000  Uiso   1.00
C6     C     0.86100   0.37479   0.32694   0.00000  Uiso   1.00
C7     C     0.89022   0.37499   0.27465   0.00000  Uiso   1.00
C8     C     0.91944   0.37479   0.32697   0.00000  Uiso   1.00
C9     C     0.97335   0.37460   0.37764   0.00000  Uiso   1.00
C10    C     0.80892   0.34904   0.32571   0.00000  Uiso   1.00
C11    C     0.79435   0.32759   0.27239   0.00000  Uiso   1.00
C12    C     0.77973   0.30572   0.32366   0.00000  Uiso   1.00
C13    C     0.75278   0.26555   0.37242   0.00000  Uiso   1.00
C14    C     0.82625   0.37424   0.47028   0.00000  Uiso   1.00
C15    C     0.80889   0.40014   0.42892   0.00000  Uiso   1.00
C16    C     0.79428   0.42158   0.48218   0.00000  Uiso   1.00
C17    C     0.77967   0.44345   0.43084   0.00000  Uiso   1.00
C18    C     0.86098   0.37441   0.42789   0.00000  Uiso   1.00
C19    C     0.89017   0.37421   0.48029   0.00000  Uiso   1.00
C20    C     0.91942   0.37441   0.42810   0.00000  Uiso   1.00
C21    C     0.80890   0.34866   0.42666   0.00000  Uiso   1.00
C22    C     0.79430   0.32682   0.47803   0.00000  Uiso   1.00
C23    C     0.77971   0.30533   0.42480   0.00000  Uiso   1.00
H24    H     0.82631   0.37524   0.20582   0.00000  Uiso   1.00
H25    H     0.79435   0.42264   0.19841   0.00000  Uiso   1.00
H26    H     0.89023   0.37528   0.19653   0.00000  Uiso   1.00
H27    H     0.79437   0.32789   0.19426   0.00000  Uiso   1.00
H28    H     0.75892   0.47504   0.23473   0.00000  Uiso   1.00
H29    H     0.96108   0.37516   0.23076   0.00000  Uiso   1.00
H30    H     0.75896   0.27523   0.22597   0.00000  Uiso   1.00
H31    H     0.82623   0.37394   0.54888   0.00000  Uiso   1.00
H32    H     0.79426   0.42128   0.56030   0.00000  Uiso   1.00
H33    H     0.89014   0.37392   0.55842   0.00000  Uiso   1.00
H34    H     0.79429   0.32653   0.55615   0.00000  Uiso   1.00
H35    H     0.75885   0.47394   0.52845   0.00000  Uiso   1.00
H36    H     0.96101   0.37405   0.52448   0.00000  Uiso   1.00
H37    H     0.75889   0.27412   0.51970   0.00000  Uiso   1.00
O38    O     0.73787   0.50566   0.38291   0.00000  Uiso   1.00
O39    O     0.00310   0.37461   0.37770   0.00000  Uiso   1.00
O40    O     0.73791   0.24350   0.37143   0.00000  Uiso   1.00
N41    N     0.76328   0.46828   0.30229   0.00000  Uiso   1.00
N42    N     0.95229   0.37490   0.29857   0.00000  Uiso   1.00
N43    N     0.76333   0.28147   0.29410   0.00000  Uiso   1.00
N44    N     0.76325   0.46769   0.46034   0.00000  Uiso   1.00
N45    N     0.95226   0.37431   0.45662   0.00000  Uiso   1.00
N46    N     0.76329   0.28088   0.45215   0.00000  Uiso   1.00
C47    C     0.15937   0.37516   0.22011   0.00000  Uiso   1.00
C48    C     0.17674   0.40102   0.17846   0.00000  Uiso   1.00
C49    C     0.19133   0.42252   0.23148   0.00000  Uiso   1.00
C50    C     0.20594   0.44434   0.17991   0.00000  Uiso   1.00
C51    C     0.23288   0.48445   0.13059   0.00000  Uiso   1.00
C52    C     0.12465   0.37527   0.17763   0.00000  Uiso   1.00
C53    C     0.09545   0.37513   0.22996   0.00000  Uiso   1.00
C54    C     0.06621   0.37527   0.17769   0.00000  Uiso   1.00
C55    C     0.01229   0.37539   0.12709   0.00000  Uiso   1.00
C56    C     0.17674   0.34954   0.17687   0.00000  Uiso   1.00
C57    C     0.19133   0.32775   0.22855   0.00000  Uiso   1.00
C58    C     0.20594   0.30622   0.17563   0.00000  Uiso   1.00
C59    C     0.23290   0.26638   0.12384   0.00000  Uiso   1.00
C60    C     0.15939   0.37566   0.03424   0.00000  Uiso   1.00
C61    C     0.17674   0.40129   0.07750   0.00000  Uiso   1.00
C62    C     0.19134   0.42307   0.02583   0.00000  Uiso   1.00
C63    C     0.20595   0.44460   0.07877   0.00000  Uiso   1.00
C64    C     0.12466   0.37554   0.07668   0.00000  Uiso   1.00
C65    C     0.09546   0.37568   0.02432   0.00000  Uiso   1.00
C66    C     0.06622   0.37554   0.07655   0.00000  Uiso   1.00
C67    C     0.17675   0.34981   0.07591   0.00000  Uiso   1.00
C68    C     0.19134   0.32830   0.02290   0.00000  Uiso   1.00
C69    C     0.20595   0.30649   0.07449   0.00000  Uiso   1.00
H70    H     0.15937   0.37495   0.29871   0.00000  Uiso   1.00
H71    H     0.19131   0.42231   0.30961   0.00000  Uiso   1.00
H72    H     0.09545   0.37492   0.30809   0.00000  Uiso   1.00
H73    H     0.19132   0.32755   0.30668   0.00000  Uiso   1.00
H74    H     0.22672   0.47494   0.27717   0.00000  Uiso   1.00
H75    H     0.02459   0.37501   0.27396   0.00000  Uiso   1.00
H76    H     0.22674   0.27511   0.27099   0.00000  Uiso   1.00
H77    H     0.15939   0.37586   0.95564   0.00000  Uiso   1.00
H78    H     0.19134   0.42327   0.94771   0.00000  Uiso   1.00
H79    H     0.09547   0.37588   0.94619   0.00000  Uiso   1.00
H80    H     0.19134   0.32851   0.94478   0.00000  Uiso   1.00
H81    H     0.22674   0.47572   0.98343   0.00000  Uiso   1.00
H82    H     0.02461   0.37578   0.98023   0.00000  Uiso   1.00
H83    H     0.22676   0.27590   0.97725   0.00000  Uiso   1.00
O84    O     0.24774   0.50650   0.13127   0.00000  Uiso   1.00
O85    O     0.98255   0.37539   0.12708   0.00000  Uiso   1.00
O86    O     0.24777   0.24434   0.12317   0.00000  Uiso   1.00
N87    N     0.22235   0.46861   0.20913   0.00000  Uiso   1.00
N88    N     0.03337   0.37519   0.20613   0.00000  Uiso   1.00
N89    N     0.22235   0.28179   0.20335   0.00000  Uiso   1.00
N90    N     0.22236   0.46903   0.05107   0.00000  Uiso   1.00
N91    N     0.03338   0.37561   0.04808   0.00000  Uiso   1.00
N92    N     0.22237   0.28221   0.04529   0.00000  Uiso   1.00
C93    C     0.82629   0.87494   0.78441   0.00000  Uiso   1.00
C94    C     0.80891   0.90052   0.82796   0.00000  Uiso   1.00
C95    C     0.79432   0.92236   0.77654   0.00000  Uiso   1.00
C96    C     0.77970   0.94383   0.82971   0.00000  Uiso   1.00
C97    C     0.75273   0.98361   0.88197   0.00000  Uiso   1.00
C98    C     0.86100   0.87479   0.82694   0.00000  Uiso   1.00
C99    C     0.89022   0.87499   0.77465   0.00000  Uiso   1.00
C100   C     0.91944   0.87479   0.82697   0.00000  Uiso   1.00
C101   C     0.97335   0.87460   0.87764   0.00000  Uiso   1.00
C102   C     0.80892   0.84904   0.82571   0.00000  Uiso   1.00
C103   C     0.79435   0.82759   0.77239   0.00000  Uiso   1.00
C104   C     0.77973   0.80572   0.82366   0.00000  Uiso   1.00
C105   C     0.75278   0.76555   0.87242   0.00000  Uiso   1.00
C106   C     0.82625   0.87424   0.97028   0.00000  Uiso   1.00
C107   C     0.80889   0.90014   0.92892   0.00000  Uiso   1.00
C108   C     0.79428   0.92158   0.98218   0.00000  Uiso   1.00
C109   C     0.77967   0.94345   0.93084   0.00000  Uiso   1.00
C110   C     0.86098   0.87441   0.92789   0.00000  Uiso   1.00
C111   C     0.89017   0.87421   0.98029   0.00000  Uiso   1.00
C112   C     0.91942   0.87441   0.92810   0.00000  Uiso   1.00
C113   C     0.80890   0.84866   0.92666   0.00000  Uiso   1.00
C114   C     0.79430   0.82682   0.97803   0.00000  Uiso   1.00
C115   C     0.77971   0.80533   0.92480   0.00000  Uiso   1.00
H116   H     0.82631   0.87524   0.70582   0.00000  Uiso   1.00
H117   H     0.79435   0.92264   0.69841   0.00000  Uiso   1.00
H118   H     0.89023   0.87528   0.69653   0.00000  Uiso   1.00
H119   H     0.79437   0.82789   0.69426   0.00000  Uiso   1.00
H120   H     0.75892   0.97504   0.73473   0.00000  Uiso   1.00
H121   H     0.96108   0.87516   0.73076   0.00000  Uiso   1.00
H122   H     0.75896   0.77523   0.72597   0.00000  Uiso   1.00
H123   H     0.82623   0.87394   0.04888   0.00000  Uiso   1.00
H124   H     0.79426   0.92128   0.06030   0.00000  Uiso   1.00
H125   H     0.89014   0.87392   0.05842   0.00000  Uiso   1.00
H126   H     0.79429   0.82653   0.05615   0.00000  Uiso   1.00
H127   H     0.75885   0.97394   0.02845   0.00000  Uiso   1.00
H128   H     0.96101   0.87405   0.02448   0.00000  Uiso   1.00
H129   H     0.75889   0.77412   0.01970   0.00000  Uiso   1.00
O130   O     0.73787   0.00566   0.88291   0.00000  Uiso   1.00
O131   O     0.00310   0.87461   0.87770   0.00000  Uiso   1.00
O132   O     0.73791   0.74350   0.87143   0.00000  Uiso   1.00
N133   N     0.76328   0.96828   0.80229   0.00000  Uiso   1.00
N134   N     0.95229   0.87490   0.79857   0.00000  Uiso   1.00
N135   N     0.76333   0.78147   0.79410   0.00000  Uiso   1.00
N136   N     0.76325   0.96769   0.96034   0.00000  Uiso   1.00
N137   N     0.95226   0.87431   0.95662   0.00000  Uiso   1.00
N138   N     0.76329   0.78088   0.95215   0.00000  Uiso   1.00
C139   C     0.15937   0.87516   0.72011   0.00000  Uiso   1.00
C140   C     0.17674   0.90102   0.67846   0.00000  Uiso   1.00
C141   C     0.19133   0.92252   0.73148   0.00000  Uiso   1.00
C142   C     0.20594   0.94434   0.67991   0.00000  Uiso   1.00
C143   C     0.23288   0.98445   0.63059   0.00000  Uiso   1.00
C144   C     0.12465   0.87527   0.67763   0.00000  Uiso   1.00
C145   C     0.09545   0.87513   0.72996   0.00000  Uiso   1.00
C146   C     0.06621   0.87527   0.67769   0.00000  Uiso   1.00
C147   C     0.01229   0.87539   0.62709   0.00000  Uiso   1.00
C148   C     0.17674   0.84954   0.67687   0.00000  Uiso   1.00
C149   C     0.19133   0.82775   0.72855   0.00000  Uiso   1.00
C150   C     0.20594   0.80622   0.67563   0.00000  Uiso   1.00
C151   C     0.23290   0.76638   0.62384   0.00000  Uiso   1.00
C152   C     0.15939   0.87566   0.53424   0.00000  Uiso   1.00
C153   C     0.17674   0.90129   0.57750   0.00000  Uiso   1.00
C154   C     0.19134   0.92307   0.52583   0.00000  Uiso   1.00
C155   C     0.20595   0.94460   0.57877   0.00000  Uiso   1.00
C156   C     0.12466   0.87554   0.57668   0.00000  Uiso   1.00
C157   C     0.09546   0.87568   0.52432   0.00000  Uiso   1.00
C158   C     0.06622   0.87554   0.57655   0.00000  Uiso   1.00
C159   C     0.17675   0.84981   0.57591   0.00000  Uiso   1.00
C160   C     0.19134   0.82830   0.52290   0.00000  Uiso   1.00
C161   C     0.20595   0.80649   0.57449   0.00000  Uiso   1.00
H162   H     0.15937   0.87495   0.79871   0.00000  Uiso   1.00
H163   H     0.19131   0.92231   0.80961   0.00000  Uiso   1.00
H164   H     0.09545   0.87492   0.80809   0.00000  Uiso   1.00
H165   H     0.19132   0.82755   0.80668   0.00000  Uiso   1.00
H166   H     0.22672   0.97494   0.77717   0.00000  Uiso   1.00
H167   H     0.02459   0.87501   0.77396   0.00000  Uiso   1.00
H168   H     0.22674   0.77511   0.77099   0.00000  Uiso   1.00
H169   H     0.15939   0.87586   0.45564   0.00000  Uiso   1.00
H170   H     0.19134   0.92327   0.44771   0.00000  Uiso   1.00
H171   H     0.09547   0.87588   0.44619   0.00000  Uiso   1.00
H172   H     0.19134   0.82851   0.44478   0.00000  Uiso   1.00
H173   H     0.22674   0.97572   0.48343   0.00000  Uiso   1.00
H174   H     0.02461   0.87578   0.48023   0.00000  Uiso   1.00
H175   H     0.22676   0.77590   0.47725   0.00000  Uiso   1.00
O176   O     0.24774   0.00650   0.63127   0.00000  Uiso   1.00
O177   O     0.98255   0.87539   0.62708   0.00000  Uiso   1.00
O178   O     0.24777   0.74434   0.62317   0.00000  Uiso   1.00
N179   N     0.22235   0.96861   0.70913   0.00000  Uiso   1.00
N180   N     0.03337   0.87519   0.70613   0.00000  Uiso   1.00
N181   N     0.22235   0.78179   0.70335   0.00000  Uiso   1.00
N182   N     0.22236   0.96903   0.55107   0.00000  Uiso   1.00
N183   N     0.03338   0.87561   0.54808   0.00000  Uiso   1.00
N184   N     0.22237   0.78221   0.54529   0.00000  Uiso   1.00
C185   C     0.17371   0.62506   0.28441   0.00000  Uiso   1.00
C186   C     0.19109   0.59948   0.32796   0.00000  Uiso   1.00
C187   C     0.20568   0.57764   0.27654   0.00000  Uiso   1.00
C188   C     0.22030   0.55617   0.32971   0.00000  Uiso   1.00
C189   C     0.24727   0.51639   0.38197   0.00000  Uiso   1.00
C190   C     0.13900   0.62521   0.32694   0.00000  Uiso   1.00
C191   C     0.10978   0.62501   0.27465   0.00000  Uiso   1.00
C192   C     0.08056   0.62521   0.32697   0.00000  Uiso   1.00
C193   C     0.02665   0.62540   0.37764   0.00000  Uiso   1.00
C194   C     0.19108   0.65096   0.32571   0.00000  Uiso   1.00
C195   C     0.20565   0.67241   0.27239   0.00000  Uiso   1.00
C196   C     0.22027   0.69428   0.32366   0.00000  Uiso   1.00
C197   C     0.24722   0.73445   0.37242   0.00000  Uiso   1.00
C198   C     0.17375   0.62576   0.47028   0.00000  Uiso   1.00
C199   C     0.19111   0.59986   0.42892   0.00000  Uiso   1.00
C200   C     0.20572   0.57842   0.48218   0.00000  Uiso   1.00
C201   C     0.22033   0.55655   0.43084   0.00000  Uiso   1.00
C202   C     0.13902   0.62559   0.42789   0.00000  Uiso   1.00
C203   C     0.10983   0.62579   0.48029   0.00000  Uiso   1.00
C204   C     0.08058   0.62559   0.42810   0.00000  Uiso   1.00
C205   C     0.19110   0.65134   0.42666   0.00000  Uiso   1.00
C206   C     0.20570   0.67318   0.47803   0.00000  Uiso   1.00
C207   C     0.22029   0.69467   0.42480   0.00000  Uiso   1.00
H208   H     0.17369   0.62476   0.20582   0.00000  Uiso   1.00
H209   H     0.20565   0.57736   0.19841   0.00000  Uiso   1.00
H210   H     0.10977   0.62472   0.19653   0.00000  Uiso   1.00
H211   H     0.20563   0.67211   0.19426   0.00000  Uiso   1.00
H212   H     0.24108   0.52496   0.23473   0.00000  Uiso   1.00
H213   H     0.03892   0.62484   0.23076   0.00000  Uiso   1.00
H214   H     0.24104   0.72477   0.22597   0.00000  Uiso   1.00
H215   H     0.17377   0.62606   0.54888   0.00000  Uiso   1.00
H216   H     0.20574   0.57872   0.56030   0.00000  Uiso   1.00
H217   H     0.10986   0.62608   0.55842   0.00000  Uiso   1.00
H218   H     0.20571   0.67347   0.55615   0.00000  Uiso   1.00
H219   H     0.24115   0.52606   0.52845   0.00000  Uiso   1.00
H220   H     0.03899   0.62595   0.52448   0.00000  Uiso   1.00
H221   H     0.24111   0.72588   0.51970   0.00000  Uiso   1.00
O222   O     0.26213   0.49434   0.38291   0.00000  Uiso   1.00
O223   O     0.99690   0.62539   0.37770   0.00000  Uiso   1.00
O224   O     0.26209   0.75650   0.37143   0.00000  Uiso   1.00
N225   N     0.23672   0.53172   0.30229   0.00000  Uiso   1.00
N226   N     0.04771   0.62510   0.29857   0.00000  Uiso   1.00
N227   N     0.23667   0.71853   0.29410   0.00000  Uiso   1.00
N228   N     0.23675   0.53231   0.46034   0.00000  Uiso   1.00
N229   N     0.04774   0.62569   0.45662   0.00000  Uiso   1.00
N230   N     0.23671   0.71912   0.45215   0.00000  Uiso   1.00
C231   C     0.84063   0.62484   0.22011   0.00000  Uiso   1.00
C232   C     0.82326   0.59898   0.17846   0.00000  Uiso   1.00
C233   C     0.80867   0.57748   0.23148   0.00000  Uiso   1.00
C234   C     0.79406   0.55566   0.17991   0.00000  Uiso   1.00
C235   C     0.76712   0.51555   0.13059   0.00000  Uiso   1.00
C236   C     0.87535   0.62473   0.17763   0.00000  Uiso   1.00
C237   C     0.90455   0.62487   0.22996   0.00000  Uiso   1.00
C238   C     0.93379   0.62473   0.17769   0.00000  Uiso   1.00
C239   C     0.98771   0.62461   0.12709   0.00000  Uiso   1.00
C240   C     0.82326   0.65046   0.17687   0.00000  Uiso   1.00
C241   C     0.80867   0.67225   0.22855   0.00000  Uiso   1.00
C242   C     0.79406   0.69378   0.17563   0.00000  Uiso   1.00
C243   C     0.76710   0.73362   0.12384   0.00000  Uiso   1.00
C244   C     0.84061   0.62434   0.03424   0.00000  Uiso   1.00
C245   C     0.82326   0.59871   0.07750   0.00000  Uiso   1.00
C246   C     0.80866   0.57693   0.02583   0.00000  Uiso   1.00
C247   C     0.79405   0.55540   0.07877   0.00000  Uiso   1.00
C248   C     0.87534   0.62446   0.07668   0.00000  Uiso   1.00
C249   C     0.90454   0.62432   0.02432   0.00000  Uiso   1.00
C250   C     0.93378   0.62446   0.07655   0.00000  Uiso   1.00
C251   C     0.82325   0.65019   0.07591   0.00000  Uiso   1.00
C252   C     0.80866   0.67170   0.02290   0.00000  Uiso   1.00
C253   C     0.79405   0.69351   0.07449   0.00000  Uiso   1.00
H254   H     0.84063   0.62505   0.29871   0.00000  Uiso   1.00
H255   H     0.80869   0.57769   0.30961   0.00000  Uiso   1.00
H256   H     0.90455   0.62508   0.30809   0.00000  Uiso   1.00
H257   H     0.80868   0.67245   0.30668   0.00000  Uiso   1.00
H258   H     0.77328   0.52506   0.27717   0.00000  Uiso   1.00
H259   H     0.97541   0.62499   0.27396   0.00000  Uiso   1.00
H260   H     0.77326   0.72489   0.27099   0.00000  Uiso   1.00
H261   H     0.84061   0.62414   0.95564   0.00000  Uiso   1.00
H262   H     0.80866   0.57673   0.94771   0.00000  Uiso   1.00
H263   H     0.90453   0.62412   0.94619   0.00000  Uiso   1.00
H264   H     0.80866   0.67149   0.94478   0.00000  Uiso   1.00
H265   H     0.77326   0.52428   0.98343   0.00000  Uiso   1.00
H266   H     0.97539   0.62422   0.98023   0.00000  Uiso   1.00
H267   H     0.77324   0.72410   0.97725   0.00000  Uiso   1.00
O268   O     0.75226   0.49350   0.13127   0.00000  Uiso   1.00
O269   O     0.01745   0.62461   0.12708   0.00000  Uiso   1.00
O270   O     0.75223   0.75566   0.12317   0.00000  Uiso   1.00
N271   N     0.77765   0.53139   0.20913   0.00000  Uiso   1.00
N272   N     0.96663   0.62481   0.20613   0.00000  Uiso   1.00
N273   N     0.77765   0.71821   0.20335   0.00000  Uiso   1.00
N274   N     0.77764   0.53097   0.05107   0.00000  Uiso   1.00
N275   N     0.96662   0.62439   0.04808   0.00000  Uiso   1.00
N276   N     0.77763   0.71779   0.04529   0.00000  Uiso   1.00
C277   C     0.17371   0.12506   0.78441   0.00000  Uiso   1.00
C278   C     0.19109   0.09948   0.82796   0.00000  Uiso   1.00
C279   C     0.20568   0.07764   0.77654   0.00000  Uiso   1.00
C280   C     0.22030   0.05617   0.82971   0.00000  Uiso   1.00
C281   C     0.24727   0.01639   0.88197   0.00000  Uiso   1.00
C282   C     0.13900   0.12521   0.82694   0.00000  Uiso   1.00
C283   C     0.10978   0.12501   0.77465   0.00000  Uiso   1.00
C284   C     0.08056   0.12521   0.82697   0.00000  Uiso   1.00
C285   C     0.02665   0.12540   0.87764   0.00000  Uiso   1.00
C286   C     0.19108   0.15096   0.82571   0.00000  Uiso   1.00
C287   C     0.20565   0.17241   0.77239   0.00000  Uiso   1.00
C288   C     0.22027   0.19428   0.82366   0.00000  Uiso   1.00
C289   C     0.24722   0.23445   0.87242   0.00000  Uiso   1.00
C290   C     0.17375   0.12576   0.97028   0.00000  Uiso   1.00
C291   C     0.19111   0.09986   0.92892   0.00000  Uiso   1.00
C292   C     0.20572   0.07842   0.98218   0.00000  Uiso   1.00
C293   C     0.22033   0.05655   0.93084   0.00000  Uiso   1.00
C294   C     0.13902   0.12559   0.92789   0.00000  Uiso   1.00
C295   C     0.10983   0.12579   0.98029   0.00000  Uiso   1.00
C296   C     0.08058   0.12559   0.92810   0.00000  Uiso   1.00
C297   C     0.19110   0.15134   0.92666   0.00000  Uiso   1.00
C298   C     0.20570   0.17318   0.97803   0.00000  Uiso   1.00
C299   C     0.22029   0.19467   0.92480   0.00000  Uiso   1.00
H300   H     0.17369   0.12476   0.70582   0.00000  Uiso   1.00
H301   H     0.20565   0.07736   0.69841   0.00000  Uiso   1.00
H302   H     0.10977   0.12472   0.69653   0.00000  Uiso   1.00
H303   H     0.20563   0.17211   0.69426   0.00000  Uiso   1.00
H304   H     0.24108   0.02496   0.73473   0.00000  Uiso   1.00
H305   H     0.03892   0.12484   0.73076   0.00000  Uiso   1.00
H306   H     0.24104   0.22477   0.72597   0.00000  Uiso   1.00
H307   H     0.17377   0.12606   0.04888   0.00000  Uiso   1.00
H308   H     0.20574   0.07872   0.06030   0.00000  Uiso   1.00
H309   H     0.10986   0.12608   0.05842   0.00000  Uiso   1.00
H310   H     0.20571   0.17347   0.05615   0.00000  Uiso   1.00
H311   H     0.24115   0.02606   0.02845   0.00000  Uiso   1.00
H312   H     0.03899   0.12595   0.02448   0.00000  Uiso   1.00
H313   H     0.24111   0.22588   0.01970   0.00000  Uiso   1.00
O314   O     0.26213   0.99434   0.88291   0.00000  Uiso   1.00
O315   O     0.99690   0.12539   0.87770   0.00000  Uiso   1.00
O316   O     0.26209   0.25650   0.87143   0.00000  Uiso   1.00
N317   N     0.23672   0.03172   0.80229   0.00000  Uiso   1.00
N318   N     0.04771   0.12510   0.79857   0.00000  Uiso   1.00
N319   N     0.23667   0.21853   0.79410   0.00000  Uiso   1.00
N320   N     0.23675   0.03231   0.96034   0.00000  Uiso   1.00
N321   N     0.04774   0.12569   0.95662   0.00000  Uiso   1.00
N322   N     0.23671   0.21912   0.95215   0.00000  Uiso   1.00
C323   C     0.84063   0.12484   0.72011   0.00000  Uiso   1.00
C324   C     0.82326   0.09898   0.67846   0.00000  Uiso   1.00
C325   C     0.80867   0.07748   0.73148   0.00000  Uiso   1.00
C326   C     0.79406   0.05566   0.67991   0.00000  Uiso   1.00
C327   C     0.76712   0.01555   0.63059   0.00000  Uiso   1.00
C328   C     0.87535   0.12473   0.67763   0.00000  Uiso   1.00
C329   C     0.90455   0.12487   0.72996   0.00000  Uiso   1.00
C330   C     0.93379   0.12473   0.67769   0.00000  Uiso   1.00
C331   C     0.98771   0.12461   0.62709   0.00000  Uiso   1.00
C332   C     0.82326   0.15046   0.67687   0.00000  Uiso   1.00
C333   C     0.80867   0.17225   0.72855   0.00000  Uiso   1.00
C334   C     0.79406   0.19378   0.67563   0.00000  Uiso   1.00
C335   C     0.76710   0.23362   0.62384   0.00000  Uiso   1.00
C336   C     0.84061   0.12434   0.53424   0.00000  Uiso   1.00
C337   C     0.82326   0.09871   0.57750   0.00000  Uiso   1.00
C338   C     0.80866   0.07693   0.52583   0.00000  Uiso   1.00
C339   C     0.79405   0.05540   0.57877   0.00000  Uiso   1.00
C340   C     0.87534   0.12446   0.57668   0.00000  Uiso   1.00
C341   C     0.90454   0.12432   0.52432   0.00000  Uiso   1.00
C342   C     0.93378   0.12446   0.57655   0.00000  Uiso   1.00
C343   C     0.82325   0.15019   0.57591   0.00000  Uiso   1.00
C344   C     0.80866   0.17170   0.52290   0.00000  Uiso   1.00
C345   C     0.79405   0.19351   0.57449   0.00000  Uiso   1.00
H346   H     0.84063   0.12505   0.79871   0.00000  Uiso   1.00
H347   H     0.80869   0.07769   0.80961   0.00000  Uiso   1.00
H348   H     0.90455   0.12508   0.80809   0.00000  Uiso   1.00
H349   H     0.80868   0.17245   0.80668   0.00000  Uiso   1.00
H350   H     0.77328   0.02506   0.77717   0.00000  Uiso   1.00
H351   H     0.97541   0.12499   0.77396   0.00000  Uiso   1.00
H352   H     0.77326   0.22489   0.77099   0.00000  Uiso   1.00
H353   H     0.84061   0.12414   0.45564   0.00000  Uiso   1.00
H354   H     0.80866   0.07673   0.44771   0.00000  Uiso   1.00
H355   H     0.90453   0.12412   0.44619   0.00000  Uiso   1.00
H356   H     0.80866   0.17149   0.44478   0.00000  Uiso   1.00
H357   H     0.77326   0.02428   0.48343   0.00000  Uiso   1.00
H358   H     0.97539   0.12422   0.48023   0.00000  Uiso   1.00
H359   H     0.77324   0.22410   0.47725   0.00000  Uiso   1.00
O360   O     0.75226   0.99350   0.63127   0.00000  Uiso   1.00
O361   O     0.01745   0.12461   0.62708   0.00000  Uiso   1.00
O362   O     0.75223   0.25566   0.62317   0.00000  Uiso   1.00
N363   N     0.77765   0.03139   0.70913   0.00000  Uiso   1.00
N364   N     0.96663   0.12481   0.70613   0.00000  Uiso   1.00
N365   N     0.77765   0.21821   0.70335   0.00000  Uiso   1.00
N366   N     0.77764   0.03097   0.55107   0.00000  Uiso   1.00
N367   N     0.96662   0.12439   0.54808   0.00000  Uiso   1.00
N368   N     0.77763   0.21779   0.54529   0.00000  Uiso   1.00
C369   C     0.32629   0.12506   0.28441   0.00000  Uiso   1.00
C370   C     0.30891   0.09948   0.32796   0.00000  Uiso   1.00
C371   C     0.29432   0.07764   0.27654   0.00000  Uiso   1.00
C372   C     0.27970   0.05617   0.32971   0.00000  Uiso   1.00
C373   C     0.25273   0.01639   0.38197   0.00000  Uiso   1.00
C374   C     0.36100   0.12521   0.32694   0.00000  Uiso   1.00
C375   C     0.39022   0.12501   0.27465   0.00000  Uiso   1.00
C376   C     0.41944   0.12521   0.32697   0.00000  Uiso   1.00
C377   C     0.47335   0.12540   0.37764   0.00000  Uiso   1.00
C378   C     0.30892   0.15096   0.32571   0.00000  Uiso   1.00
C379   C     0.29435   0.17241   0.27239   0.00000  Uiso   1.00
C380   C     0.27973   0.19428   0.32366   0.00000  Uiso   1.00
C381   C     0.25278   0.23445   0.37242   0.00000  Uiso   1.00
C382   C     0.32625   0.12576   0.47028   0.00000  Uiso   1.00
C383   C     0.30889   0.09986   0.42892   0.00000  Uiso   1.00
C384   C     0.29428   0.07842   0.48218   0.00000  Uiso   1.00
C385   C     0.27967   0.05655   0.43084   0.00000  Uiso   1.00
C386   C     0.36098   0.12559   0.42789   0.00000  Uiso   1.00
C387   C     0.39017   0.12579   0.48029   0.00000  Uiso   1.00
C388   C     0.41942   0.12559   0.42810   0.00000  Uiso   1.00
C389   C     0.30890   0.15134   0.42666   0.00000  Uiso   1.00
C390   C     0.29430   0.17318   0.47803   0.00000  Uiso   1.00
C391   C     0.27971   0.19467   0.42480   0.00000  Uiso   1.00
H392   H     0.32631   0.12476   0.20582   0.00000  Uiso   1.00
H393   H     0.29435   0.07736   0.19841   0.00000  Uiso   1.00
H394   H     0.39023   0.12472   0.19653   0.00000  Uiso   1.00
H395   H     0.29437   0.17211   0.19426   0.00000  Uiso   1.00
H396   H     0.25892   0.02496   0.23473   0.00000  Uiso   1.00
H397   H     0.46108   0.12484   0.23076   0.00000  Uiso   1.00
H398   H     0.25896   0.22477   0.22597   0.00000  Uiso   1.00
H399   H     0.32623   0.12606   0.54888   0.00000  Uiso   1.00
H400   H     0.29426   0.07872   0.56030   0.00000  Uiso   1.00
H401   H     0.39014   0.12608   0.55842   0.00000  Uiso   1.00
H402   H     0.29429   0.17347   0.55615   0.00000  Uiso   1.00
H403   H     0.25885   0.02606   0.52845   0.00000  Uiso   1.00
H404   H     0.46101   0.12595   0.52448   0.00000  Uiso   1.00
H405   H     0.25889   0.22588   0.51970   0.00000  Uiso   1.00
O406   O     0.23787   0.99434   0.38291   0.00000  Uiso   1.00
O407   O     0.50310   0.12539   0.37770   0.00000  Uiso   1.00
O408   O     0.23791   0.25650   0.37143   0.00000  Uiso   1.00
N409   N     0.26328   0.03172   0.30229   0.00000  Uiso   1.00
N410   N     0.45229   0.12510   0.29857   0.00000  Uiso   1.00
N411   N     0.26333   0.21853   0.29410   0.00000  Uiso   1.00
N412   N     0.26325   0.03231   0.46034   0.00000  Uiso   1.00
N413   N     0.45226   0.12569   0.45662   0.00000  Uiso   1.00
N414   N     0.26329   0.21912   0.45215   0.00000  Uiso   1.00
C415   C     0.65937   0.12484   0.22011   0.00000  Uiso   1.00
C416   C     0.67674   0.09898   0.17846   0.00000  Uiso   1.00
C417   C     0.69133   0.07748   0.23148   0.00000  Uiso   1.00
C418   C     0.70594   0.05566   0.17991   0.00000  Uiso   1.00
C419   C     0.73288   0.01555   0.13059   0.00000  Uiso   1.00
C420   C     0.62465   0.12473   0.17763   0.00000  Uiso   1.00
C421   C     0.59545   0.12487   0.22996   0.00000  Uiso   1.00
C422   C     0.56621   0.12473   0.17769   0.00000  Uiso   1.00
C423   C     0.51229   0.12461   0.12709   0.00000  Uiso   1.00
C424   C     0.67674   0.15046   0.17687   0.00000  Uiso   1.00
C425   C     0.69133   0.17225   0.22855   0.00000  Uiso   1.00
C426   C     0.70594   0.19378   0.17563   0.00000  Uiso   1.00
C427   C     0.73290   0.23362   0.12384   0.00000  Uiso   1.00
C428   C     0.65939   0.12434   0.03424   0.00000  Uiso   1.00
C429   C     0.67674   0.09871   0.07750   0.00000  Uiso   1.00
C430   C     0.69134   0.07693   0.02583   0.00000  Uiso   1.00
C431   C     0.70595   0.05540   0.07877   0.00000  Uiso   1.00
C432   C     0.62466   0.12446   0.07668   0.00000  Uiso   1.00
C433   C     0.59546   0.12432   0.02432   0.00000  Uiso   1.00
C434   C     0.56622   0.12446   0.07655   0.00000  Uiso   1.00
C435   C     0.67675   0.15019   0.07591   0.00000  Uiso   1.00
C436   C     0.69134   0.17170   0.02290   0.00000  Uiso   1.00
C437   C     0.70595   0.19351   0.07449   0.00000  Uiso   1.00
H438   H     0.65937   0.12505   0.29871   0.00000  Uiso   1.00
H439   H     0.69131   0.07769   0.30961   0.00000  Uiso   1.00
H440   H     0.59545   0.12508   0.30809   0.00000  Uiso   1.00
H441   H     0.69132   0.17245   0.30668   0.00000  Uiso   1.00
H442   H     0.72672   0.02506   0.27717   0.00000  Uiso   1.00
H443   H     0.52459   0.12499   0.27396   0.00000  Uiso   1.00
H444   H     0.72674   0.22489   0.27099   0.00000  Uiso   1.00
H445   H     0.65939   0.12414   0.95564   0.00000  Uiso   1.00
H446   H     0.69134   0.07673   0.94771   0.00000  Uiso   1.00
H447   H     0.59547   0.12412   0.94619   0.00000  Uiso   1.00
H448   H     0.69134   0.17149   0.94478   0.00000  Uiso   1.00
H449   H     0.72674   0.02428   0.98343   0.00000  Uiso   1.00
H450   H     0.52461   0.12422   0.98023   0.00000  Uiso   1.00
H451   H     0.72676   0.22410   0.97725   0.00000  Uiso   1.00
O452   O     0.74774   0.99350   0.13127   0.00000  Uiso   1.00
O453   O     0.48255   0.12461   0.12708   0.00000  Uiso   1.00
O454   O     0.74777   0.25566   0.12317   0.00000  Uiso   1.00
N455   N     0.72235   0.03139   0.20913   0.00000  Uiso   1.00
N456   N     0.53337   0.12481   0.20613   0.00000  Uiso   1.00
N457   N     0.72235   0.21821   0.20335   0.00000  Uiso   1.00
N458   N     0.72236   0.03097   0.05107   0.00000  Uiso   1.00
N459   N     0.53338   0.12439   0.04808   0.00000  Uiso   1.00
N460   N     0.72237   0.21779   0.04529   0.00000  Uiso   1.00
C461   C     0.32629   0.62506   0.78441   0.00000  Uiso   1.00
C462   C     0.30891   0.59948   0.82796   0.00000  Uiso   1.00
C463   C     0.29432   0.57764   0.77654   0.00000  Uiso   1.00
C464   C     0.27970   0.55617   0.82971   0.00000  Uiso   1.00
C465   C     0.25273   0.51639   0.88197   0.00000  Uiso   1.00
C466   C     0.36100   0.62521   0.82694   0.00000  Uiso   1.00
C467   C     0.39022   0.62501   0.77465   0.00000  Uiso   1.00
C468   C     0.41944   0.62521   0.82697   0.00000  Uiso   1.00
C469   C     0.47335   0.62540   0.87764   0.00000  Uiso   1.00
C470   C     0.30892   0.65096   0.82571   0.00000  Uiso   1.00
C471   C     0.29435   0.67241   0.77239   0.00000  Uiso   1.00
C472   C     0.27973   0.69428   0.82366   0.00000  Uiso   1.00
C473   C     0.25278   0.73445   0.87242   0.00000  Uiso   1.00
C474   C     0.32625   0.62576   0.97028   0.00000  Uiso   1.00
C475   C     0.30889   0.59986   0.92892   0.00000  Uiso   1.00
C476   C     0.29428   0.57842   0.98218   0.00000  Uiso   1.00
C477   C     0.27967   0.55655   0.93084   0.00000  Uiso   1.00
C478   C     0.36098   0.62559   0.92789   0.00000  Uiso   1.00
C479   C     0.39017   0.62579   0.98029   0.00000  Uiso   1.00
C480   C     0.41942   0.62559   0.92810   0.00000  Uiso   1.00
C481   C     0.30890   0.65134   0.92666   0.00000  Uiso   1.00
C482   C     0.29430   0.67318   0.97803   0.00000  Uiso   1.00
C483   C     0.27971   0.69467   0.92480   0.00000  Uiso   1.00
H484   H     0.32631   0.62476   0.70582   0.00000  Uiso   1.00
H485   H     0.29435   0.57736   0.69841   0.00000  Uiso   1.00
H486   H     0.39023   0.62472   0.69653   0.00000  Uiso   1.00
H487   H     0.29437   0.67211   0.69426   0.00000  Uiso   1.00
H488   H     0.25892   0.52496   0.73473   0.00000  Uiso   1.00
H489   H     0.46108   0.62484   0.73076   0.00000  Uiso   1.00
H490   H     0.25896   0.72477   0.72597   0.00000  Uiso   1.00
H491   H     0.32623   0.62606   0.04888   0.00000  Uiso   1.00
H492   H     0.29426   0.57872   0.06030   0.00000  Uiso   1.00
H493   H     0.39014   0.62608   0.05842   0.00000  Uiso   1.00
H494   H     0.29429   0.67347   0.05615   0.00000  Uiso   1.00
H495   H     0.25885   0.52606   0.02845   0.00000  Uiso   1.00
H496   H     0.46101   0.62595   0.02448   0.00000  Uiso   1.00
H497   H     0.25889   0.72588   0.01970   0.00000  Uiso   1.00
O498   O     0.23787   0.49434   0.88291   0.00000  Uiso   1.00
O499   O     0.50310   0.62539   0.87770   0.00000  Uiso   1.00
O500   O     0.23791   0.75650   0.87143   0.00000  Uiso   1.00
N501   N     0.26328   0.53172   0.80229   0.00000  Uiso   1.00
N502   N     0.45229   0.62510   0.79857   0.00000  Uiso   1.00
N503   N     0.26333   0.71853   0.79410   0.00000  Uiso   1.00
N504   N     0.26325   0.53231   0.96034   0.00000  Uiso   1.00
N505   N     0.45226   0.62569   0.95662   0.00000  Uiso   1.00
N506   N     0.26329   0.71912   0.95215   0.00000  Uiso   1.00
C507   C     0.65937   0.62484   0.72011   0.00000  Uiso   1.00
C508   C     0.67674   0.59898   0.67846   0.00000  Uiso   1.00
C509   C     0.69133   0.57748   0.73148   0.00000  Uiso   1.00
C510   C     0.70594   0.55566   0.67991   0.00000  Uiso   1.00
C511   C     0.73288   0.51555   0.63059   0.00000  Uiso   1.00
C512   C     0.62465   0.62473   0.67763   0.00000  Uiso   1.00
C513   C     0.59545   0.62487   0.72996   0.00000  Uiso   1.00
C514   C     0.56621   0.62473   0.67769   0.00000  Uiso   1.00
C515   C     0.51229   0.62461   0.62709   0.00000  Uiso   1.00
C516   C     0.67674   0.65046   0.67687   0.00000  Uiso   1.00
C517   C     0.69133   0.67225   0.72855   0.00000  Uiso   1.00
C518   C     0.70594   0.69378   0.67563   0.00000  Uiso   1.00
C519   C     0.73290   0.73362   0.62384   0.00000  Uiso   1.00
C520   C     0.65939   0.62434   0.53424   0.00000  Uiso   1.00
C521   C     0.67674   0.59871   0.57750   0.00000  Uiso   1.00
C522   C     0.69134   0.57693   0.52583   0.00000  Uiso   1.00
C523   C     0.70595   0.55540   0.57877   0.00000  Uiso   1.00
C524   C     0.62466   0.62446   0.57668   0.00000  Uiso   1.00
C525   C     0.59546   0.62432   0.52432   0.00000  Uiso   1.00
C526   C     0.56622   0.62446   0.57655   0.00000  Uiso   1.00
C527   C     0.67675   0.65019   0.57591   0.00000  Uiso   1.00
C528   C     0.69134   0.67170   0.52290   0.00000  Uiso   1.00
C529   C     0.70595   0.69351   0.57449   0.00000  Uiso   1.00
H530   H     0.65937   0.62505   0.79871   0.00000  Uiso   1.00
H531   H     0.69131   0.57769   0.80961   0.00000  Uiso   1.00
H532   H     0.59545   0.62508   0.80809   0.00000  Uiso   1.00
H533   H     0.69132   0.67245   0.80668   0.00000  Uiso   1.00
H534   H     0.72672   0.52506   0.77717   0.00000  Uiso   1.00
H535   H     0.52459   0.62499   0.77396   0.00000  Uiso   1.00
H536   H     0.72674   0.72489   0.77099   0.00000  Uiso   1.00
H537   H     0.65939   0.62414   0.45564   0.00000  Uiso   1.00
H538   H     0.69134   0.57673   0.44771   0.00000  Uiso   1.00
H539   H     0.59547   0.62412   0.44619   0.00000  Uiso   1.00
H540   H     0.69134   0.67149   0.44478   0.00000  Uiso   1.00
H541   H     0.72674   0.52428   0.48343   0.00000  Uiso   1.00
H542   H     0.52461   0.62422   0.48023   0.00000  Uiso   1.00
H543   H     0.72676   0.72410   0.47725   0.00000  Uiso   1.00
O544   O     0.74774   0.49350   0.63127   0.00000  Uiso   1.00
O545   O     0.48255   0.62461   0.62708   0.00000  Uiso   1.00
O546   O     0.74777   0.75566   0.62317   0.00000  Uiso   1.00
N547   N     0.72235   0.53139   0.70913   0.00000  Uiso   1.00
N548   N     0.53337   0.62481   0.70613   0.00000  Uiso   1.00
N549   N     0.72235   0.71821   0.70335   0.00000  Uiso   1.00
N550   N     0.72236   0.53097   0.55107   0.00000  Uiso   1.00
N551   N     0.53338   0.62439   0.54808   0.00000  Uiso   1.00
N552   N     0.72237   0.71779   0.54529   0.00000  Uiso   1.00
C553   C     0.67371   0.87494   0.28441   0.00000  Uiso   1.00
C554   C     0.69109   0.90052   0.32796   0.00000  Uiso   1.00
C555   C     0.70568   0.92236   0.27654   0.00000  Uiso   1.00
C556   C     0.72030   0.94383   0.32971   0.00000  Uiso   1.00
C557   C     0.74727   0.98361   0.38197   0.00000  Uiso   1.00
C558   C     0.63900   0.87479   0.32694   0.00000  Uiso   1.00
C559   C     0.60978   0.87499   0.27465   0.00000  Uiso   1.00
C560   C     0.58056   0.87479   0.32697   0.00000  Uiso   1.00
C561   C     0.52665   0.87460   0.37764   0.00000  Uiso   1.00
C562   C     0.69108   0.84904   0.32571   0.00000  Uiso   1.00
C563   C     0.70565   0.82759   0.27239   0.00000  Uiso   1.00
C564   C     0.72027   0.80572   0.32366   0.00000  Uiso   1.00
C565   C     0.74722   0.76555   0.37242   0.00000  Uiso   1.00
C566   C     0.67375   0.87424   0.47028   0.00000  Uiso   1.00
C567   C     0.69111   0.90014   0.42892   0.00000  Uiso   1.00
C568   C     0.70572   0.92158   0.48218   0.00000  Uiso   1.00
C569   C     0.72033   0.94345   0.43084   0.00000  Uiso   1.00
C570   C     0.63902   0.87441   0.42789   0.00000  Uiso   1.00
C571   C     0.60983   0.87421   0.48029   0.00000  Uiso   1.00
C572   C     0.58058   0.87441   0.42810   0.00000  Uiso   1.00
C573   C     0.69110   0.84866   0.42666   0.00000  Uiso   1.00
C574   C     0.70570   0.82682   0.47803   0.00000  Uiso   1.00
C575   C     0.72029   0.80533   0.42480   0.00000  Uiso   1.00
H576   H     0.67369   0.87524   0.20582   0.00000  Uiso   1.00
H577   H     0.70565   0.92264   0.19841   0.00000  Uiso   1.00
H578   H     0.60977   0.87528   0.19653   0.00000  Uiso   1.00
H579   H     0.70563   0.82789   0.19426   0.00000  Uiso   1.00
H580   H     0.74108   0.97504   0.23473   0.00000  Uiso   1.00
H581   H     0.53892   0.87516   0.23076   0.00000  Uiso   1.00
H582   H     0.74104   0.77523   0.22597   0.00000  Uiso   1.00
H583   H     0.67377   0.87394   0.54888   0.00000  Uiso   1.00
H584   H     0.70574   0.92128   0.56030   0.00000  Uiso   1.00
H585   H     0.60986   0.87392   0.55842   0.00000  Uiso   1.00
H586   H     0.70571   0.82653   0.55615   0.00000  Uiso   1.00
H587   H     0.74115   0.97394   0.52845   0.00000  Uiso   1.00
H588   H     0.53899   0.87405   0.52448   0.00000  Uiso   1.00
H589   H     0.74111   0.77412   0.51970   0.00000  Uiso   1.00
O590   O     0.76213   0.00566   0.38291   0.00000  Uiso   1.00
O591   O     0.49690   0.87461   0.37770   0.00000  Uiso   1.00
O592   O     0.76209   0.74350   0.37143   0.00000  Uiso   1.00
N593   N     0.73672   0.96828   0.30229   0.00000  Uiso   1.00
N594   N     0.54771   0.87490   0.29857   0.00000  Uiso   1.00
N595   N     0.73667   0.78147   0.29410   0.00000  Uiso   1.00
N596   N     0.73675   0.96769   0.46034   0.00000  Uiso   1.00
N597   N     0.54774   0.87431   0.45662   0.00000  Uiso   1.00
N598   N     0.73671   0.78088   0.45215   0.00000  Uiso   1.00
C599   C     0.34063   0.87516   0.22011   0.00000  Uiso   1.00
C600   C     0.32326   0.90102   0.17846   0.00000  Uiso   1.00
C601   C     0.30867   0.92252   0.23148   0.00000  Uiso   1.00
C602   C     0.29406   0.94434   0.17991   0.00000  Uiso   1.00
C603   C     0.26712   0.98445   0.13059   0.00000  Uiso   1.00
C604   C     0.37535   0.87527   0.17763   0.00000  Uiso   1.00
C605   C     0.40455   0.87513   0.22996   0.00000  Uiso   1.00
C606   C     0.43379   0.87527   0.17769   0.00000  Uiso   1.00
C607   C     0.48771   0.87539   0.12709   0.00000  Uiso   1.00
C608   C     0.32326   0.84954   0.17687   0.00000  Uiso   1.00
C609   C     0.30867   0.82775   0.22855   0.00000  Uiso   1.00
C610   C     0.29406   0.80622   0.17563   0.00000  Uiso   1.00
C611   C     0.26710   0.76638   0.12384   0.00000  Uiso   1.00
C612   C     0.34061   0.87566   0.03424   0.00000  Uiso   1.00
C613   C     0.32326   0.90129   0.07750   0.00000  Uiso   1.00
C614   C     0.30866   0.92307   0.02583   0.00000  Uiso   1.00
C615   C     0.29405   0.94460   0.07877   0.00000  Uiso   1.00
C616   C     0.37534   0.87554   0.07668   0.00000  Uiso   1.00
C617   C     0.40454   0.87568   0.02432   0.00000  Uiso   1.00
C618   C     0.43378   0.87554   0.07655   0.00000  Uiso   1.00
C619   C     0.32325   0.84981   0.07591   0.00000  Uiso   1.00
C620   C     0.30866   0.82830   0.02290   0.00000  Uiso   1.00
C621   C     0.29405   0.80649   0.07449   0.00000  Uiso   1.00
H622   H     0.34063   0.87495   0.29871   0.00000  Uiso   1.00
H623   H     0.30869   0.92231   0.30961   0.00000  Uiso   1.00
H624   H     0.40455   0.87492   0.30809   0.00000  Uiso   1.00
H625   H     0.30868   0.82755   0.30668   0.00000  Uiso   1.00
H626   H     0.27328   0.97494   0.27717   0.00000  Uiso   1.00
H627   H     0.47541   0.87501   0.27396   0.00000  Uiso   1.00
H628   H     0.27326   0.77511   0.27099   0.00000  Uiso   1.00
H629   H     0.34061   0.87586   0.95564   0.00000  Uiso   1.00
H630   H     0.30866   0.92327   0.94771   0.00000  Uiso   1.00
H631   H     0.40453   0.87588   0.94619   0.00000  Uiso   1.00
H632   H     0.30866   0.82851   0.94478   0.00000  Uiso   1.00
H633   H     0.27326   0.97572   0.98343   0.00000  Uiso   1.00
H634   H     0.47539   0.87578   0.98023   0.00000  Uiso   1.00
H635   H     0.27324   0.77590   0.97725   0.00000  Uiso   1.00
O636   O     0.25226   0.00650   0.13127   0.00000  Uiso   1.00
O637   O     0.51745   0.87539   0.12708   0.00000  Uiso   1.00
O638   O     0.25223   0.74434   0.12317   0.00000  Uiso   1.00
N639   N     0.27765   0.96861   0.20913   0.00000  Uiso   1.00
N640   N     0.46663   0.87519   0.20613   0.00000  Uiso   1.00
N641   N     0.27765   0.78179   0.20335   0.00000  Uiso   1.00
N642   N     0.27764   0.96903   0.05107   0.00000  Uiso   1.00
N643   N     0.46662   0.87561   0.04808   0.00000  Uiso   1.00
N644   N     0.27763   0.78221   0.04529   0.00000  Uiso   1.00
C645   C     0.67371   0.37494   0.78441   0.00000  Uiso   1.00
C646   C     0.69109   0.40052   0.82796   0.00000  Uiso   1.00
C647   C     0.70568   0.42236   0.77654   0.00000  Uiso   1.00
C648   C     0.72030   0.44383   0.82971   0.00000  Uiso   1.00
C649   C     0.74727   0.48361   0.88197   0.00000  Uiso   1.00
C650   C     0.63900   0.37479   0.82694   0.00000  Uiso   1.00
C651   C     0.60978   0.37499   0.77465   0.00000  Uiso   1.00
C652   C     0.58056   0.37479   0.82697   0.00000  Uiso   1.00
C653   C     0.52665   0.37460   0.87764   0.00000  Uiso   1.00
C654   C     0.69108   0.34904   0.82571   0.00000  Uiso   1.00
C655   C     0.70565   0.32759   0.77239   0.00000  Uiso   1.00
C656   C     0.72027   0.30572   0.82366   0.00000  Uiso   1.00
C657   C     0.74722   0.26555   0.87242   0.00000  Uiso   1.00
C658   C     0.67375   0.37424   0.97028   0.00000  Uiso   1.00
C659   C     0.69111   0.40014   0.92892   0.00000  Uiso   1.00
C660   C     0.70572   0.42158   0.98218   0.00000  Uiso   1.00
C661   C     0.72033   0.44345   0.93084   0.00000  Uiso   1.00
C662   C     0.63902   0.37441   0.92789   0.00000  Uiso   1.00
C663   C     0.60983   0.37421   0.98029   0.00000  Uiso   1.00
C664   C     0.58058   0.37441   0.92810   0.00000  Uiso   1.00
C665   C     0.69110   0.34866   0.92666   0.00000  Uiso   1.00
C666   C     0.70570   0.32682   0.97803   0.00000  Uiso   1.00
C667   C     0.72029   0.30533   0.92480   0.00000  Uiso   1.00
H668   H     0.67369   0.37524   0.70582   0.00000  Uiso   1.00
H669   H     0.70565   0.42264   0.69841   0.00000  Uiso   1.00
H670   H     0.60977   0.37528   0.69653   0.00000  Uiso   1.00
H671   H     0.70563   0.32789   0.69426   0.00000  Uiso   1.00
H672   H     0.74108   0.47504   0.73473   0.00000  Uiso   1.00
H673   H     0.53892   0.37516   0.73076   0.00000  Uiso   1.00
H674   H     0.74104   0.27523   0.72597   0.00000  Uiso   1.00
H675   H     0.67377   0.37394   0.04888   0.00000  Uiso   1.00
H676   H     0.70574   0.42128   0.06030   0.00000  Uiso   1.00
H677   H     0.60986   0.37392   0.05842   0.00000  Uiso   1.00
H678   H     0.70571   0.32653   0.05615   0.00000  Uiso   1.00
H679   H     0.74115   0.47394   0.02845   0.00000  Uiso   1.00
H680   H     0.53899   0.37405   0.02448   0.00000  Uiso   1.00
H681   H     0.74111   0.27412   0.01970   0.00000  Uiso   1.00
O682   O     0.76213   0.50566   0.88291   0.00000  Uiso   1.00
O683   O     0.49690   0.37461   0.87770   0.00000  Uiso   1.00
O684   O     0.76209   0.24350   0.87143   0.00000  Uiso   1.00
N685   N     0.73672   0.46828   0.80229   0.00000  Uiso   1.00
N686   N     0.54771   0.37490   0.79857   0.00000  Uiso   1.00
N687   N     0.73667   0.28147   0.79410   0.00000  Uiso   1.00
N688   N     0.73675   0.46769   0.96034   0.00000  Uiso   1.00
N689   N     0.54774   0.37431   0.95662   0.00000  Uiso   1.00
N690   N     0.73671   0.28088   0.95215   0.00000  Uiso   1.00
C691   C     0.34063   0.37516   0.72011   0.00000  Uiso   1.00
C692   C     0.32326   0.40102   0.67846   0.00000  Uiso   1.00
C693   C     0.30867   0.42252   0.73148   0.00000  Uiso   1.00
C694   C     0.29406   0.44434   0.67991   0.00000  Uiso   1.00
C695   C     0.26712   0.48445   0.63059   0.00000  Uiso   1.00
C696   C     0.37535   0.37527   0.67763   0.00000  Uiso   1.00
C697   C     0.40455   0.37513   0.72996   0.00000  Uiso   1.00
C698   C     0.43379   0.37527   0.67769   0.00000  Uiso   1.00
C699   C     0.48771   0.37539   0.62709   0.00000  Uiso   1.00
C700   C     0.32326   0.34954   0.67687   0.00000  Uiso   1.00
C701   C     0.30867   0.32775   0.72855   0.00000  Uiso   1.00
C702   C     0.29406   0.30622   0.67563   0.00000  Uiso   1.00
C703   C     0.26710   0.26638   0.62384   0.00000  Uiso   1.00
C704   C     0.34061   0.37566   0.53424   0.00000  Uiso   1.00
C705   C     0.32326   0.40129   0.57750   0.00000  Uiso   1.00
C706   C     0.30866   0.42307   0.52583   0.00000  Uiso   1.00
C707   C     0.29405   0.44460   0.57877   0.00000  Uiso   1.00
C708   C     0.37534   0.37554   0.57668   0.00000  Uiso   1.00
C709   C     0.40454   0.37568   0.52432   0.00000  Uiso   1.00
C710   C     0.43378   0.37554   0.57655   0.00000  Uiso   1.00
C711   C     0.32325   0.34981   0.57591   0.00000  Uiso   1.00
C712   C     0.30866   0.32830   0.52290   0.00000  Uiso   1.00
C713   C     0.29405   0.30649   0.57449   0.00000  Uiso   1.00
H714   H     0.34063   0.37495   0.79871   0.00000  Uiso   1.00
H715   H     0.30869   0.42231   0.80961   0.00000  Uiso   1.00
H716   H     0.40455   0.37492   0.80809   0.00000  Uiso   1.00
H717   H     0.30868   0.32755   0.80668   0.00000  Uiso   1.00
H718   H     0.27328   0.47494   0.77717   0.00000  Uiso   1.00
H719   H     0.47541   0.37501   0.77396   0.00000  Uiso   1.00
H720   H     0.27326   0.27511   0.77099   0.00000  Uiso   1.00
H721   H     0.34061   0.37586   0.45564   0.00000  Uiso   1.00
H722   H     0.30866   0.42327   0.44771   0.00000  Uiso   1.00
H723   H     0.40453   0.37588   0.44619   0.00000  Uiso   1.00
H724   H     0.30866   0.32851   0.44478   0.00000  Uiso   1.00
H725   H     0.27326   0.47572   0.48343   0.00000  Uiso   1.00
H726   H     0.47539   0.37578   0.48023   0.00000  Uiso   1.00
H727   H     0.27324   0.27590   0.47725   0.00000  Uiso   1.00
O728   O     0.25226   0.50650   0.63127   0.00000  Uiso   1.00
O729   O     0.51745   0.37539   0.62708   0.00000  Uiso   1.00
O730   O     0.25223   0.24434   0.62317   0.00000  Uiso   1.00
N731   N     0.27765   0.46861   0.70913   0.00000  Uiso   1.00
N732   N     0.46663   0.37519   0.70613   0.00000  Uiso   1.00
N733   N     0.27765   0.28179   0.70335   0.00000  Uiso   1.00
N734   N     0.27764   0.46903   0.55107   0.00000  Uiso   1.00
N735   N     0.46662   0.37561   0.54808   0.00000  Uiso   1.00
N736   N     0.27763   0.28221   0.54529   0.00000  Uiso   1.00
