data_job_00519
_audit_creation_date              2018-12-19
_audit_creation_method            'Materials Studio'
_symmetry_space_group_name_H-M    'P1'
_symmetry_Int_Tables_number       1
_symmetry_cell_setting            triclinic
loop_
_symmetry_equiv_pos_as_xyz
  x,y,z
_cell_length_a                    24.6108
_cell_length_b                    24.6108
_cell_length_c                    16.3272
_cell_angle_alpha                 90.0000
_cell_angle_beta                  90.0000
_cell_angle_gamma                 90.0000
loop_
_atom_site_label
_atom_site_type_symbol
_atom_site_fract_x
_atom_site_fract_y
_atom_site_fract_z
_atom_site_U_iso_or_equiv
_atom_site_adp_type
_atom_site_occupancy
C1     C     0.12519   0.75670   0.99985   0.00000  Uiso   1.00
C2     C     0.10598   0.71141   0.05663   0.00000  Uiso   1.00
C3     C     0.09222   0.71740   0.13856   0.00000  Uiso   1.00
C4     C     0.07561   0.67100   0.17995   0.00000  Uiso   1.00
C5     C     0.04622   0.60835   0.27409   0.00000  Uiso   1.00
C6     C     0.17998   0.73830   0.96618   0.00000  Uiso   1.00
C7     C     0.22842   0.76691   0.97204   0.00000  Uiso   1.00
C8     C     0.27410   0.74315   0.93728   0.00000  Uiso   1.00
C9     C     0.35958   0.72228   0.89094   0.00000  Uiso   1.00
C10    C     0.08618   0.75663   0.92729   0.00000  Uiso   1.00
C11    C     0.05577   0.80065   0.90044   0.00000  Uiso   1.00
C12    C     0.02249   0.79234   0.83293   0.00000  Uiso   1.00
C13    C     0.96235   0.79992   0.72620   0.00000  Uiso   1.00
C14    C     0.12018   0.66366   0.92767   0.00000  Uiso   1.00
C15    C     0.10326   0.66087   0.01742   0.00000  Uiso   1.00
C16    C     0.08667   0.61445   0.05870   0.00000  Uiso   1.00
C17    C     0.07288   0.62037   0.14068   0.00000  Uiso   1.00
C18    C     0.17726   0.68777   0.92697   0.00000  Uiso   1.00
C19    C     0.22288   0.66397   0.89219   0.00000  Uiso   1.00
C20    C     0.27137   0.69252   0.89801   0.00000  Uiso   1.00
C21    C     0.08346   0.70609   0.88808   0.00000  Uiso   1.00
C22    C     0.05023   0.69771   0.82059   0.00000  Uiso   1.00
C23    C     0.01977   0.74171   0.79365   0.00000  Uiso   1.00
H24    H     0.12731   0.79605   0.03037   0.00000  Uiso   1.00
H25    H     0.09433   0.75651   0.16888   0.00000  Uiso   1.00
H26    H     0.23051   0.80602   0.00238   0.00000  Uiso   1.00
H27    H     0.05789   0.83976   0.93080   0.00000  Uiso   1.00
H28    H     0.05658   0.69039   0.30516   0.00000  Uiso   1.00
H29    H     0.34372   0.79478   0.95406   0.00000  Uiso   1.00
H30    H     0.97972   0.86593   0.80311   0.00000  Uiso   1.00
H31    H     0.11806   0.62431   0.89715   0.00000  Uiso   1.00
H32    H     0.08457   0.57535   0.02835   0.00000  Uiso   1.00
H33    H     0.22075   0.62486   0.86185   0.00000  Uiso   1.00
H34    H     0.04813   0.65859   0.79027   0.00000  Uiso   1.00
H35    H     0.04866   0.54335   0.19110   0.00000  Uiso   1.00
H36    H     0.33581   0.64775   0.84000   0.00000  Uiso   1.00
H37    H     0.97180   0.71889   0.68905   0.00000  Uiso   1.00
O38    O     0.03078   0.58776   0.33684   0.00000  Uiso   1.00
O39    O     0.40749   0.72472   0.87621   0.00000  Uiso   1.00
O40    O     0.92992   0.81806   0.67817   0.00000  Uiso   1.00
N41    N     0.05931   0.66251   0.26030   0.00000  Uiso   1.00
N42    N     0.32777   0.76010   0.93207   0.00000  Uiso   1.00
N43    N     0.98746   0.82662   0.79092   0.00000  Uiso   1.00
N44    N     0.05504   0.58339   0.19893   0.00000  Uiso   1.00
N45    N     0.32350   0.68098   0.87069   0.00000  Uiso   1.00
N46    N     0.98320   0.74750   0.72955   0.00000  Uiso   1.00
C47    C     0.62519   0.25670   0.49985   0.00000  Uiso   1.00
C48    C     0.60598   0.21141   0.55663   0.00000  Uiso   1.00
C49    C     0.59222   0.21740   0.63856   0.00000  Uiso   1.00
C50    C     0.57561   0.17100   0.67995   0.00000  Uiso   1.00
C51    C     0.54622   0.10835   0.77409   0.00000  Uiso   1.00
C52    C     0.67998   0.23830   0.46618   0.00000  Uiso   1.00
C53    C     0.72842   0.26691   0.47204   0.00000  Uiso   1.00
C54    C     0.77410   0.24315   0.43728   0.00000  Uiso   1.00
C55    C     0.85958   0.22228   0.39094   0.00000  Uiso   1.00
C56    C     0.58618   0.25663   0.42729   0.00000  Uiso   1.00
C57    C     0.55577   0.30065   0.40044   0.00000  Uiso   1.00
C58    C     0.52249   0.29234   0.33293   0.00000  Uiso   1.00
C59    C     0.46235   0.29992   0.22620   0.00000  Uiso   1.00
C60    C     0.62018   0.16366   0.42767   0.00000  Uiso   1.00
C61    C     0.60326   0.16087   0.51742   0.00000  Uiso   1.00
C62    C     0.58667   0.11445   0.55870   0.00000  Uiso   1.00
C63    C     0.57288   0.12037   0.64068   0.00000  Uiso   1.00
C64    C     0.67726   0.18777   0.42697   0.00000  Uiso   1.00
C65    C     0.72288   0.16397   0.39219   0.00000  Uiso   1.00
C66    C     0.77137   0.19252   0.39801   0.00000  Uiso   1.00
C67    C     0.58346   0.20609   0.38808   0.00000  Uiso   1.00
C68    C     0.55023   0.19771   0.32059   0.00000  Uiso   1.00
C69    C     0.51977   0.24171   0.29365   0.00000  Uiso   1.00
H70    H     0.62731   0.29605   0.53037   0.00000  Uiso   1.00
H71    H     0.59433   0.25651   0.66888   0.00000  Uiso   1.00
H72    H     0.73051   0.30602   0.50238   0.00000  Uiso   1.00
H73    H     0.55789   0.33976   0.43080   0.00000  Uiso   1.00
H74    H     0.55658   0.19039   0.80516   0.00000  Uiso   1.00
H75    H     0.84372   0.29478   0.45406   0.00000  Uiso   1.00
H76    H     0.47972   0.36593   0.30311   0.00000  Uiso   1.00
H77    H     0.61806   0.12431   0.39715   0.00000  Uiso   1.00
H78    H     0.58457   0.07535   0.52835   0.00000  Uiso   1.00
H79    H     0.72075   0.12486   0.36185   0.00000  Uiso   1.00
H80    H     0.54813   0.15859   0.29027   0.00000  Uiso   1.00
H81    H     0.54866   0.04335   0.69110   0.00000  Uiso   1.00
H82    H     0.83581   0.14775   0.34000   0.00000  Uiso   1.00
H83    H     0.47180   0.21889   0.18905   0.00000  Uiso   1.00
O84    O     0.53078   0.08776   0.83684   0.00000  Uiso   1.00
O85    O     0.90749   0.22472   0.37621   0.00000  Uiso   1.00
O86    O     0.42992   0.31806   0.17817   0.00000  Uiso   1.00
N87    N     0.55931   0.16251   0.76030   0.00000  Uiso   1.00
N88    N     0.82777   0.26010   0.43207   0.00000  Uiso   1.00
N89    N     0.48746   0.32662   0.29092   0.00000  Uiso   1.00
N90    N     0.55504   0.08339   0.69893   0.00000  Uiso   1.00
N91    N     0.82350   0.18098   0.37069   0.00000  Uiso   1.00
N92    N     0.48320   0.24750   0.22955   0.00000  Uiso   1.00
C93    C     0.37481   0.74330   0.49985   0.00000  Uiso   1.00
C94    C     0.39402   0.78859   0.55663   0.00000  Uiso   1.00
C95    C     0.40778   0.78260   0.63856   0.00000  Uiso   1.00
C96    C     0.42439   0.82900   0.67995   0.00000  Uiso   1.00
C97    C     0.45378   0.89165   0.77409   0.00000  Uiso   1.00
C98    C     0.32002   0.76170   0.46618   0.00000  Uiso   1.00
C99    C     0.27158   0.73309   0.47204   0.00000  Uiso   1.00
C100   C     0.22590   0.75685   0.43728   0.00000  Uiso   1.00
C101   C     0.14042   0.77772   0.39094   0.00000  Uiso   1.00
C102   C     0.41382   0.74337   0.42729   0.00000  Uiso   1.00
C103   C     0.44423   0.69935   0.40044   0.00000  Uiso   1.00
C104   C     0.47751   0.70766   0.33293   0.00000  Uiso   1.00
C105   C     0.53765   0.70008   0.22620   0.00000  Uiso   1.00
C106   C     0.37982   0.83634   0.42767   0.00000  Uiso   1.00
C107   C     0.39674   0.83913   0.51742   0.00000  Uiso   1.00
C108   C     0.41333   0.88555   0.55870   0.00000  Uiso   1.00
C109   C     0.42712   0.87963   0.64068   0.00000  Uiso   1.00
C110   C     0.32274   0.81223   0.42697   0.00000  Uiso   1.00
C111   C     0.27712   0.83603   0.39219   0.00000  Uiso   1.00
C112   C     0.22863   0.80748   0.39801   0.00000  Uiso   1.00
C113   C     0.41654   0.79391   0.38808   0.00000  Uiso   1.00
C114   C     0.44977   0.80229   0.32059   0.00000  Uiso   1.00
C115   C     0.48023   0.75829   0.29365   0.00000  Uiso   1.00
H116   H     0.37269   0.70395   0.53037   0.00000  Uiso   1.00
H117   H     0.40567   0.74349   0.66888   0.00000  Uiso   1.00
H118   H     0.26949   0.69398   0.50238   0.00000  Uiso   1.00
H119   H     0.44211   0.66024   0.43080   0.00000  Uiso   1.00
H120   H     0.44342   0.80961   0.80516   0.00000  Uiso   1.00
H121   H     0.15628   0.70522   0.45406   0.00000  Uiso   1.00
H122   H     0.52028   0.63407   0.30311   0.00000  Uiso   1.00
H123   H     0.38194   0.87569   0.39715   0.00000  Uiso   1.00
H124   H     0.41543   0.92465   0.52835   0.00000  Uiso   1.00
H125   H     0.27925   0.87514   0.36185   0.00000  Uiso   1.00
H126   H     0.45187   0.84141   0.29027   0.00000  Uiso   1.00
H127   H     0.45134   0.95665   0.69110   0.00000  Uiso   1.00
H128   H     0.16419   0.85225   0.34000   0.00000  Uiso   1.00
H129   H     0.52820   0.78111   0.18905   0.00000  Uiso   1.00
O130   O     0.46922   0.91224   0.83684   0.00000  Uiso   1.00
O131   O     0.09251   0.77528   0.37621   0.00000  Uiso   1.00
O132   O     0.57008   0.68194   0.17817   0.00000  Uiso   1.00
N133   N     0.44069   0.83749   0.76030   0.00000  Uiso   1.00
N134   N     0.17223   0.73990   0.43207   0.00000  Uiso   1.00
N135   N     0.51254   0.67338   0.29092   0.00000  Uiso   1.00
N136   N     0.44496   0.91661   0.69893   0.00000  Uiso   1.00
N137   N     0.17650   0.81902   0.37069   0.00000  Uiso   1.00
N138   N     0.51680   0.75250   0.22955   0.00000  Uiso   1.00
C139   C     0.87481   0.24330   0.99985   0.00000  Uiso   1.00
C140   C     0.89402   0.28859   0.05663   0.00000  Uiso   1.00
C141   C     0.90778   0.28260   0.13856   0.00000  Uiso   1.00
C142   C     0.92439   0.32900   0.17995   0.00000  Uiso   1.00
C143   C     0.95378   0.39165   0.27409   0.00000  Uiso   1.00
C144   C     0.82002   0.26170   0.96618   0.00000  Uiso   1.00
C145   C     0.77158   0.23309   0.97204   0.00000  Uiso   1.00
C146   C     0.72590   0.25685   0.93728   0.00000  Uiso   1.00
C147   C     0.64042   0.27772   0.89094   0.00000  Uiso   1.00
C148   C     0.91382   0.24337   0.92729   0.00000  Uiso   1.00
C149   C     0.94423   0.19935   0.90044   0.00000  Uiso   1.00
C150   C     0.97751   0.20766   0.83293   0.00000  Uiso   1.00
C151   C     0.03765   0.20008   0.72620   0.00000  Uiso   1.00
C152   C     0.87982   0.33634   0.92767   0.00000  Uiso   1.00
C153   C     0.89674   0.33913   0.01742   0.00000  Uiso   1.00
C154   C     0.91333   0.38555   0.05870   0.00000  Uiso   1.00
C155   C     0.92712   0.37963   0.14068   0.00000  Uiso   1.00
C156   C     0.82274   0.31223   0.92697   0.00000  Uiso   1.00
C157   C     0.77712   0.33603   0.89219   0.00000  Uiso   1.00
C158   C     0.72863   0.30748   0.89801   0.00000  Uiso   1.00
C159   C     0.91654   0.29391   0.88808   0.00000  Uiso   1.00
C160   C     0.94977   0.30229   0.82059   0.00000  Uiso   1.00
C161   C     0.98023   0.25829   0.79365   0.00000  Uiso   1.00
H162   H     0.87269   0.20395   0.03037   0.00000  Uiso   1.00
H163   H     0.90567   0.24349   0.16888   0.00000  Uiso   1.00
H164   H     0.76949   0.19398   0.00238   0.00000  Uiso   1.00
H165   H     0.94211   0.16024   0.93080   0.00000  Uiso   1.00
H166   H     0.94342   0.30961   0.30516   0.00000  Uiso   1.00
H167   H     0.65628   0.20522   0.95406   0.00000  Uiso   1.00
H168   H     0.02028   0.13407   0.80311   0.00000  Uiso   1.00
H169   H     0.88194   0.37569   0.89715   0.00000  Uiso   1.00
H170   H     0.91543   0.42465   0.02835   0.00000  Uiso   1.00
H171   H     0.77925   0.37514   0.86185   0.00000  Uiso   1.00
H172   H     0.95187   0.34141   0.79027   0.00000  Uiso   1.00
H173   H     0.95134   0.45665   0.19110   0.00000  Uiso   1.00
H174   H     0.66419   0.35225   0.84000   0.00000  Uiso   1.00
H175   H     0.02820   0.28111   0.68905   0.00000  Uiso   1.00
O176   O     0.96922   0.41224   0.33684   0.00000  Uiso   1.00
O177   O     0.59251   0.27528   0.87621   0.00000  Uiso   1.00
O178   O     0.07008   0.18194   0.67817   0.00000  Uiso   1.00
N179   N     0.94069   0.33749   0.26030   0.00000  Uiso   1.00
N180   N     0.67223   0.23990   0.93207   0.00000  Uiso   1.00
N181   N     0.01254   0.17338   0.79092   0.00000  Uiso   1.00
N182   N     0.94496   0.41661   0.19893   0.00000  Uiso   1.00
N183   N     0.67650   0.31902   0.87069   0.00000  Uiso   1.00
N184   N     0.01680   0.25250   0.72955   0.00000  Uiso   1.00
C185   C     0.24330   0.62519   0.24985   0.00000  Uiso   1.00
C186   C     0.28859   0.60598   0.30663   0.00000  Uiso   1.00
C187   C     0.28260   0.59222   0.38856   0.00000  Uiso   1.00
C188   C     0.32900   0.57561   0.42995   0.00000  Uiso   1.00
C189   C     0.39165   0.54622   0.52409   0.00000  Uiso   1.00
C190   C     0.26170   0.67998   0.21618   0.00000  Uiso   1.00
C191   C     0.23309   0.72842   0.22204   0.00000  Uiso   1.00
C192   C     0.25685   0.77410   0.18728   0.00000  Uiso   1.00
C193   C     0.27772   0.85958   0.14094   0.00000  Uiso   1.00
C194   C     0.24337   0.58618   0.17729   0.00000  Uiso   1.00
C195   C     0.19935   0.55577   0.15044   0.00000  Uiso   1.00
C196   C     0.20766   0.52249   0.08293   0.00000  Uiso   1.00
C197   C     0.20008   0.46235   0.97620   0.00000  Uiso   1.00
C198   C     0.33634   0.62018   0.17767   0.00000  Uiso   1.00
C199   C     0.33913   0.60326   0.26742   0.00000  Uiso   1.00
C200   C     0.38555   0.58667   0.30870   0.00000  Uiso   1.00
C201   C     0.37963   0.57288   0.39068   0.00000  Uiso   1.00
C202   C     0.31223   0.67726   0.17697   0.00000  Uiso   1.00
C203   C     0.33603   0.72288   0.14219   0.00000  Uiso   1.00
C204   C     0.30748   0.77137   0.14801   0.00000  Uiso   1.00
C205   C     0.29391   0.58346   0.13808   0.00000  Uiso   1.00
C206   C     0.30229   0.55023   0.07059   0.00000  Uiso   1.00
C207   C     0.25829   0.51977   0.04365   0.00000  Uiso   1.00
H208   H     0.20395   0.62731   0.28037   0.00000  Uiso   1.00
H209   H     0.24349   0.59433   0.41888   0.00000  Uiso   1.00
H210   H     0.19398   0.73051   0.25238   0.00000  Uiso   1.00
H211   H     0.16024   0.55789   0.18080   0.00000  Uiso   1.00
H212   H     0.30961   0.55658   0.55516   0.00000  Uiso   1.00
H213   H     0.20522   0.84372   0.20406   0.00000  Uiso   1.00
H214   H     0.13407   0.47972   0.05311   0.00000  Uiso   1.00
H215   H     0.37569   0.61806   0.14715   0.00000  Uiso   1.00
H216   H     0.42465   0.58457   0.27835   0.00000  Uiso   1.00
H217   H     0.37514   0.72075   0.11185   0.00000  Uiso   1.00
H218   H     0.34141   0.54813   0.04027   0.00000  Uiso   1.00
H219   H     0.45665   0.54866   0.44110   0.00000  Uiso   1.00
H220   H     0.35225   0.83581   0.09000   0.00000  Uiso   1.00
H221   H     0.28111   0.47180   0.93905   0.00000  Uiso   1.00
O222   O     0.41224   0.53078   0.58684   0.00000  Uiso   1.00
O223   O     0.27528   0.90749   0.12621   0.00000  Uiso   1.00
O224   O     0.18194   0.42992   0.92817   0.00000  Uiso   1.00
N225   N     0.33749   0.55931   0.51030   0.00000  Uiso   1.00
N226   N     0.23990   0.82777   0.18207   0.00000  Uiso   1.00
N227   N     0.17338   0.48746   0.04092   0.00000  Uiso   1.00
N228   N     0.41661   0.55504   0.44893   0.00000  Uiso   1.00
N229   N     0.31902   0.82350   0.12069   0.00000  Uiso   1.00
N230   N     0.25250   0.48320   0.97955   0.00000  Uiso   1.00
C231   C     0.74330   0.12519   0.74985   0.00000  Uiso   1.00
C232   C     0.78859   0.10598   0.80663   0.00000  Uiso   1.00
C233   C     0.78260   0.09222   0.88856   0.00000  Uiso   1.00
C234   C     0.82900   0.07561   0.92995   0.00000  Uiso   1.00
C235   C     0.89165   0.04622   0.02409   0.00000  Uiso   1.00
C236   C     0.76170   0.17998   0.71618   0.00000  Uiso   1.00
C237   C     0.73309   0.22842   0.72204   0.00000  Uiso   1.00
C238   C     0.75685   0.27410   0.68728   0.00000  Uiso   1.00
C239   C     0.77772   0.35958   0.64094   0.00000  Uiso   1.00
C240   C     0.74337   0.08618   0.67729   0.00000  Uiso   1.00
C241   C     0.69935   0.05577   0.65044   0.00000  Uiso   1.00
C242   C     0.70766   0.02249   0.58293   0.00000  Uiso   1.00
C243   C     0.70008   0.96235   0.47620   0.00000  Uiso   1.00
C244   C     0.83634   0.12018   0.67767   0.00000  Uiso   1.00
C245   C     0.83913   0.10326   0.76742   0.00000  Uiso   1.00
C246   C     0.88555   0.08667   0.80870   0.00000  Uiso   1.00
C247   C     0.87963   0.07288   0.89068   0.00000  Uiso   1.00
C248   C     0.81223   0.17726   0.67697   0.00000  Uiso   1.00
C249   C     0.83603   0.22288   0.64219   0.00000  Uiso   1.00
C250   C     0.80748   0.27137   0.64801   0.00000  Uiso   1.00
C251   C     0.79391   0.08346   0.63808   0.00000  Uiso   1.00
C252   C     0.80229   0.05023   0.57059   0.00000  Uiso   1.00
C253   C     0.75829   0.01977   0.54365   0.00000  Uiso   1.00
H254   H     0.70395   0.12731   0.78037   0.00000  Uiso   1.00
H255   H     0.74349   0.09433   0.91888   0.00000  Uiso   1.00
H256   H     0.69398   0.23051   0.75238   0.00000  Uiso   1.00
H257   H     0.66024   0.05789   0.68080   0.00000  Uiso   1.00
H258   H     0.80961   0.05658   0.05516   0.00000  Uiso   1.00
H259   H     0.70522   0.34372   0.70406   0.00000  Uiso   1.00
H260   H     0.63407   0.97972   0.55311   0.00000  Uiso   1.00
H261   H     0.87569   0.11806   0.64715   0.00000  Uiso   1.00
H262   H     0.92465   0.08457   0.77835   0.00000  Uiso   1.00
H263   H     0.87514   0.22075   0.61185   0.00000  Uiso   1.00
H264   H     0.84141   0.04813   0.54027   0.00000  Uiso   1.00
H265   H     0.95665   0.04866   0.94110   0.00000  Uiso   1.00
H266   H     0.85225   0.33581   0.59000   0.00000  Uiso   1.00
H267   H     0.78111   0.97180   0.43905   0.00000  Uiso   1.00
O268   O     0.91224   0.03078   0.08684   0.00000  Uiso   1.00
O269   O     0.77528   0.40749   0.62621   0.00000  Uiso   1.00
O270   O     0.68194   0.92992   0.42817   0.00000  Uiso   1.00
N271   N     0.83749   0.05931   0.01030   0.00000  Uiso   1.00
N272   N     0.73990   0.32777   0.68207   0.00000  Uiso   1.00
N273   N     0.67338   0.98746   0.54092   0.00000  Uiso   1.00
N274   N     0.91661   0.05504   0.94893   0.00000  Uiso   1.00
N275   N     0.81902   0.32350   0.62069   0.00000  Uiso   1.00
N276   N     0.75250   0.98320   0.47955   0.00000  Uiso   1.00
C277   C     0.25670   0.87481   0.74985   0.00000  Uiso   1.00
C278   C     0.21141   0.89402   0.80663   0.00000  Uiso   1.00
C279   C     0.21740   0.90778   0.88856   0.00000  Uiso   1.00
C280   C     0.17100   0.92439   0.92995   0.00000  Uiso   1.00
C281   C     0.10835   0.95378   0.02409   0.00000  Uiso   1.00
C282   C     0.23830   0.82002   0.71618   0.00000  Uiso   1.00
C283   C     0.26691   0.77158   0.72204   0.00000  Uiso   1.00
C284   C     0.24315   0.72590   0.68728   0.00000  Uiso   1.00
C285   C     0.22228   0.64042   0.64094   0.00000  Uiso   1.00
C286   C     0.25663   0.91382   0.67729   0.00000  Uiso   1.00
C287   C     0.30065   0.94423   0.65044   0.00000  Uiso   1.00
C288   C     0.29234   0.97751   0.58293   0.00000  Uiso   1.00
C289   C     0.29992   0.03765   0.47620   0.00000  Uiso   1.00
C290   C     0.16366   0.87982   0.67767   0.00000  Uiso   1.00
C291   C     0.16087   0.89674   0.76742   0.00000  Uiso   1.00
C292   C     0.11445   0.91333   0.80870   0.00000  Uiso   1.00
C293   C     0.12037   0.92712   0.89068   0.00000  Uiso   1.00
C294   C     0.18777   0.82274   0.67697   0.00000  Uiso   1.00
C295   C     0.16397   0.77712   0.64219   0.00000  Uiso   1.00
C296   C     0.19252   0.72863   0.64801   0.00000  Uiso   1.00
C297   C     0.20609   0.91654   0.63808   0.00000  Uiso   1.00
C298   C     0.19771   0.94977   0.57059   0.00000  Uiso   1.00
C299   C     0.24171   0.98023   0.54365   0.00000  Uiso   1.00
H300   H     0.29605   0.87269   0.78037   0.00000  Uiso   1.00
H301   H     0.25651   0.90567   0.91888   0.00000  Uiso   1.00
H302   H     0.30602   0.76949   0.75238   0.00000  Uiso   1.00
H303   H     0.33976   0.94211   0.68080   0.00000  Uiso   1.00
H304   H     0.19039   0.94342   0.05516   0.00000  Uiso   1.00
H305   H     0.29478   0.65628   0.70406   0.00000  Uiso   1.00
H306   H     0.36593   0.02028   0.55311   0.00000  Uiso   1.00
H307   H     0.12431   0.88194   0.64715   0.00000  Uiso   1.00
H308   H     0.07535   0.91543   0.77835   0.00000  Uiso   1.00
H309   H     0.12486   0.77925   0.61185   0.00000  Uiso   1.00
H310   H     0.15859   0.95187   0.54027   0.00000  Uiso   1.00
H311   H     0.04335   0.95134   0.94110   0.00000  Uiso   1.00
H312   H     0.14775   0.66419   0.59000   0.00000  Uiso   1.00
H313   H     0.21889   0.02820   0.43905   0.00000  Uiso   1.00
O314   O     0.08776   0.96922   0.08684   0.00000  Uiso   1.00
O315   O     0.22472   0.59251   0.62621   0.00000  Uiso   1.00
O316   O     0.31806   0.07008   0.42817   0.00000  Uiso   1.00
N317   N     0.16251   0.94069   0.01030   0.00000  Uiso   1.00
N318   N     0.26010   0.67223   0.68207   0.00000  Uiso   1.00
N319   N     0.32662   0.01254   0.54092   0.00000  Uiso   1.00
N320   N     0.08339   0.94496   0.94893   0.00000  Uiso   1.00
N321   N     0.18098   0.67650   0.62069   0.00000  Uiso   1.00
N322   N     0.24750   0.01680   0.47955   0.00000  Uiso   1.00
C323   C     0.75670   0.37481   0.24985   0.00000  Uiso   1.00
C324   C     0.71141   0.39402   0.30663   0.00000  Uiso   1.00
C325   C     0.71740   0.40778   0.38856   0.00000  Uiso   1.00
C326   C     0.67100   0.42439   0.42995   0.00000  Uiso   1.00
C327   C     0.60835   0.45378   0.52409   0.00000  Uiso   1.00
C328   C     0.73830   0.32002   0.21618   0.00000  Uiso   1.00
C329   C     0.76691   0.27158   0.22204   0.00000  Uiso   1.00
C330   C     0.74315   0.22590   0.18728   0.00000  Uiso   1.00
C331   C     0.72228   0.14042   0.14094   0.00000  Uiso   1.00
C332   C     0.75663   0.41382   0.17729   0.00000  Uiso   1.00
C333   C     0.80065   0.44423   0.15044   0.00000  Uiso   1.00
C334   C     0.79234   0.47751   0.08293   0.00000  Uiso   1.00
C335   C     0.79992   0.53765   0.97620   0.00000  Uiso   1.00
C336   C     0.66366   0.37982   0.17767   0.00000  Uiso   1.00
C337   C     0.66087   0.39674   0.26742   0.00000  Uiso   1.00
C338   C     0.61445   0.41333   0.30870   0.00000  Uiso   1.00
C339   C     0.62037   0.42712   0.39068   0.00000  Uiso   1.00
C340   C     0.68777   0.32274   0.17697   0.00000  Uiso   1.00
C341   C     0.66397   0.27712   0.14219   0.00000  Uiso   1.00
C342   C     0.69252   0.22863   0.14801   0.00000  Uiso   1.00
C343   C     0.70609   0.41654   0.13808   0.00000  Uiso   1.00
C344   C     0.69771   0.44977   0.07059   0.00000  Uiso   1.00
C345   C     0.74171   0.48023   0.04365   0.00000  Uiso   1.00
H346   H     0.79605   0.37269   0.28037   0.00000  Uiso   1.00
H347   H     0.75651   0.40567   0.41888   0.00000  Uiso   1.00
H348   H     0.80602   0.26949   0.25238   0.00000  Uiso   1.00
H349   H     0.83976   0.44211   0.18080   0.00000  Uiso   1.00
H350   H     0.69039   0.44342   0.55516   0.00000  Uiso   1.00
H351   H     0.79478   0.15628   0.20406   0.00000  Uiso   1.00
H352   H     0.86593   0.52028   0.05311   0.00000  Uiso   1.00
H353   H     0.62431   0.38194   0.14715   0.00000  Uiso   1.00
H354   H     0.57535   0.41543   0.27835   0.00000  Uiso   1.00
H355   H     0.62486   0.27925   0.11185   0.00000  Uiso   1.00
H356   H     0.65859   0.45187   0.04027   0.00000  Uiso   1.00
H357   H     0.54335   0.45134   0.44110   0.00000  Uiso   1.00
H358   H     0.64775   0.16419   0.09000   0.00000  Uiso   1.00
H359   H     0.71889   0.52820   0.93905   0.00000  Uiso   1.00
O360   O     0.58776   0.46922   0.58684   0.00000  Uiso   1.00
O361   O     0.72472   0.09251   0.12621   0.00000  Uiso   1.00
O362   O     0.81806   0.57008   0.92817   0.00000  Uiso   1.00
N363   N     0.66251   0.44069   0.51030   0.00000  Uiso   1.00
N364   N     0.76010   0.17223   0.18207   0.00000  Uiso   1.00
N365   N     0.82662   0.51254   0.04092   0.00000  Uiso   1.00
N366   N     0.58339   0.44496   0.44893   0.00000  Uiso   1.00
N367   N     0.68098   0.17650   0.12069   0.00000  Uiso   1.00
N368   N     0.74750   0.51680   0.97955   0.00000  Uiso   1.00
C369   C     0.87481   0.74330   0.25015   0.00000  Uiso   1.00
C370   C     0.89402   0.78859   0.19337   0.00000  Uiso   1.00
C371   C     0.90778   0.78260   0.11144   0.00000  Uiso   1.00
C372   C     0.92439   0.82900   0.07005   0.00000  Uiso   1.00
C373   C     0.95378   0.89165   0.97591   0.00000  Uiso   1.00
C374   C     0.82002   0.76170   0.28382   0.00000  Uiso   1.00
C375   C     0.77158   0.73309   0.27796   0.00000  Uiso   1.00
C376   C     0.72590   0.75685   0.31272   0.00000  Uiso   1.00
C377   C     0.64042   0.77772   0.35906   0.00000  Uiso   1.00
C378   C     0.91382   0.74337   0.32271   0.00000  Uiso   1.00
C379   C     0.94423   0.69935   0.34956   0.00000  Uiso   1.00
C380   C     0.97751   0.70766   0.41707   0.00000  Uiso   1.00
C381   C     0.03765   0.70008   0.52380   0.00000  Uiso   1.00
C382   C     0.87982   0.83634   0.32233   0.00000  Uiso   1.00
C383   C     0.89674   0.83913   0.23258   0.00000  Uiso   1.00
C384   C     0.91333   0.88555   0.19130   0.00000  Uiso   1.00
C385   C     0.92712   0.87963   0.10932   0.00000  Uiso   1.00
C386   C     0.82274   0.81223   0.32303   0.00000  Uiso   1.00
C387   C     0.77712   0.83603   0.35781   0.00000  Uiso   1.00
C388   C     0.72863   0.80748   0.35199   0.00000  Uiso   1.00
C389   C     0.91654   0.79391   0.36192   0.00000  Uiso   1.00
C390   C     0.94977   0.80229   0.42941   0.00000  Uiso   1.00
C391   C     0.98023   0.75829   0.45635   0.00000  Uiso   1.00
H392   H     0.87269   0.70395   0.21963   0.00000  Uiso   1.00
H393   H     0.90567   0.74349   0.08112   0.00000  Uiso   1.00
H394   H     0.76949   0.69398   0.24762   0.00000  Uiso   1.00
H395   H     0.94211   0.66024   0.31920   0.00000  Uiso   1.00
H396   H     0.94342   0.80961   0.94484   0.00000  Uiso   1.00
H397   H     0.65628   0.70522   0.29594   0.00000  Uiso   1.00
H398   H     0.02028   0.63407   0.44689   0.00000  Uiso   1.00
H399   H     0.88194   0.87569   0.35285   0.00000  Uiso   1.00
H400   H     0.91543   0.92465   0.22165   0.00000  Uiso   1.00
H401   H     0.77925   0.87514   0.38815   0.00000  Uiso   1.00
H402   H     0.95187   0.84141   0.45973   0.00000  Uiso   1.00
H403   H     0.95134   0.95665   0.05890   0.00000  Uiso   1.00
H404   H     0.66419   0.85225   0.41000   0.00000  Uiso   1.00
H405   H     0.02820   0.78111   0.56095   0.00000  Uiso   1.00
O406   O     0.96922   0.91224   0.91316   0.00000  Uiso   1.00
O407   O     0.59251   0.77528   0.37379   0.00000  Uiso   1.00
O408   O     0.07008   0.68194   0.57183   0.00000  Uiso   1.00
N409   N     0.94069   0.83749   0.98970   0.00000  Uiso   1.00
N410   N     0.67223   0.73990   0.31793   0.00000  Uiso   1.00
N411   N     0.01254   0.67338   0.45908   0.00000  Uiso   1.00
N412   N     0.94496   0.91661   0.05107   0.00000  Uiso   1.00
N413   N     0.67650   0.81902   0.37931   0.00000  Uiso   1.00
N414   N     0.01680   0.75250   0.52045   0.00000  Uiso   1.00
C415   C     0.37481   0.24330   0.75015   0.00000  Uiso   1.00
C416   C     0.39402   0.28859   0.69337   0.00000  Uiso   1.00
C417   C     0.40778   0.28260   0.61144   0.00000  Uiso   1.00
C418   C     0.42439   0.32900   0.57005   0.00000  Uiso   1.00
C419   C     0.45378   0.39165   0.47591   0.00000  Uiso   1.00
C420   C     0.32002   0.26170   0.78382   0.00000  Uiso   1.00
C421   C     0.27158   0.23309   0.77796   0.00000  Uiso   1.00
C422   C     0.22590   0.25685   0.81272   0.00000  Uiso   1.00
C423   C     0.14042   0.27772   0.85906   0.00000  Uiso   1.00
C424   C     0.41382   0.24337   0.82271   0.00000  Uiso   1.00
C425   C     0.44423   0.19935   0.84956   0.00000  Uiso   1.00
C426   C     0.47751   0.20766   0.91707   0.00000  Uiso   1.00
C427   C     0.53765   0.20008   0.02380   0.00000  Uiso   1.00
C428   C     0.37982   0.33634   0.82233   0.00000  Uiso   1.00
C429   C     0.39674   0.33913   0.73258   0.00000  Uiso   1.00
C430   C     0.41333   0.38555   0.69130   0.00000  Uiso   1.00
C431   C     0.42712   0.37963   0.60932   0.00000  Uiso   1.00
C432   C     0.32274   0.31223   0.82303   0.00000  Uiso   1.00
C433   C     0.27712   0.33603   0.85781   0.00000  Uiso   1.00
C434   C     0.22863   0.30748   0.85199   0.00000  Uiso   1.00
C435   C     0.41654   0.29391   0.86192   0.00000  Uiso   1.00
C436   C     0.44977   0.30229   0.92941   0.00000  Uiso   1.00
C437   C     0.48023   0.25829   0.95635   0.00000  Uiso   1.00
H438   H     0.37269   0.20395   0.71963   0.00000  Uiso   1.00
H439   H     0.40567   0.24349   0.58112   0.00000  Uiso   1.00
H440   H     0.26949   0.19398   0.74762   0.00000  Uiso   1.00
H441   H     0.44211   0.16024   0.81920   0.00000  Uiso   1.00
H442   H     0.44342   0.30961   0.44484   0.00000  Uiso   1.00
H443   H     0.15628   0.20522   0.79594   0.00000  Uiso   1.00
H444   H     0.52028   0.13407   0.94689   0.00000  Uiso   1.00
H445   H     0.38194   0.37569   0.85285   0.00000  Uiso   1.00
H446   H     0.41543   0.42465   0.72165   0.00000  Uiso   1.00
H447   H     0.27925   0.37514   0.88815   0.00000  Uiso   1.00
H448   H     0.45187   0.34141   0.95973   0.00000  Uiso   1.00
H449   H     0.45134   0.45665   0.55890   0.00000  Uiso   1.00
H450   H     0.16419   0.35225   0.91000   0.00000  Uiso   1.00
H451   H     0.52820   0.28111   0.06095   0.00000  Uiso   1.00
O452   O     0.46922   0.41224   0.41316   0.00000  Uiso   1.00
O453   O     0.09251   0.27528   0.87379   0.00000  Uiso   1.00
O454   O     0.57008   0.18194   0.07183   0.00000  Uiso   1.00
N455   N     0.44069   0.33749   0.48970   0.00000  Uiso   1.00
N456   N     0.17223   0.23990   0.81793   0.00000  Uiso   1.00
N457   N     0.51254   0.17338   0.95908   0.00000  Uiso   1.00
N458   N     0.44496   0.41661   0.55107   0.00000  Uiso   1.00
N459   N     0.17650   0.31902   0.87931   0.00000  Uiso   1.00
N460   N     0.51680   0.25250   0.02045   0.00000  Uiso   1.00
C461   C     0.62519   0.75670   0.75015   0.00000  Uiso   1.00
C462   C     0.60598   0.71141   0.69337   0.00000  Uiso   1.00
C463   C     0.59222   0.71740   0.61144   0.00000  Uiso   1.00
C464   C     0.57561   0.67100   0.57005   0.00000  Uiso   1.00
C465   C     0.54622   0.60835   0.47591   0.00000  Uiso   1.00
C466   C     0.67998   0.73830   0.78382   0.00000  Uiso   1.00
C467   C     0.72842   0.76691   0.77796   0.00000  Uiso   1.00
C468   C     0.77410   0.74315   0.81272   0.00000  Uiso   1.00
C469   C     0.85958   0.72228   0.85906   0.00000  Uiso   1.00
C470   C     0.58618   0.75663   0.82271   0.00000  Uiso   1.00
C471   C     0.55577   0.80065   0.84956   0.00000  Uiso   1.00
C472   C     0.52249   0.79234   0.91707   0.00000  Uiso   1.00
C473   C     0.46235   0.79992   0.02380   0.00000  Uiso   1.00
C474   C     0.62018   0.66366   0.82233   0.00000  Uiso   1.00
C475   C     0.60326   0.66087   0.73258   0.00000  Uiso   1.00
C476   C     0.58667   0.61445   0.69130   0.00000  Uiso   1.00
C477   C     0.57288   0.62037   0.60932   0.00000  Uiso   1.00
C478   C     0.67726   0.68777   0.82303   0.00000  Uiso   1.00
C479   C     0.72288   0.66397   0.85781   0.00000  Uiso   1.00
C480   C     0.77137   0.69252   0.85199   0.00000  Uiso   1.00
C481   C     0.58346   0.70609   0.86192   0.00000  Uiso   1.00
C482   C     0.55023   0.69771   0.92941   0.00000  Uiso   1.00
C483   C     0.51977   0.74171   0.95635   0.00000  Uiso   1.00
H484   H     0.62731   0.79605   0.71963   0.00000  Uiso   1.00
H485   H     0.59433   0.75651   0.58112   0.00000  Uiso   1.00
H486   H     0.73051   0.80602   0.74762   0.00000  Uiso   1.00
H487   H     0.55789   0.83976   0.81920   0.00000  Uiso   1.00
H488   H     0.55658   0.69039   0.44484   0.00000  Uiso   1.00
H489   H     0.84372   0.79478   0.79594   0.00000  Uiso   1.00
H490   H     0.47972   0.86593   0.94689   0.00000  Uiso   1.00
H491   H     0.61806   0.62431   0.85285   0.00000  Uiso   1.00
H492   H     0.58457   0.57535   0.72165   0.00000  Uiso   1.00
H493   H     0.72075   0.62486   0.88815   0.00000  Uiso   1.00
H494   H     0.54813   0.65859   0.95973   0.00000  Uiso   1.00
H495   H     0.54866   0.54335   0.55890   0.00000  Uiso   1.00
H496   H     0.83581   0.64775   0.91000   0.00000  Uiso   1.00
H497   H     0.47180   0.71889   0.06095   0.00000  Uiso   1.00
O498   O     0.53078   0.58776   0.41316   0.00000  Uiso   1.00
O499   O     0.90749   0.72472   0.87379   0.00000  Uiso   1.00
O500   O     0.42992   0.81806   0.07183   0.00000  Uiso   1.00
N501   N     0.55931   0.66251   0.48970   0.00000  Uiso   1.00
N502   N     0.82777   0.76010   0.81793   0.00000  Uiso   1.00
N503   N     0.48746   0.82662   0.95908   0.00000  Uiso   1.00
N504   N     0.55504   0.58339   0.55107   0.00000  Uiso   1.00
N505   N     0.82350   0.68098   0.87931   0.00000  Uiso   1.00
N506   N     0.48320   0.74750   0.02045   0.00000  Uiso   1.00
C507   C     0.12519   0.25670   0.25015   0.00000  Uiso   1.00
C508   C     0.10598   0.21141   0.19337   0.00000  Uiso   1.00
C509   C     0.09222   0.21740   0.11144   0.00000  Uiso   1.00
C510   C     0.07561   0.17100   0.07005   0.00000  Uiso   1.00
C511   C     0.04622   0.10835   0.97591   0.00000  Uiso   1.00
C512   C     0.17998   0.23830   0.28382   0.00000  Uiso   1.00
C513   C     0.22842   0.26691   0.27796   0.00000  Uiso   1.00
C514   C     0.27410   0.24315   0.31272   0.00000  Uiso   1.00
C515   C     0.35958   0.22228   0.35906   0.00000  Uiso   1.00
C516   C     0.08618   0.25663   0.32271   0.00000  Uiso   1.00
C517   C     0.05577   0.30065   0.34956   0.00000  Uiso   1.00
C518   C     0.02249   0.29234   0.41707   0.00000  Uiso   1.00
C519   C     0.96235   0.29992   0.52380   0.00000  Uiso   1.00
C520   C     0.12018   0.16366   0.32233   0.00000  Uiso   1.00
C521   C     0.10326   0.16087   0.23258   0.00000  Uiso   1.00
C522   C     0.08667   0.11445   0.19130   0.00000  Uiso   1.00
C523   C     0.07288   0.12037   0.10932   0.00000  Uiso   1.00
C524   C     0.17726   0.18777   0.32303   0.00000  Uiso   1.00
C525   C     0.22288   0.16397   0.35781   0.00000  Uiso   1.00
C526   C     0.27137   0.19252   0.35199   0.00000  Uiso   1.00
C527   C     0.08346   0.20609   0.36192   0.00000  Uiso   1.00
C528   C     0.05023   0.19771   0.42941   0.00000  Uiso   1.00
C529   C     0.01977   0.24171   0.45635   0.00000  Uiso   1.00
H530   H     0.12731   0.29605   0.21963   0.00000  Uiso   1.00
H531   H     0.09433   0.25651   0.08112   0.00000  Uiso   1.00
H532   H     0.23051   0.30602   0.24762   0.00000  Uiso   1.00
H533   H     0.05789   0.33976   0.31920   0.00000  Uiso   1.00
H534   H     0.05658   0.19039   0.94484   0.00000  Uiso   1.00
H535   H     0.34372   0.29478   0.29594   0.00000  Uiso   1.00
H536   H     0.97972   0.36593   0.44689   0.00000  Uiso   1.00
H537   H     0.11806   0.12431   0.35285   0.00000  Uiso   1.00
H538   H     0.08457   0.07535   0.22165   0.00000  Uiso   1.00
H539   H     0.22075   0.12486   0.38815   0.00000  Uiso   1.00
H540   H     0.04813   0.15859   0.45973   0.00000  Uiso   1.00
H541   H     0.04866   0.04335   0.05890   0.00000  Uiso   1.00
H542   H     0.33581   0.14775   0.41000   0.00000  Uiso   1.00
H543   H     0.97180   0.21889   0.56095   0.00000  Uiso   1.00
O544   O     0.03078   0.08776   0.91316   0.00000  Uiso   1.00
O545   O     0.40749   0.22472   0.37379   0.00000  Uiso   1.00
O546   O     0.92992   0.31806   0.57183   0.00000  Uiso   1.00
N547   N     0.05931   0.16251   0.98970   0.00000  Uiso   1.00
N548   N     0.32777   0.26010   0.31793   0.00000  Uiso   1.00
N549   N     0.98746   0.32662   0.45908   0.00000  Uiso   1.00
N550   N     0.05504   0.08339   0.05107   0.00000  Uiso   1.00
N551   N     0.32350   0.18098   0.37931   0.00000  Uiso   1.00
N552   N     0.98320   0.24750   0.52045   0.00000  Uiso   1.00
C553   C     0.75670   0.87481   0.00015   0.00000  Uiso   1.00
C554   C     0.71141   0.89402   0.94337   0.00000  Uiso   1.00
C555   C     0.71740   0.90778   0.86144   0.00000  Uiso   1.00
C556   C     0.67100   0.92439   0.82005   0.00000  Uiso   1.00
C557   C     0.60835   0.95378   0.72591   0.00000  Uiso   1.00
C558   C     0.73830   0.82002   0.03382   0.00000  Uiso   1.00
C559   C     0.76691   0.77158   0.02796   0.00000  Uiso   1.00
C560   C     0.74315   0.72590   0.06272   0.00000  Uiso   1.00
C561   C     0.72228   0.64042   0.10906   0.00000  Uiso   1.00
C562   C     0.75663   0.91382   0.07271   0.00000  Uiso   1.00
C563   C     0.80065   0.94423   0.09956   0.00000  Uiso   1.00
C564   C     0.79234   0.97751   0.16707   0.00000  Uiso   1.00
C565   C     0.79992   0.03765   0.27380   0.00000  Uiso   1.00
C566   C     0.66366   0.87982   0.07233   0.00000  Uiso   1.00
C567   C     0.66087   0.89674   0.98258   0.00000  Uiso   1.00
C568   C     0.61445   0.91333   0.94130   0.00000  Uiso   1.00
C569   C     0.62037   0.92712   0.85932   0.00000  Uiso   1.00
C570   C     0.68777   0.82274   0.07303   0.00000  Uiso   1.00
C571   C     0.66397   0.77712   0.10781   0.00000  Uiso   1.00
C572   C     0.69252   0.72863   0.10199   0.00000  Uiso   1.00
C573   C     0.70609   0.91654   0.11192   0.00000  Uiso   1.00
C574   C     0.69771   0.94977   0.17941   0.00000  Uiso   1.00
C575   C     0.74171   0.98023   0.20635   0.00000  Uiso   1.00
H576   H     0.79605   0.87269   0.96963   0.00000  Uiso   1.00
H577   H     0.75651   0.90567   0.83112   0.00000  Uiso   1.00
H578   H     0.80602   0.76949   0.99762   0.00000  Uiso   1.00
H579   H     0.83976   0.94211   0.06920   0.00000  Uiso   1.00
H580   H     0.69039   0.94342   0.69484   0.00000  Uiso   1.00
H581   H     0.79478   0.65628   0.04594   0.00000  Uiso   1.00
H582   H     0.86593   0.02028   0.19689   0.00000  Uiso   1.00
H583   H     0.62431   0.88194   0.10285   0.00000  Uiso   1.00
H584   H     0.57535   0.91543   0.97165   0.00000  Uiso   1.00
H585   H     0.62486   0.77925   0.13815   0.00000  Uiso   1.00
H586   H     0.65859   0.95187   0.20973   0.00000  Uiso   1.00
H587   H     0.54335   0.95134   0.80890   0.00000  Uiso   1.00
H588   H     0.64775   0.66419   0.16000   0.00000  Uiso   1.00
H589   H     0.71889   0.02820   0.31095   0.00000  Uiso   1.00
O590   O     0.58776   0.96922   0.66316   0.00000  Uiso   1.00
O591   O     0.72472   0.59251   0.12379   0.00000  Uiso   1.00
O592   O     0.81806   0.07008   0.32183   0.00000  Uiso   1.00
N593   N     0.66251   0.94069   0.73970   0.00000  Uiso   1.00
N594   N     0.76010   0.67223   0.06793   0.00000  Uiso   1.00
N595   N     0.82662   0.01254   0.20908   0.00000  Uiso   1.00
N596   N     0.58339   0.94496   0.80107   0.00000  Uiso   1.00
N597   N     0.68098   0.67650   0.12931   0.00000  Uiso   1.00
N598   N     0.74750   0.01680   0.27045   0.00000  Uiso   1.00
C599   C     0.25670   0.37481   0.50015   0.00000  Uiso   1.00
C600   C     0.21141   0.39402   0.44337   0.00000  Uiso   1.00
C601   C     0.21740   0.40778   0.36144   0.00000  Uiso   1.00
C602   C     0.17100   0.42439   0.32005   0.00000  Uiso   1.00
C603   C     0.10835   0.45378   0.22591   0.00000  Uiso   1.00
C604   C     0.23830   0.32002   0.53382   0.00000  Uiso   1.00
C605   C     0.26691   0.27158   0.52796   0.00000  Uiso   1.00
C606   C     0.24315   0.22590   0.56272   0.00000  Uiso   1.00
C607   C     0.22228   0.14042   0.60906   0.00000  Uiso   1.00
C608   C     0.25663   0.41382   0.57271   0.00000  Uiso   1.00
C609   C     0.30065   0.44423   0.59956   0.00000  Uiso   1.00
C610   C     0.29234   0.47751   0.66707   0.00000  Uiso   1.00
C611   C     0.29992   0.53765   0.77380   0.00000  Uiso   1.00
C612   C     0.16366   0.37982   0.57233   0.00000  Uiso   1.00
C613   C     0.16087   0.39674   0.48258   0.00000  Uiso   1.00
C614   C     0.11445   0.41333   0.44130   0.00000  Uiso   1.00
C615   C     0.12037   0.42712   0.35932   0.00000  Uiso   1.00
C616   C     0.18777   0.32274   0.57303   0.00000  Uiso   1.00
C617   C     0.16397   0.27712   0.60781   0.00000  Uiso   1.00
C618   C     0.19252   0.22863   0.60199   0.00000  Uiso   1.00
C619   C     0.20609   0.41654   0.61192   0.00000  Uiso   1.00
C620   C     0.19771   0.44977   0.67941   0.00000  Uiso   1.00
C621   C     0.24171   0.48023   0.70635   0.00000  Uiso   1.00
H622   H     0.29605   0.37269   0.46963   0.00000  Uiso   1.00
H623   H     0.25651   0.40567   0.33112   0.00000  Uiso   1.00
H624   H     0.30602   0.26949   0.49762   0.00000  Uiso   1.00
H625   H     0.33976   0.44211   0.56920   0.00000  Uiso   1.00
H626   H     0.19039   0.44342   0.19484   0.00000  Uiso   1.00
H627   H     0.29478   0.15628   0.54594   0.00000  Uiso   1.00
H628   H     0.36593   0.52028   0.69689   0.00000  Uiso   1.00
H629   H     0.12431   0.38194   0.60285   0.00000  Uiso   1.00
H630   H     0.07535   0.41543   0.47165   0.00000  Uiso   1.00
H631   H     0.12486   0.27925   0.63815   0.00000  Uiso   1.00
H632   H     0.15859   0.45187   0.70973   0.00000  Uiso   1.00
H633   H     0.04335   0.45134   0.30890   0.00000  Uiso   1.00
H634   H     0.14775   0.16419   0.66000   0.00000  Uiso   1.00
H635   H     0.21889   0.52820   0.81095   0.00000  Uiso   1.00
O636   O     0.08776   0.46922   0.16316   0.00000  Uiso   1.00
O637   O     0.22472   0.09251   0.62379   0.00000  Uiso   1.00
O638   O     0.31806   0.57008   0.82183   0.00000  Uiso   1.00
N639   N     0.16251   0.44069   0.23970   0.00000  Uiso   1.00
N640   N     0.26010   0.17223   0.56793   0.00000  Uiso   1.00
N641   N     0.32662   0.51254   0.70908   0.00000  Uiso   1.00
N642   N     0.08339   0.44496   0.30107   0.00000  Uiso   1.00
N643   N     0.18098   0.17650   0.62931   0.00000  Uiso   1.00
N644   N     0.24750   0.51680   0.77045   0.00000  Uiso   1.00
C645   C     0.74330   0.62519   0.50015   0.00000  Uiso   1.00
C646   C     0.78859   0.60598   0.44337   0.00000  Uiso   1.00
C647   C     0.78260   0.59222   0.36144   0.00000  Uiso   1.00
C648   C     0.82900   0.57561   0.32005   0.00000  Uiso   1.00
C649   C     0.89165   0.54622   0.22591   0.00000  Uiso   1.00
C650   C     0.76170   0.67998   0.53382   0.00000  Uiso   1.00
C651   C     0.73309   0.72842   0.52796   0.00000  Uiso   1.00
C652   C     0.75685   0.77410   0.56272   0.00000  Uiso   1.00
C653   C     0.77772   0.85958   0.60906   0.00000  Uiso   1.00
C654   C     0.74337   0.58618   0.57271   0.00000  Uiso   1.00
C655   C     0.69935   0.55577   0.59956   0.00000  Uiso   1.00
C656   C     0.70766   0.52249   0.66707   0.00000  Uiso   1.00
C657   C     0.70008   0.46235   0.77380   0.00000  Uiso   1.00
C658   C     0.83634   0.62018   0.57233   0.00000  Uiso   1.00
C659   C     0.83913   0.60326   0.48258   0.00000  Uiso   1.00
C660   C     0.88555   0.58667   0.44130   0.00000  Uiso   1.00
C661   C     0.87963   0.57288   0.35932   0.00000  Uiso   1.00
C662   C     0.81223   0.67726   0.57303   0.00000  Uiso   1.00
C663   C     0.83603   0.72288   0.60781   0.00000  Uiso   1.00
C664   C     0.80748   0.77137   0.60199   0.00000  Uiso   1.00
C665   C     0.79391   0.58346   0.61192   0.00000  Uiso   1.00
C666   C     0.80229   0.55023   0.67941   0.00000  Uiso   1.00
C667   C     0.75829   0.51977   0.70635   0.00000  Uiso   1.00
H668   H     0.70395   0.62731   0.46963   0.00000  Uiso   1.00
H669   H     0.74349   0.59433   0.33112   0.00000  Uiso   1.00
H670   H     0.69398   0.73051   0.49762   0.00000  Uiso   1.00
H671   H     0.66024   0.55789   0.56920   0.00000  Uiso   1.00
H672   H     0.80961   0.55658   0.19484   0.00000  Uiso   1.00
H673   H     0.70522   0.84372   0.54594   0.00000  Uiso   1.00
H674   H     0.63407   0.47972   0.69689   0.00000  Uiso   1.00
H675   H     0.87569   0.61806   0.60285   0.00000  Uiso   1.00
H676   H     0.92465   0.58457   0.47165   0.00000  Uiso   1.00
H677   H     0.87514   0.72075   0.63815   0.00000  Uiso   1.00
H678   H     0.84141   0.54813   0.70973   0.00000  Uiso   1.00
H679   H     0.95665   0.54866   0.30890   0.00000  Uiso   1.00
H680   H     0.85225   0.83581   0.66000   0.00000  Uiso   1.00
H681   H     0.78111   0.47180   0.81095   0.00000  Uiso   1.00
O682   O     0.91224   0.53078   0.16316   0.00000  Uiso   1.00
O683   O     0.77528   0.90749   0.62379   0.00000  Uiso   1.00
O684   O     0.68194   0.42992   0.82183   0.00000  Uiso   1.00
N685   N     0.83749   0.55931   0.23970   0.00000  Uiso   1.00
N686   N     0.73990   0.82777   0.56793   0.00000  Uiso   1.00
N687   N     0.67338   0.48746   0.70908   0.00000  Uiso   1.00
N688   N     0.91661   0.55504   0.30107   0.00000  Uiso   1.00
N689   N     0.81902   0.82350   0.62931   0.00000  Uiso   1.00
N690   N     0.75250   0.48320   0.77045   0.00000  Uiso   1.00
C691   C     0.24330   0.12519   0.00015   0.00000  Uiso   1.00
C692   C     0.28859   0.10598   0.94337   0.00000  Uiso   1.00
C693   C     0.28260   0.09222   0.86144   0.00000  Uiso   1.00
C694   C     0.32900   0.07561   0.82005   0.00000  Uiso   1.00
C695   C     0.39165   0.04622   0.72591   0.00000  Uiso   1.00
C696   C     0.26170   0.17998   0.03382   0.00000  Uiso   1.00
C697   C     0.23309   0.22842   0.02796   0.00000  Uiso   1.00
C698   C     0.25685   0.27410   0.06272   0.00000  Uiso   1.00
C699   C     0.27772   0.35958   0.10906   0.00000  Uiso   1.00
C700   C     0.24337   0.08618   0.07271   0.00000  Uiso   1.00
C701   C     0.19935   0.05577   0.09956   0.00000  Uiso   1.00
C702   C     0.20766   0.02249   0.16707   0.00000  Uiso   1.00
C703   C     0.20008   0.96235   0.27380   0.00000  Uiso   1.00
C704   C     0.33634   0.12018   0.07233   0.00000  Uiso   1.00
C705   C     0.33913   0.10326   0.98258   0.00000  Uiso   1.00
C706   C     0.38555   0.08667   0.94130   0.00000  Uiso   1.00
C707   C     0.37963   0.07288   0.85932   0.00000  Uiso   1.00
C708   C     0.31223   0.17726   0.07303   0.00000  Uiso   1.00
C709   C     0.33603   0.22288   0.10781   0.00000  Uiso   1.00
C710   C     0.30748   0.27137   0.10199   0.00000  Uiso   1.00
C711   C     0.29391   0.08346   0.11192   0.00000  Uiso   1.00
C712   C     0.30229   0.05023   0.17941   0.00000  Uiso   1.00
C713   C     0.25829   0.01977   0.20635   0.00000  Uiso   1.00
H714   H     0.20395   0.12731   0.96963   0.00000  Uiso   1.00
H715   H     0.24349   0.09433   0.83112   0.00000  Uiso   1.00
H716   H     0.19398   0.23051   0.99762   0.00000  Uiso   1.00
H717   H     0.16024   0.05789   0.06920   0.00000  Uiso   1.00
H718   H     0.30961   0.05658   0.69484   0.00000  Uiso   1.00
H719   H     0.20522   0.34372   0.04594   0.00000  Uiso   1.00
H720   H     0.13407   0.97972   0.19689   0.00000  Uiso   1.00
H721   H     0.37569   0.11806   0.10285   0.00000  Uiso   1.00
H722   H     0.42465   0.08457   0.97165   0.00000  Uiso   1.00
H723   H     0.37514   0.22075   0.13815   0.00000  Uiso   1.00
H724   H     0.34141   0.04813   0.20973   0.00000  Uiso   1.00
H725   H     0.45665   0.04866   0.80890   0.00000  Uiso   1.00
H726   H     0.35225   0.33581   0.16000   0.00000  Uiso   1.00
H727   H     0.28111   0.97180   0.31095   0.00000  Uiso   1.00
O728   O     0.41224   0.03078   0.66316   0.00000  Uiso   1.00
O729   O     0.27528   0.40749   0.12379   0.00000  Uiso   1.00
O730   O     0.18194   0.92992   0.32183   0.00000  Uiso   1.00
N731   N     0.33749   0.05931   0.73970   0.00000  Uiso   1.00
N732   N     0.23990   0.32777   0.06793   0.00000  Uiso   1.00
N733   N     0.17338   0.98746   0.20908   0.00000  Uiso   1.00
N734   N     0.41661   0.05504   0.80107   0.00000  Uiso   1.00
N735   N     0.31902   0.32350   0.12931   0.00000  Uiso   1.00
N736   N     0.25250   0.98320   0.27045   0.00000  Uiso   1.00
