data_job_05624
_audit_creation_date              2018-12-19
_audit_creation_method            'Materials Studio'
_symmetry_space_group_name_H-M    'P1'
_symmetry_Int_Tables_number       1
_symmetry_cell_setting            triclinic
loop_
_symmetry_equiv_pos_as_xyz
  x,y,z
_cell_length_a                    43.1765
_cell_length_b                    43.1765
_cell_length_c                    7.3374
_cell_angle_alpha                 90.0000
_cell_angle_beta                  90.0000
_cell_angle_gamma                 90.0000
loop_
_atom_site_label
_atom_site_type_symbol
_atom_site_fract_x
_atom_site_fract_y
_atom_site_fract_z
_atom_site_U_iso_or_equiv
_atom_site_adp_type
_atom_site_occupancy
C1     C     0.37642   0.40657   0.51041   0.00000  Uiso   1.00
C2     C     0.37150   0.37420   0.58833   0.00000  Uiso   1.00
C3     C     0.36984   0.34700   0.48804   0.00000  Uiso   1.00
C4     C     0.36522   0.31975   0.58472   0.00000  Uiso   1.00
C5     C     0.35799   0.26949   0.67678   0.00000  Uiso   1.00
C6     C     0.34917   0.42598   0.57694   0.00000  Uiso   1.00
C7     C     0.32874   0.44233   0.46707   0.00000  Uiso   1.00
C8     C     0.30533   0.45867   0.55417   0.00000  Uiso   1.00
C9     C     0.26345   0.48882   0.62856   0.00000  Uiso   1.00
C10    C     0.40501   0.41950   0.60583   0.00000  Uiso   1.00
C11    C     0.43152   0.43041   0.52026   0.00000  Uiso   1.00
C12    C     0.45512   0.44130   0.63168   0.00000  Uiso   1.00
C13    C     0.49993   0.46139   0.75092   0.00000  Uiso   1.00
C14    C     0.37119   0.40654   0.86045   0.00000  Uiso   1.00
C15    C     0.36866   0.37418   0.77846   0.00000  Uiso   1.00
C16    C     0.36404   0.34696   0.87532   0.00000  Uiso   1.00
C17    C     0.36237   0.31973   0.77519   0.00000  Uiso   1.00
C18    C     0.34633   0.42597   0.76706   0.00000  Uiso   1.00
C19    C     0.32295   0.44229   0.85435   0.00000  Uiso   1.00
C20    C     0.30248   0.45865   0.74464   0.00000  Uiso   1.00
C21    C     0.40217   0.41949   0.79596   0.00000  Uiso   1.00
C22    C     0.42573   0.43037   0.90754   0.00000  Uiso   1.00
C23    C     0.45227   0.44128   0.82215   0.00000  Uiso   1.00
H24    H     0.37864   0.40658   0.36239   0.00000  Uiso   1.00
H25    H     0.37203   0.34702   0.34090   0.00000  Uiso   1.00
H26    H     0.33095   0.44234   0.31995   0.00000  Uiso   1.00
H27    H     0.43371   0.43042   0.37313   0.00000  Uiso   1.00
H28    H     0.36345   0.28098   0.40093   0.00000  Uiso   1.00
H29    H     0.27682   0.48197   0.35673   0.00000  Uiso   1.00
H30    H     0.49352   0.45683   0.46887   0.00000  Uiso   1.00
H31    H     0.36897   0.40652   0.00847   0.00000  Uiso   1.00
H32    H     0.36184   0.34696   0.02245   0.00000  Uiso   1.00
H33    H     0.32075   0.44227   0.00148   0.00000  Uiso   1.00
H34    H     0.42352   0.43035   0.05466   0.00000  Uiso   1.00
H35    H     0.35518   0.28093   0.95409   0.00000  Uiso   1.00
H36    H     0.26855   0.48191   0.90989   0.00000  Uiso   1.00
H37    H     0.48525   0.45678   0.02203   0.00000  Uiso   1.00
O38    O     0.35479   0.24177   0.67504   0.00000  Uiso   1.00
O39    O     0.24114   0.50546   0.61705   0.00000  Uiso   1.00
O40    O     0.52544   0.47248   0.76418   0.00000  Uiso   1.00
N41    N     0.36249   0.28914   0.52920   0.00000  Uiso   1.00
N42    N     0.28149   0.47705   0.48788   0.00000  Uiso   1.00
N43    N     0.48408   0.45355   0.59272   0.00000  Uiso   1.00
N44    N     0.35804   0.28911   0.82685   0.00000  Uiso   1.00
N45    N     0.27704   0.47702   0.78553   0.00000  Uiso   1.00
N46    N     0.47963   0.45352   0.89037   0.00000  Uiso   1.00
C47    C     0.87642   0.90657   0.01041   0.00000  Uiso   1.00
C48    C     0.87150   0.87420   0.08833   0.00000  Uiso   1.00
C49    C     0.86984   0.84700   0.98804   0.00000  Uiso   1.00
C50    C     0.86522   0.81975   0.08472   0.00000  Uiso   1.00
C51    C     0.85799   0.76949   0.17678   0.00000  Uiso   1.00
C52    C     0.84917   0.92598   0.07694   0.00000  Uiso   1.00
C53    C     0.82874   0.94233   0.96707   0.00000  Uiso   1.00
C54    C     0.80533   0.95867   0.05417   0.00000  Uiso   1.00
C55    C     0.76345   0.98882   0.12856   0.00000  Uiso   1.00
C56    C     0.90501   0.91950   0.10583   0.00000  Uiso   1.00
C57    C     0.93152   0.93041   0.02026   0.00000  Uiso   1.00
C58    C     0.95512   0.94130   0.13168   0.00000  Uiso   1.00
C59    C     0.99993   0.96139   0.25092   0.00000  Uiso   1.00
C60    C     0.87119   0.90654   0.36045   0.00000  Uiso   1.00
C61    C     0.86866   0.87418   0.27846   0.00000  Uiso   1.00
C62    C     0.86404   0.84696   0.37532   0.00000  Uiso   1.00
C63    C     0.86237   0.81973   0.27519   0.00000  Uiso   1.00
C64    C     0.84633   0.92597   0.26706   0.00000  Uiso   1.00
C65    C     0.82295   0.94229   0.35435   0.00000  Uiso   1.00
C66    C     0.80248   0.95865   0.24464   0.00000  Uiso   1.00
C67    C     0.90217   0.91949   0.29596   0.00000  Uiso   1.00
C68    C     0.92573   0.93037   0.40754   0.00000  Uiso   1.00
C69    C     0.95227   0.94128   0.32215   0.00000  Uiso   1.00
H70    H     0.87864   0.90658   0.86239   0.00000  Uiso   1.00
H71    H     0.87203   0.84702   0.84090   0.00000  Uiso   1.00
H72    H     0.83095   0.94234   0.81995   0.00000  Uiso   1.00
H73    H     0.93371   0.93042   0.87313   0.00000  Uiso   1.00
H74    H     0.86345   0.78098   0.90093   0.00000  Uiso   1.00
H75    H     0.77682   0.98197   0.85673   0.00000  Uiso   1.00
H76    H     0.99352   0.95683   0.96887   0.00000  Uiso   1.00
H77    H     0.86897   0.90652   0.50847   0.00000  Uiso   1.00
H78    H     0.86184   0.84696   0.52245   0.00000  Uiso   1.00
H79    H     0.82075   0.94227   0.50148   0.00000  Uiso   1.00
H80    H     0.92352   0.93035   0.55466   0.00000  Uiso   1.00
H81    H     0.85518   0.78093   0.45409   0.00000  Uiso   1.00
H82    H     0.76855   0.98191   0.40989   0.00000  Uiso   1.00
H83    H     0.98525   0.95678   0.52203   0.00000  Uiso   1.00
O84    O     0.85479   0.74177   0.17504   0.00000  Uiso   1.00
O85    O     0.74114   0.00546   0.11705   0.00000  Uiso   1.00
O86    O     0.02544   0.97248   0.26418   0.00000  Uiso   1.00
N87    N     0.86249   0.78914   0.02920   0.00000  Uiso   1.00
N88    N     0.78149   0.97705   0.98788   0.00000  Uiso   1.00
N89    N     0.98408   0.95355   0.09272   0.00000  Uiso   1.00
N90    N     0.85804   0.78911   0.32685   0.00000  Uiso   1.00
N91    N     0.77704   0.97702   0.28553   0.00000  Uiso   1.00
N92    N     0.97963   0.95352   0.39037   0.00000  Uiso   1.00
C93    C     0.12358   0.09343   0.01041   0.00000  Uiso   1.00
C94    C     0.12850   0.12580   0.08833   0.00000  Uiso   1.00
C95    C     0.13016   0.15300   0.98804   0.00000  Uiso   1.00
C96    C     0.13478   0.18025   0.08472   0.00000  Uiso   1.00
C97    C     0.14201   0.23051   0.17678   0.00000  Uiso   1.00
C98    C     0.15083   0.07402   0.07694   0.00000  Uiso   1.00
C99    C     0.17126   0.05767   0.96707   0.00000  Uiso   1.00
C100   C     0.19467   0.04133   0.05417   0.00000  Uiso   1.00
C101   C     0.23655   0.01118   0.12856   0.00000  Uiso   1.00
C102   C     0.09499   0.08050   0.10583   0.00000  Uiso   1.00
C103   C     0.06848   0.06959   0.02026   0.00000  Uiso   1.00
C104   C     0.04488   0.05870   0.13168   0.00000  Uiso   1.00
C105   C     0.00007   0.03861   0.25092   0.00000  Uiso   1.00
C106   C     0.12881   0.09346   0.36045   0.00000  Uiso   1.00
C107   C     0.13134   0.12582   0.27846   0.00000  Uiso   1.00
C108   C     0.13596   0.15304   0.37532   0.00000  Uiso   1.00
C109   C     0.13763   0.18027   0.27519   0.00000  Uiso   1.00
C110   C     0.15367   0.07403   0.26706   0.00000  Uiso   1.00
C111   C     0.17705   0.05771   0.35435   0.00000  Uiso   1.00
C112   C     0.19752   0.04135   0.24464   0.00000  Uiso   1.00
C113   C     0.09783   0.08051   0.29596   0.00000  Uiso   1.00
C114   C     0.07427   0.06963   0.40754   0.00000  Uiso   1.00
C115   C     0.04773   0.05872   0.32215   0.00000  Uiso   1.00
H116   H     0.12136   0.09342   0.86239   0.00000  Uiso   1.00
H117   H     0.12797   0.15298   0.84090   0.00000  Uiso   1.00
H118   H     0.16905   0.05766   0.81995   0.00000  Uiso   1.00
H119   H     0.06629   0.06958   0.87313   0.00000  Uiso   1.00
H120   H     0.13655   0.21902   0.90093   0.00000  Uiso   1.00
H121   H     0.22318   0.01803   0.85673   0.00000  Uiso   1.00
H122   H     0.00648   0.04317   0.96887   0.00000  Uiso   1.00
H123   H     0.13103   0.09348   0.50847   0.00000  Uiso   1.00
H124   H     0.13816   0.15304   0.52245   0.00000  Uiso   1.00
H125   H     0.17925   0.05773   0.50148   0.00000  Uiso   1.00
H126   H     0.07648   0.06965   0.55466   0.00000  Uiso   1.00
H127   H     0.14482   0.21907   0.45409   0.00000  Uiso   1.00
H128   H     0.23145   0.01809   0.40989   0.00000  Uiso   1.00
H129   H     0.01475   0.04322   0.52203   0.00000  Uiso   1.00
O130   O     0.14521   0.25823   0.17504   0.00000  Uiso   1.00
O131   O     0.25886   0.99454   0.11705   0.00000  Uiso   1.00
O132   O     0.97456   0.02752   0.26418   0.00000  Uiso   1.00
N133   N     0.13751   0.21086   0.02920   0.00000  Uiso   1.00
N134   N     0.21851   0.02295   0.98788   0.00000  Uiso   1.00
N135   N     0.01592   0.04645   0.09272   0.00000  Uiso   1.00
N136   N     0.14196   0.21089   0.32685   0.00000  Uiso   1.00
N137   N     0.22296   0.02298   0.28553   0.00000  Uiso   1.00
N138   N     0.02037   0.04648   0.39037   0.00000  Uiso   1.00
C139   C     0.62358   0.59343   0.51041   0.00000  Uiso   1.00
C140   C     0.62850   0.62580   0.58833   0.00000  Uiso   1.00
C141   C     0.63016   0.65300   0.48804   0.00000  Uiso   1.00
C142   C     0.63478   0.68025   0.58472   0.00000  Uiso   1.00
C143   C     0.64201   0.73051   0.67678   0.00000  Uiso   1.00
C144   C     0.65083   0.57402   0.57694   0.00000  Uiso   1.00
C145   C     0.67126   0.55767   0.46707   0.00000  Uiso   1.00
C146   C     0.69467   0.54133   0.55417   0.00000  Uiso   1.00
C147   C     0.73655   0.51118   0.62856   0.00000  Uiso   1.00
C148   C     0.59499   0.58050   0.60583   0.00000  Uiso   1.00
C149   C     0.56848   0.56959   0.52026   0.00000  Uiso   1.00
C150   C     0.54488   0.55870   0.63168   0.00000  Uiso   1.00
C151   C     0.50007   0.53861   0.75092   0.00000  Uiso   1.00
C152   C     0.62881   0.59346   0.86045   0.00000  Uiso   1.00
C153   C     0.63134   0.62582   0.77846   0.00000  Uiso   1.00
C154   C     0.63596   0.65304   0.87532   0.00000  Uiso   1.00
C155   C     0.63763   0.68027   0.77519   0.00000  Uiso   1.00
C156   C     0.65367   0.57403   0.76706   0.00000  Uiso   1.00
C157   C     0.67705   0.55771   0.85435   0.00000  Uiso   1.00
C158   C     0.69752   0.54135   0.74464   0.00000  Uiso   1.00
C159   C     0.59783   0.58051   0.79596   0.00000  Uiso   1.00
C160   C     0.57427   0.56963   0.90754   0.00000  Uiso   1.00
C161   C     0.54773   0.55872   0.82215   0.00000  Uiso   1.00
H162   H     0.62136   0.59342   0.36239   0.00000  Uiso   1.00
H163   H     0.62797   0.65298   0.34090   0.00000  Uiso   1.00
H164   H     0.66905   0.55766   0.31995   0.00000  Uiso   1.00
H165   H     0.56629   0.56958   0.37313   0.00000  Uiso   1.00
H166   H     0.63655   0.71902   0.40093   0.00000  Uiso   1.00
H167   H     0.72318   0.51803   0.35673   0.00000  Uiso   1.00
H168   H     0.50648   0.54317   0.46887   0.00000  Uiso   1.00
H169   H     0.63103   0.59348   0.00847   0.00000  Uiso   1.00
H170   H     0.63816   0.65304   0.02245   0.00000  Uiso   1.00
H171   H     0.67925   0.55773   0.00148   0.00000  Uiso   1.00
H172   H     0.57648   0.56965   0.05466   0.00000  Uiso   1.00
H173   H     0.64482   0.71907   0.95409   0.00000  Uiso   1.00
H174   H     0.73145   0.51809   0.90989   0.00000  Uiso   1.00
H175   H     0.51475   0.54322   0.02203   0.00000  Uiso   1.00
O176   O     0.64521   0.75823   0.67504   0.00000  Uiso   1.00
O177   O     0.75886   0.49454   0.61705   0.00000  Uiso   1.00
O178   O     0.47456   0.52752   0.76418   0.00000  Uiso   1.00
N179   N     0.63751   0.71086   0.52920   0.00000  Uiso   1.00
N180   N     0.71851   0.52295   0.48788   0.00000  Uiso   1.00
N181   N     0.51592   0.54645   0.59272   0.00000  Uiso   1.00
N182   N     0.64196   0.71089   0.82685   0.00000  Uiso   1.00
N183   N     0.72296   0.52298   0.78553   0.00000  Uiso   1.00
N184   N     0.52037   0.54648   0.89037   0.00000  Uiso   1.00
C185   C     0.59343   0.87642   0.76041   0.00000  Uiso   1.00
C186   C     0.62580   0.87150   0.83833   0.00000  Uiso   1.00
C187   C     0.65300   0.86984   0.73804   0.00000  Uiso   1.00
C188   C     0.68025   0.86522   0.83472   0.00000  Uiso   1.00
C189   C     0.73051   0.85799   0.92678   0.00000  Uiso   1.00
C190   C     0.57402   0.84917   0.82694   0.00000  Uiso   1.00
C191   C     0.55767   0.82874   0.71707   0.00000  Uiso   1.00
C192   C     0.54133   0.80533   0.80417   0.00000  Uiso   1.00
C193   C     0.51118   0.76345   0.87856   0.00000  Uiso   1.00
C194   C     0.58050   0.90501   0.85583   0.00000  Uiso   1.00
C195   C     0.56959   0.93152   0.77026   0.00000  Uiso   1.00
C196   C     0.55870   0.95512   0.88168   0.00000  Uiso   1.00
C197   C     0.53861   0.99993   0.00092   0.00000  Uiso   1.00
C198   C     0.59346   0.87119   0.11045   0.00000  Uiso   1.00
C199   C     0.62582   0.86866   0.02846   0.00000  Uiso   1.00
C200   C     0.65304   0.86404   0.12532   0.00000  Uiso   1.00
C201   C     0.68027   0.86237   0.02519   0.00000  Uiso   1.00
C202   C     0.57403   0.84633   0.01706   0.00000  Uiso   1.00
C203   C     0.55771   0.82295   0.10435   0.00000  Uiso   1.00
C204   C     0.54135   0.80248   0.99464   0.00000  Uiso   1.00
C205   C     0.58051   0.90217   0.04596   0.00000  Uiso   1.00
C206   C     0.56963   0.92573   0.15754   0.00000  Uiso   1.00
C207   C     0.55872   0.95227   0.07215   0.00000  Uiso   1.00
H208   H     0.59342   0.87864   0.61239   0.00000  Uiso   1.00
H209   H     0.65298   0.87203   0.59090   0.00000  Uiso   1.00
H210   H     0.55766   0.83095   0.56995   0.00000  Uiso   1.00
H211   H     0.56958   0.93371   0.62313   0.00000  Uiso   1.00
H212   H     0.71902   0.86345   0.65093   0.00000  Uiso   1.00
H213   H     0.51803   0.77682   0.60673   0.00000  Uiso   1.00
H214   H     0.54317   0.99352   0.71887   0.00000  Uiso   1.00
H215   H     0.59348   0.86897   0.25847   0.00000  Uiso   1.00
H216   H     0.65304   0.86184   0.27245   0.00000  Uiso   1.00
H217   H     0.55773   0.82075   0.25148   0.00000  Uiso   1.00
H218   H     0.56965   0.92352   0.30466   0.00000  Uiso   1.00
H219   H     0.71907   0.85518   0.20409   0.00000  Uiso   1.00
H220   H     0.51809   0.76855   0.15989   0.00000  Uiso   1.00
H221   H     0.54322   0.98525   0.27203   0.00000  Uiso   1.00
O222   O     0.75823   0.85479   0.92504   0.00000  Uiso   1.00
O223   O     0.49454   0.74114   0.86705   0.00000  Uiso   1.00
O224   O     0.52752   0.02544   0.01418   0.00000  Uiso   1.00
N225   N     0.71086   0.86249   0.77920   0.00000  Uiso   1.00
N226   N     0.52295   0.78149   0.73788   0.00000  Uiso   1.00
N227   N     0.54645   0.98408   0.84272   0.00000  Uiso   1.00
N228   N     0.71089   0.85804   0.07685   0.00000  Uiso   1.00
N229   N     0.52298   0.77704   0.03553   0.00000  Uiso   1.00
N230   N     0.54648   0.97963   0.14037   0.00000  Uiso   1.00
C231   C     0.09343   0.37642   0.26041   0.00000  Uiso   1.00
C232   C     0.12580   0.37150   0.33833   0.00000  Uiso   1.00
C233   C     0.15300   0.36984   0.23804   0.00000  Uiso   1.00
C234   C     0.18025   0.36522   0.33472   0.00000  Uiso   1.00
C235   C     0.23051   0.35799   0.42678   0.00000  Uiso   1.00
C236   C     0.07402   0.34917   0.32694   0.00000  Uiso   1.00
C237   C     0.05767   0.32874   0.21707   0.00000  Uiso   1.00
C238   C     0.04133   0.30533   0.30417   0.00000  Uiso   1.00
C239   C     0.01118   0.26345   0.37856   0.00000  Uiso   1.00
C240   C     0.08050   0.40501   0.35583   0.00000  Uiso   1.00
C241   C     0.06959   0.43152   0.27026   0.00000  Uiso   1.00
C242   C     0.05870   0.45512   0.38168   0.00000  Uiso   1.00
C243   C     0.03861   0.49993   0.50092   0.00000  Uiso   1.00
C244   C     0.09346   0.37119   0.61045   0.00000  Uiso   1.00
C245   C     0.12582   0.36866   0.52846   0.00000  Uiso   1.00
C246   C     0.15304   0.36404   0.62532   0.00000  Uiso   1.00
C247   C     0.18027   0.36237   0.52519   0.00000  Uiso   1.00
C248   C     0.07403   0.34633   0.51706   0.00000  Uiso   1.00
C249   C     0.05771   0.32295   0.60435   0.00000  Uiso   1.00
C250   C     0.04135   0.30248   0.49464   0.00000  Uiso   1.00
C251   C     0.08051   0.40217   0.54596   0.00000  Uiso   1.00
C252   C     0.06963   0.42573   0.65754   0.00000  Uiso   1.00
C253   C     0.05872   0.45227   0.57215   0.00000  Uiso   1.00
H254   H     0.09342   0.37864   0.11239   0.00000  Uiso   1.00
H255   H     0.15298   0.37203   0.09090   0.00000  Uiso   1.00
H256   H     0.05766   0.33095   0.06995   0.00000  Uiso   1.00
H257   H     0.06958   0.43371   0.12313   0.00000  Uiso   1.00
H258   H     0.21902   0.36345   0.15093   0.00000  Uiso   1.00
H259   H     0.01803   0.27682   0.10673   0.00000  Uiso   1.00
H260   H     0.04317   0.49352   0.21887   0.00000  Uiso   1.00
H261   H     0.09348   0.36897   0.75847   0.00000  Uiso   1.00
H262   H     0.15304   0.36184   0.77245   0.00000  Uiso   1.00
H263   H     0.05773   0.32075   0.75148   0.00000  Uiso   1.00
H264   H     0.06965   0.42352   0.80466   0.00000  Uiso   1.00
H265   H     0.21907   0.35518   0.70409   0.00000  Uiso   1.00
H266   H     0.01809   0.26855   0.65989   0.00000  Uiso   1.00
H267   H     0.04322   0.48525   0.77203   0.00000  Uiso   1.00
O268   O     0.25823   0.35479   0.42504   0.00000  Uiso   1.00
O269   O     0.99454   0.24114   0.36705   0.00000  Uiso   1.00
O270   O     0.02752   0.52544   0.51418   0.00000  Uiso   1.00
N271   N     0.21086   0.36249   0.27920   0.00000  Uiso   1.00
N272   N     0.02295   0.28149   0.23788   0.00000  Uiso   1.00
N273   N     0.04645   0.48408   0.34272   0.00000  Uiso   1.00
N274   N     0.21089   0.35804   0.57685   0.00000  Uiso   1.00
N275   N     0.02298   0.27704   0.53553   0.00000  Uiso   1.00
N276   N     0.04648   0.47963   0.64037   0.00000  Uiso   1.00
C277   C     0.90657   0.62358   0.26041   0.00000  Uiso   1.00
C278   C     0.87420   0.62850   0.33833   0.00000  Uiso   1.00
C279   C     0.84700   0.63016   0.23804   0.00000  Uiso   1.00
C280   C     0.81975   0.63478   0.33472   0.00000  Uiso   1.00
C281   C     0.76949   0.64201   0.42678   0.00000  Uiso   1.00
C282   C     0.92598   0.65083   0.32694   0.00000  Uiso   1.00
C283   C     0.94233   0.67126   0.21707   0.00000  Uiso   1.00
C284   C     0.95867   0.69467   0.30417   0.00000  Uiso   1.00
C285   C     0.98882   0.73655   0.37856   0.00000  Uiso   1.00
C286   C     0.91950   0.59499   0.35583   0.00000  Uiso   1.00
C287   C     0.93041   0.56848   0.27026   0.00000  Uiso   1.00
C288   C     0.94130   0.54488   0.38168   0.00000  Uiso   1.00
C289   C     0.96139   0.50007   0.50092   0.00000  Uiso   1.00
C290   C     0.90654   0.62881   0.61045   0.00000  Uiso   1.00
C291   C     0.87418   0.63134   0.52846   0.00000  Uiso   1.00
C292   C     0.84696   0.63596   0.62532   0.00000  Uiso   1.00
C293   C     0.81973   0.63763   0.52519   0.00000  Uiso   1.00
C294   C     0.92597   0.65367   0.51706   0.00000  Uiso   1.00
C295   C     0.94229   0.67705   0.60435   0.00000  Uiso   1.00
C296   C     0.95865   0.69752   0.49464   0.00000  Uiso   1.00
C297   C     0.91949   0.59783   0.54596   0.00000  Uiso   1.00
C298   C     0.93037   0.57427   0.65754   0.00000  Uiso   1.00
C299   C     0.94128   0.54773   0.57215   0.00000  Uiso   1.00
H300   H     0.90658   0.62136   0.11239   0.00000  Uiso   1.00
H301   H     0.84702   0.62797   0.09090   0.00000  Uiso   1.00
H302   H     0.94234   0.66905   0.06995   0.00000  Uiso   1.00
H303   H     0.93042   0.56629   0.12313   0.00000  Uiso   1.00
H304   H     0.78098   0.63655   0.15093   0.00000  Uiso   1.00
H305   H     0.98197   0.72318   0.10673   0.00000  Uiso   1.00
H306   H     0.95683   0.50648   0.21887   0.00000  Uiso   1.00
H307   H     0.90652   0.63103   0.75847   0.00000  Uiso   1.00
H308   H     0.84696   0.63816   0.77245   0.00000  Uiso   1.00
H309   H     0.94227   0.67925   0.75148   0.00000  Uiso   1.00
H310   H     0.93035   0.57648   0.80466   0.00000  Uiso   1.00
H311   H     0.78093   0.64482   0.70409   0.00000  Uiso   1.00
H312   H     0.98191   0.73145   0.65989   0.00000  Uiso   1.00
H313   H     0.95678   0.51475   0.77203   0.00000  Uiso   1.00
O314   O     0.74177   0.64521   0.42504   0.00000  Uiso   1.00
O315   O     0.00546   0.75886   0.36705   0.00000  Uiso   1.00
O316   O     0.97248   0.47456   0.51418   0.00000  Uiso   1.00
N317   N     0.78914   0.63751   0.27920   0.00000  Uiso   1.00
N318   N     0.97705   0.71851   0.23788   0.00000  Uiso   1.00
N319   N     0.95355   0.51592   0.34272   0.00000  Uiso   1.00
N320   N     0.78911   0.64196   0.57685   0.00000  Uiso   1.00
N321   N     0.97702   0.72296   0.53553   0.00000  Uiso   1.00
N322   N     0.95352   0.52037   0.64037   0.00000  Uiso   1.00
C323   C     0.40657   0.12358   0.76041   0.00000  Uiso   1.00
C324   C     0.37420   0.12850   0.83833   0.00000  Uiso   1.00
C325   C     0.34700   0.13016   0.73804   0.00000  Uiso   1.00
C326   C     0.31975   0.13478   0.83472   0.00000  Uiso   1.00
C327   C     0.26949   0.14201   0.92678   0.00000  Uiso   1.00
C328   C     0.42598   0.15083   0.82694   0.00000  Uiso   1.00
C329   C     0.44233   0.17126   0.71707   0.00000  Uiso   1.00
C330   C     0.45867   0.19467   0.80417   0.00000  Uiso   1.00
C331   C     0.48882   0.23655   0.87856   0.00000  Uiso   1.00
C332   C     0.41950   0.09499   0.85583   0.00000  Uiso   1.00
C333   C     0.43041   0.06848   0.77026   0.00000  Uiso   1.00
C334   C     0.44130   0.04488   0.88168   0.00000  Uiso   1.00
C335   C     0.46139   0.00007   0.00092   0.00000  Uiso   1.00
C336   C     0.40654   0.12881   0.11045   0.00000  Uiso   1.00
C337   C     0.37418   0.13134   0.02846   0.00000  Uiso   1.00
C338   C     0.34696   0.13596   0.12532   0.00000  Uiso   1.00
C339   C     0.31973   0.13763   0.02519   0.00000  Uiso   1.00
C340   C     0.42597   0.15367   0.01706   0.00000  Uiso   1.00
C341   C     0.44229   0.17705   0.10435   0.00000  Uiso   1.00
C342   C     0.45865   0.19752   0.99464   0.00000  Uiso   1.00
C343   C     0.41949   0.09783   0.04596   0.00000  Uiso   1.00
C344   C     0.43037   0.07427   0.15754   0.00000  Uiso   1.00
C345   C     0.44128   0.04773   0.07215   0.00000  Uiso   1.00
H346   H     0.40658   0.12136   0.61239   0.00000  Uiso   1.00
H347   H     0.34702   0.12797   0.59090   0.00000  Uiso   1.00
H348   H     0.44234   0.16905   0.56995   0.00000  Uiso   1.00
H349   H     0.43042   0.06629   0.62313   0.00000  Uiso   1.00
H350   H     0.28098   0.13655   0.65093   0.00000  Uiso   1.00
H351   H     0.48197   0.22318   0.60673   0.00000  Uiso   1.00
H352   H     0.45683   0.00648   0.71887   0.00000  Uiso   1.00
H353   H     0.40652   0.13103   0.25847   0.00000  Uiso   1.00
H354   H     0.34696   0.13816   0.27245   0.00000  Uiso   1.00
H355   H     0.44227   0.17925   0.25148   0.00000  Uiso   1.00
H356   H     0.43035   0.07648   0.30466   0.00000  Uiso   1.00
H357   H     0.28093   0.14482   0.20409   0.00000  Uiso   1.00
H358   H     0.48191   0.23145   0.15989   0.00000  Uiso   1.00
H359   H     0.45678   0.01475   0.27203   0.00000  Uiso   1.00
O360   O     0.24177   0.14521   0.92504   0.00000  Uiso   1.00
O361   O     0.50546   0.25886   0.86705   0.00000  Uiso   1.00
O362   O     0.47248   0.97456   0.01418   0.00000  Uiso   1.00
N363   N     0.28914   0.13751   0.77920   0.00000  Uiso   1.00
N364   N     0.47705   0.21851   0.73788   0.00000  Uiso   1.00
N365   N     0.45355   0.01592   0.84272   0.00000  Uiso   1.00
N366   N     0.28911   0.14196   0.07685   0.00000  Uiso   1.00
N367   N     0.47702   0.22296   0.03553   0.00000  Uiso   1.00
N368   N     0.45352   0.02037   0.14037   0.00000  Uiso   1.00
C369   C     0.62358   0.09343   0.73959   0.00000  Uiso   1.00
C370   C     0.62850   0.12580   0.66167   0.00000  Uiso   1.00
C371   C     0.63016   0.15300   0.76196   0.00000  Uiso   1.00
C372   C     0.63478   0.18025   0.66528   0.00000  Uiso   1.00
C373   C     0.64201   0.23051   0.57322   0.00000  Uiso   1.00
C374   C     0.65083   0.07402   0.67306   0.00000  Uiso   1.00
C375   C     0.67126   0.05767   0.78293   0.00000  Uiso   1.00
C376   C     0.69467   0.04133   0.69583   0.00000  Uiso   1.00
C377   C     0.73655   0.01118   0.62144   0.00000  Uiso   1.00
C378   C     0.59499   0.08050   0.64417   0.00000  Uiso   1.00
C379   C     0.56848   0.06959   0.72974   0.00000  Uiso   1.00
C380   C     0.54488   0.05870   0.61832   0.00000  Uiso   1.00
C381   C     0.50007   0.03861   0.49908   0.00000  Uiso   1.00
C382   C     0.62881   0.09346   0.38955   0.00000  Uiso   1.00
C383   C     0.63134   0.12582   0.47154   0.00000  Uiso   1.00
C384   C     0.63596   0.15304   0.37468   0.00000  Uiso   1.00
C385   C     0.63763   0.18027   0.47481   0.00000  Uiso   1.00
C386   C     0.65367   0.07403   0.48294   0.00000  Uiso   1.00
C387   C     0.67705   0.05771   0.39565   0.00000  Uiso   1.00
C388   C     0.69752   0.04135   0.50536   0.00000  Uiso   1.00
C389   C     0.59783   0.08051   0.45404   0.00000  Uiso   1.00
C390   C     0.57427   0.06963   0.34246   0.00000  Uiso   1.00
C391   C     0.54773   0.05872   0.42785   0.00000  Uiso   1.00
H392   H     0.62136   0.09342   0.88761   0.00000  Uiso   1.00
H393   H     0.62797   0.15298   0.90910   0.00000  Uiso   1.00
H394   H     0.66905   0.05766   0.93005   0.00000  Uiso   1.00
H395   H     0.56629   0.06958   0.87687   0.00000  Uiso   1.00
H396   H     0.63655   0.21902   0.84907   0.00000  Uiso   1.00
H397   H     0.72318   0.01803   0.89327   0.00000  Uiso   1.00
H398   H     0.50648   0.04317   0.78113   0.00000  Uiso   1.00
H399   H     0.63103   0.09348   0.24153   0.00000  Uiso   1.00
H400   H     0.63816   0.15304   0.22755   0.00000  Uiso   1.00
H401   H     0.67925   0.05773   0.24852   0.00000  Uiso   1.00
H402   H     0.57648   0.06965   0.19534   0.00000  Uiso   1.00
H403   H     0.64482   0.21907   0.29591   0.00000  Uiso   1.00
H404   H     0.73145   0.01809   0.34011   0.00000  Uiso   1.00
H405   H     0.51475   0.04322   0.22797   0.00000  Uiso   1.00
O406   O     0.64521   0.25823   0.57496   0.00000  Uiso   1.00
O407   O     0.75886   0.99454   0.63295   0.00000  Uiso   1.00
O408   O     0.47456   0.02752   0.48582   0.00000  Uiso   1.00
N409   N     0.63751   0.21086   0.72080   0.00000  Uiso   1.00
N410   N     0.71851   0.02295   0.76212   0.00000  Uiso   1.00
N411   N     0.51592   0.04645   0.65728   0.00000  Uiso   1.00
N412   N     0.64196   0.21089   0.42315   0.00000  Uiso   1.00
N413   N     0.72296   0.02298   0.46447   0.00000  Uiso   1.00
N414   N     0.52037   0.04648   0.35963   0.00000  Uiso   1.00
C415   C     0.12358   0.59343   0.23959   0.00000  Uiso   1.00
C416   C     0.12850   0.62580   0.16167   0.00000  Uiso   1.00
C417   C     0.13016   0.65300   0.26196   0.00000  Uiso   1.00
C418   C     0.13478   0.68025   0.16528   0.00000  Uiso   1.00
C419   C     0.14201   0.73051   0.07322   0.00000  Uiso   1.00
C420   C     0.15083   0.57402   0.17306   0.00000  Uiso   1.00
C421   C     0.17126   0.55767   0.28293   0.00000  Uiso   1.00
C422   C     0.19467   0.54133   0.19583   0.00000  Uiso   1.00
C423   C     0.23655   0.51118   0.12144   0.00000  Uiso   1.00
C424   C     0.09499   0.58050   0.14417   0.00000  Uiso   1.00
C425   C     0.06848   0.56959   0.22974   0.00000  Uiso   1.00
C426   C     0.04488   0.55870   0.11832   0.00000  Uiso   1.00
C427   C     0.00007   0.53861   0.99908   0.00000  Uiso   1.00
C428   C     0.12881   0.59346   0.88955   0.00000  Uiso   1.00
C429   C     0.13134   0.62582   0.97154   0.00000  Uiso   1.00
C430   C     0.13596   0.65304   0.87468   0.00000  Uiso   1.00
C431   C     0.13763   0.68027   0.97481   0.00000  Uiso   1.00
C432   C     0.15367   0.57403   0.98294   0.00000  Uiso   1.00
C433   C     0.17705   0.55771   0.89565   0.00000  Uiso   1.00
C434   C     0.19752   0.54135   0.00536   0.00000  Uiso   1.00
C435   C     0.09783   0.58051   0.95404   0.00000  Uiso   1.00
C436   C     0.07427   0.56963   0.84246   0.00000  Uiso   1.00
C437   C     0.04773   0.55872   0.92785   0.00000  Uiso   1.00
H438   H     0.12136   0.59342   0.38761   0.00000  Uiso   1.00
H439   H     0.12797   0.65298   0.40910   0.00000  Uiso   1.00
H440   H     0.16905   0.55766   0.43005   0.00000  Uiso   1.00
H441   H     0.06629   0.56958   0.37687   0.00000  Uiso   1.00
H442   H     0.13655   0.71902   0.34907   0.00000  Uiso   1.00
H443   H     0.22318   0.51803   0.39327   0.00000  Uiso   1.00
H444   H     0.00648   0.54317   0.28113   0.00000  Uiso   1.00
H445   H     0.13103   0.59348   0.74153   0.00000  Uiso   1.00
H446   H     0.13816   0.65304   0.72755   0.00000  Uiso   1.00
H447   H     0.17925   0.55773   0.74852   0.00000  Uiso   1.00
H448   H     0.07648   0.56965   0.69534   0.00000  Uiso   1.00
H449   H     0.14482   0.71907   0.79591   0.00000  Uiso   1.00
H450   H     0.23145   0.51809   0.84011   0.00000  Uiso   1.00
H451   H     0.01475   0.54322   0.72797   0.00000  Uiso   1.00
O452   O     0.14521   0.75823   0.07496   0.00000  Uiso   1.00
O453   O     0.25886   0.49454   0.13295   0.00000  Uiso   1.00
O454   O     0.97456   0.52752   0.98582   0.00000  Uiso   1.00
N455   N     0.13751   0.71086   0.22080   0.00000  Uiso   1.00
N456   N     0.21851   0.52295   0.26212   0.00000  Uiso   1.00
N457   N     0.01592   0.54645   0.15728   0.00000  Uiso   1.00
N458   N     0.14196   0.71089   0.92315   0.00000  Uiso   1.00
N459   N     0.22296   0.52298   0.96447   0.00000  Uiso   1.00
N460   N     0.02037   0.54648   0.85963   0.00000  Uiso   1.00
C461   C     0.87642   0.40657   0.23959   0.00000  Uiso   1.00
C462   C     0.87150   0.37420   0.16167   0.00000  Uiso   1.00
C463   C     0.86984   0.34700   0.26196   0.00000  Uiso   1.00
C464   C     0.86522   0.31975   0.16528   0.00000  Uiso   1.00
C465   C     0.85799   0.26949   0.07322   0.00000  Uiso   1.00
C466   C     0.84917   0.42598   0.17306   0.00000  Uiso   1.00
C467   C     0.82874   0.44233   0.28293   0.00000  Uiso   1.00
C468   C     0.80533   0.45867   0.19583   0.00000  Uiso   1.00
C469   C     0.76345   0.48882   0.12144   0.00000  Uiso   1.00
C470   C     0.90501   0.41950   0.14417   0.00000  Uiso   1.00
C471   C     0.93152   0.43041   0.22974   0.00000  Uiso   1.00
C472   C     0.95512   0.44130   0.11832   0.00000  Uiso   1.00
C473   C     0.99993   0.46139   0.99908   0.00000  Uiso   1.00
C474   C     0.87119   0.40654   0.88955   0.00000  Uiso   1.00
C475   C     0.86866   0.37418   0.97154   0.00000  Uiso   1.00
C476   C     0.86404   0.34696   0.87468   0.00000  Uiso   1.00
C477   C     0.86237   0.31973   0.97481   0.00000  Uiso   1.00
C478   C     0.84633   0.42597   0.98294   0.00000  Uiso   1.00
C479   C     0.82295   0.44229   0.89565   0.00000  Uiso   1.00
C480   C     0.80248   0.45865   0.00536   0.00000  Uiso   1.00
C481   C     0.90217   0.41949   0.95404   0.00000  Uiso   1.00
C482   C     0.92573   0.43037   0.84246   0.00000  Uiso   1.00
C483   C     0.95227   0.44128   0.92785   0.00000  Uiso   1.00
H484   H     0.87864   0.40658   0.38761   0.00000  Uiso   1.00
H485   H     0.87203   0.34702   0.40910   0.00000  Uiso   1.00
H486   H     0.83095   0.44234   0.43005   0.00000  Uiso   1.00
H487   H     0.93371   0.43042   0.37687   0.00000  Uiso   1.00
H488   H     0.86345   0.28098   0.34907   0.00000  Uiso   1.00
H489   H     0.77682   0.48197   0.39327   0.00000  Uiso   1.00
H490   H     0.99352   0.45683   0.28113   0.00000  Uiso   1.00
H491   H     0.86897   0.40652   0.74153   0.00000  Uiso   1.00
H492   H     0.86184   0.34696   0.72755   0.00000  Uiso   1.00
H493   H     0.82075   0.44227   0.74852   0.00000  Uiso   1.00
H494   H     0.92352   0.43035   0.69534   0.00000  Uiso   1.00
H495   H     0.85518   0.28093   0.79591   0.00000  Uiso   1.00
H496   H     0.76855   0.48191   0.84011   0.00000  Uiso   1.00
H497   H     0.98525   0.45678   0.72797   0.00000  Uiso   1.00
O498   O     0.85479   0.24177   0.07496   0.00000  Uiso   1.00
O499   O     0.74114   0.50546   0.13295   0.00000  Uiso   1.00
O500   O     0.02544   0.47248   0.98582   0.00000  Uiso   1.00
N501   N     0.86249   0.28914   0.22080   0.00000  Uiso   1.00
N502   N     0.78149   0.47705   0.26212   0.00000  Uiso   1.00
N503   N     0.98408   0.45355   0.15728   0.00000  Uiso   1.00
N504   N     0.85804   0.28911   0.92315   0.00000  Uiso   1.00
N505   N     0.77704   0.47702   0.96447   0.00000  Uiso   1.00
N506   N     0.97963   0.45352   0.85963   0.00000  Uiso   1.00
C507   C     0.37642   0.90657   0.73959   0.00000  Uiso   1.00
C508   C     0.37150   0.87420   0.66167   0.00000  Uiso   1.00
C509   C     0.36984   0.84700   0.76196   0.00000  Uiso   1.00
C510   C     0.36522   0.81975   0.66528   0.00000  Uiso   1.00
C511   C     0.35799   0.76949   0.57322   0.00000  Uiso   1.00
C512   C     0.34917   0.92598   0.67306   0.00000  Uiso   1.00
C513   C     0.32874   0.94233   0.78293   0.00000  Uiso   1.00
C514   C     0.30533   0.95867   0.69583   0.00000  Uiso   1.00
C515   C     0.26345   0.98882   0.62144   0.00000  Uiso   1.00
C516   C     0.40501   0.91950   0.64417   0.00000  Uiso   1.00
C517   C     0.43152   0.93041   0.72974   0.00000  Uiso   1.00
C518   C     0.45512   0.94130   0.61832   0.00000  Uiso   1.00
C519   C     0.49993   0.96139   0.49908   0.00000  Uiso   1.00
C520   C     0.37119   0.90654   0.38955   0.00000  Uiso   1.00
C521   C     0.36866   0.87418   0.47154   0.00000  Uiso   1.00
C522   C     0.36404   0.84696   0.37468   0.00000  Uiso   1.00
C523   C     0.36237   0.81973   0.47481   0.00000  Uiso   1.00
C524   C     0.34633   0.92597   0.48294   0.00000  Uiso   1.00
C525   C     0.32295   0.94229   0.39565   0.00000  Uiso   1.00
C526   C     0.30248   0.95865   0.50536   0.00000  Uiso   1.00
C527   C     0.40217   0.91949   0.45404   0.00000  Uiso   1.00
C528   C     0.42573   0.93037   0.34246   0.00000  Uiso   1.00
C529   C     0.45227   0.94128   0.42785   0.00000  Uiso   1.00
H530   H     0.37864   0.90658   0.88761   0.00000  Uiso   1.00
H531   H     0.37203   0.84702   0.90910   0.00000  Uiso   1.00
H532   H     0.33095   0.94234   0.93005   0.00000  Uiso   1.00
H533   H     0.43371   0.93042   0.87687   0.00000  Uiso   1.00
H534   H     0.36345   0.78098   0.84907   0.00000  Uiso   1.00
H535   H     0.27682   0.98197   0.89327   0.00000  Uiso   1.00
H536   H     0.49352   0.95683   0.78113   0.00000  Uiso   1.00
H537   H     0.36897   0.90652   0.24153   0.00000  Uiso   1.00
H538   H     0.36184   0.84696   0.22755   0.00000  Uiso   1.00
H539   H     0.32075   0.94227   0.24852   0.00000  Uiso   1.00
H540   H     0.42352   0.93035   0.19534   0.00000  Uiso   1.00
H541   H     0.35518   0.78093   0.29591   0.00000  Uiso   1.00
H542   H     0.26855   0.98191   0.34011   0.00000  Uiso   1.00
H543   H     0.48525   0.95678   0.22797   0.00000  Uiso   1.00
O544   O     0.35479   0.74177   0.57496   0.00000  Uiso   1.00
O545   O     0.24114   0.00546   0.63295   0.00000  Uiso   1.00
O546   O     0.52544   0.97248   0.48582   0.00000  Uiso   1.00
N547   N     0.36249   0.78914   0.72080   0.00000  Uiso   1.00
N548   N     0.28149   0.97705   0.76212   0.00000  Uiso   1.00
N549   N     0.48408   0.95355   0.65728   0.00000  Uiso   1.00
N550   N     0.35804   0.78911   0.42315   0.00000  Uiso   1.00
N551   N     0.27704   0.97702   0.46447   0.00000  Uiso   1.00
N552   N     0.47963   0.95352   0.35963   0.00000  Uiso   1.00
C553   C     0.40657   0.62358   0.48959   0.00000  Uiso   1.00
C554   C     0.37420   0.62850   0.41167   0.00000  Uiso   1.00
C555   C     0.34700   0.63016   0.51196   0.00000  Uiso   1.00
C556   C     0.31975   0.63478   0.41528   0.00000  Uiso   1.00
C557   C     0.26949   0.64201   0.32322   0.00000  Uiso   1.00
C558   C     0.42598   0.65083   0.42306   0.00000  Uiso   1.00
C559   C     0.44233   0.67126   0.53293   0.00000  Uiso   1.00
C560   C     0.45867   0.69467   0.44583   0.00000  Uiso   1.00
C561   C     0.48882   0.73655   0.37144   0.00000  Uiso   1.00
C562   C     0.41950   0.59499   0.39417   0.00000  Uiso   1.00
C563   C     0.43041   0.56848   0.47974   0.00000  Uiso   1.00
C564   C     0.44130   0.54488   0.36832   0.00000  Uiso   1.00
C565   C     0.46139   0.50007   0.24908   0.00000  Uiso   1.00
C566   C     0.40654   0.62881   0.13955   0.00000  Uiso   1.00
C567   C     0.37418   0.63134   0.22154   0.00000  Uiso   1.00
C568   C     0.34696   0.63596   0.12468   0.00000  Uiso   1.00
C569   C     0.31973   0.63763   0.22481   0.00000  Uiso   1.00
C570   C     0.42597   0.65367   0.23294   0.00000  Uiso   1.00
C571   C     0.44229   0.67705   0.14565   0.00000  Uiso   1.00
C572   C     0.45865   0.69752   0.25536   0.00000  Uiso   1.00
C573   C     0.41949   0.59783   0.20404   0.00000  Uiso   1.00
C574   C     0.43037   0.57427   0.09246   0.00000  Uiso   1.00
C575   C     0.44128   0.54773   0.17785   0.00000  Uiso   1.00
H576   H     0.40658   0.62136   0.63761   0.00000  Uiso   1.00
H577   H     0.34702   0.62797   0.65910   0.00000  Uiso   1.00
H578   H     0.44234   0.66905   0.68005   0.00000  Uiso   1.00
H579   H     0.43042   0.56629   0.62687   0.00000  Uiso   1.00
H580   H     0.28098   0.63655   0.59907   0.00000  Uiso   1.00
H581   H     0.48197   0.72318   0.64327   0.00000  Uiso   1.00
H582   H     0.45683   0.50648   0.53113   0.00000  Uiso   1.00
H583   H     0.40652   0.63103   0.99153   0.00000  Uiso   1.00
H584   H     0.34696   0.63816   0.97755   0.00000  Uiso   1.00
H585   H     0.44227   0.67925   0.99852   0.00000  Uiso   1.00
H586   H     0.43035   0.57648   0.94534   0.00000  Uiso   1.00
H587   H     0.28093   0.64482   0.04591   0.00000  Uiso   1.00
H588   H     0.48191   0.73145   0.09011   0.00000  Uiso   1.00
H589   H     0.45678   0.51475   0.97797   0.00000  Uiso   1.00
O590   O     0.24177   0.64521   0.32496   0.00000  Uiso   1.00
O591   O     0.50546   0.75886   0.38295   0.00000  Uiso   1.00
O592   O     0.47248   0.47456   0.23582   0.00000  Uiso   1.00
N593   N     0.28914   0.63751   0.47080   0.00000  Uiso   1.00
N594   N     0.47705   0.71851   0.51212   0.00000  Uiso   1.00
N595   N     0.45355   0.51592   0.40728   0.00000  Uiso   1.00
N596   N     0.28911   0.64196   0.17315   0.00000  Uiso   1.00
N597   N     0.47702   0.72296   0.21447   0.00000  Uiso   1.00
N598   N     0.45352   0.52037   0.10963   0.00000  Uiso   1.00
C599   C     0.90657   0.12358   0.98959   0.00000  Uiso   1.00
C600   C     0.87420   0.12850   0.91167   0.00000  Uiso   1.00
C601   C     0.84700   0.13016   0.01196   0.00000  Uiso   1.00
C602   C     0.81975   0.13478   0.91528   0.00000  Uiso   1.00
C603   C     0.76949   0.14201   0.82322   0.00000  Uiso   1.00
C604   C     0.92598   0.15083   0.92306   0.00000  Uiso   1.00
C605   C     0.94233   0.17126   0.03293   0.00000  Uiso   1.00
C606   C     0.95867   0.19467   0.94583   0.00000  Uiso   1.00
C607   C     0.98882   0.23655   0.87144   0.00000  Uiso   1.00
C608   C     0.91950   0.09499   0.89417   0.00000  Uiso   1.00
C609   C     0.93041   0.06848   0.97974   0.00000  Uiso   1.00
C610   C     0.94130   0.04488   0.86832   0.00000  Uiso   1.00
C611   C     0.96139   0.00007   0.74908   0.00000  Uiso   1.00
C612   C     0.90654   0.12881   0.63955   0.00000  Uiso   1.00
C613   C     0.87418   0.13134   0.72154   0.00000  Uiso   1.00
C614   C     0.84696   0.13596   0.62468   0.00000  Uiso   1.00
C615   C     0.81973   0.13763   0.72481   0.00000  Uiso   1.00
C616   C     0.92597   0.15367   0.73294   0.00000  Uiso   1.00
C617   C     0.94229   0.17705   0.64565   0.00000  Uiso   1.00
C618   C     0.95865   0.19752   0.75536   0.00000  Uiso   1.00
C619   C     0.91949   0.09783   0.70404   0.00000  Uiso   1.00
C620   C     0.93037   0.07427   0.59246   0.00000  Uiso   1.00
C621   C     0.94128   0.04773   0.67785   0.00000  Uiso   1.00
H622   H     0.90658   0.12136   0.13761   0.00000  Uiso   1.00
H623   H     0.84702   0.12797   0.15910   0.00000  Uiso   1.00
H624   H     0.94234   0.16905   0.18005   0.00000  Uiso   1.00
H625   H     0.93042   0.06629   0.12687   0.00000  Uiso   1.00
H626   H     0.78098   0.13655   0.09907   0.00000  Uiso   1.00
H627   H     0.98197   0.22318   0.14327   0.00000  Uiso   1.00
H628   H     0.95683   0.00648   0.03113   0.00000  Uiso   1.00
H629   H     0.90652   0.13103   0.49153   0.00000  Uiso   1.00
H630   H     0.84696   0.13816   0.47755   0.00000  Uiso   1.00
H631   H     0.94227   0.17925   0.49852   0.00000  Uiso   1.00
H632   H     0.93035   0.07648   0.44534   0.00000  Uiso   1.00
H633   H     0.78093   0.14482   0.54591   0.00000  Uiso   1.00
H634   H     0.98191   0.23145   0.59011   0.00000  Uiso   1.00
H635   H     0.95678   0.01475   0.47797   0.00000  Uiso   1.00
O636   O     0.74177   0.14521   0.82496   0.00000  Uiso   1.00
O637   O     0.00546   0.25886   0.88295   0.00000  Uiso   1.00
O638   O     0.97248   0.97456   0.73582   0.00000  Uiso   1.00
N639   N     0.78914   0.13751   0.97080   0.00000  Uiso   1.00
N640   N     0.97705   0.21851   0.01212   0.00000  Uiso   1.00
N641   N     0.95355   0.01592   0.90728   0.00000  Uiso   1.00
N642   N     0.78911   0.14196   0.67315   0.00000  Uiso   1.00
N643   N     0.97702   0.22296   0.71447   0.00000  Uiso   1.00
N644   N     0.95352   0.02037   0.60963   0.00000  Uiso   1.00
C645   C     0.09343   0.87642   0.98959   0.00000  Uiso   1.00
C646   C     0.12580   0.87150   0.91167   0.00000  Uiso   1.00
C647   C     0.15300   0.86984   0.01196   0.00000  Uiso   1.00
C648   C     0.18025   0.86522   0.91528   0.00000  Uiso   1.00
C649   C     0.23051   0.85799   0.82322   0.00000  Uiso   1.00
C650   C     0.07402   0.84917   0.92306   0.00000  Uiso   1.00
C651   C     0.05767   0.82874   0.03293   0.00000  Uiso   1.00
C652   C     0.04133   0.80533   0.94583   0.00000  Uiso   1.00
C653   C     0.01118   0.76345   0.87144   0.00000  Uiso   1.00
C654   C     0.08050   0.90501   0.89417   0.00000  Uiso   1.00
C655   C     0.06959   0.93152   0.97974   0.00000  Uiso   1.00
C656   C     0.05870   0.95512   0.86832   0.00000  Uiso   1.00
C657   C     0.03861   0.99993   0.74908   0.00000  Uiso   1.00
C658   C     0.09346   0.87119   0.63955   0.00000  Uiso   1.00
C659   C     0.12582   0.86866   0.72154   0.00000  Uiso   1.00
C660   C     0.15304   0.86404   0.62468   0.00000  Uiso   1.00
C661   C     0.18027   0.86237   0.72481   0.00000  Uiso   1.00
C662   C     0.07403   0.84633   0.73294   0.00000  Uiso   1.00
C663   C     0.05771   0.82295   0.64565   0.00000  Uiso   1.00
C664   C     0.04135   0.80248   0.75536   0.00000  Uiso   1.00
C665   C     0.08051   0.90217   0.70404   0.00000  Uiso   1.00
C666   C     0.06963   0.92573   0.59246   0.00000  Uiso   1.00
C667   C     0.05872   0.95227   0.67785   0.00000  Uiso   1.00
H668   H     0.09342   0.87864   0.13761   0.00000  Uiso   1.00
H669   H     0.15298   0.87203   0.15910   0.00000  Uiso   1.00
H670   H     0.05766   0.83095   0.18005   0.00000  Uiso   1.00
H671   H     0.06958   0.93371   0.12687   0.00000  Uiso   1.00
H672   H     0.21902   0.86345   0.09907   0.00000  Uiso   1.00
H673   H     0.01803   0.77682   0.14327   0.00000  Uiso   1.00
H674   H     0.04317   0.99352   0.03113   0.00000  Uiso   1.00
H675   H     0.09348   0.86897   0.49153   0.00000  Uiso   1.00
H676   H     0.15304   0.86184   0.47755   0.00000  Uiso   1.00
H677   H     0.05773   0.82075   0.49852   0.00000  Uiso   1.00
H678   H     0.06965   0.92352   0.44534   0.00000  Uiso   1.00
H679   H     0.21907   0.85518   0.54591   0.00000  Uiso   1.00
H680   H     0.01809   0.76855   0.59011   0.00000  Uiso   1.00
H681   H     0.04322   0.98525   0.47797   0.00000  Uiso   1.00
O682   O     0.25823   0.85479   0.82496   0.00000  Uiso   1.00
O683   O     0.99454   0.74114   0.88295   0.00000  Uiso   1.00
O684   O     0.02752   0.02544   0.73582   0.00000  Uiso   1.00
N685   N     0.21086   0.86249   0.97080   0.00000  Uiso   1.00
N686   N     0.02295   0.78149   0.01212   0.00000  Uiso   1.00
N687   N     0.04645   0.98408   0.90728   0.00000  Uiso   1.00
N688   N     0.21089   0.85804   0.67315   0.00000  Uiso   1.00
N689   N     0.02298   0.77704   0.71447   0.00000  Uiso   1.00
N690   N     0.04648   0.97963   0.60963   0.00000  Uiso   1.00
C691   C     0.59343   0.37642   0.48959   0.00000  Uiso   1.00
C692   C     0.62580   0.37150   0.41167   0.00000  Uiso   1.00
C693   C     0.65300   0.36984   0.51196   0.00000  Uiso   1.00
C694   C     0.68025   0.36522   0.41528   0.00000  Uiso   1.00
C695   C     0.73051   0.35799   0.32322   0.00000  Uiso   1.00
C696   C     0.57402   0.34917   0.42306   0.00000  Uiso   1.00
C697   C     0.55767   0.32874   0.53293   0.00000  Uiso   1.00
C698   C     0.54133   0.30533   0.44583   0.00000  Uiso   1.00
C699   C     0.51118   0.26345   0.37144   0.00000  Uiso   1.00
C700   C     0.58050   0.40501   0.39417   0.00000  Uiso   1.00
C701   C     0.56959   0.43152   0.47974   0.00000  Uiso   1.00
C702   C     0.55870   0.45512   0.36832   0.00000  Uiso   1.00
C703   C     0.53861   0.49993   0.24908   0.00000  Uiso   1.00
C704   C     0.59346   0.37119   0.13955   0.00000  Uiso   1.00
C705   C     0.62582   0.36866   0.22154   0.00000  Uiso   1.00
C706   C     0.65304   0.36404   0.12468   0.00000  Uiso   1.00
C707   C     0.68027   0.36237   0.22481   0.00000  Uiso   1.00
C708   C     0.57403   0.34633   0.23294   0.00000  Uiso   1.00
C709   C     0.55771   0.32295   0.14565   0.00000  Uiso   1.00
C710   C     0.54135   0.30248   0.25536   0.00000  Uiso   1.00
C711   C     0.58051   0.40217   0.20404   0.00000  Uiso   1.00
C712   C     0.56963   0.42573   0.09246   0.00000  Uiso   1.00
C713   C     0.55872   0.45227   0.17785   0.00000  Uiso   1.00
H714   H     0.59342   0.37864   0.63761   0.00000  Uiso   1.00
H715   H     0.65298   0.37203   0.65910   0.00000  Uiso   1.00
H716   H     0.55766   0.33095   0.68005   0.00000  Uiso   1.00
H717   H     0.56958   0.43371   0.62687   0.00000  Uiso   1.00
H718   H     0.71902   0.36345   0.59907   0.00000  Uiso   1.00
H719   H     0.51803   0.27682   0.64327   0.00000  Uiso   1.00
H720   H     0.54317   0.49352   0.53113   0.00000  Uiso   1.00
H721   H     0.59348   0.36897   0.99153   0.00000  Uiso   1.00
H722   H     0.65304   0.36184   0.97755   0.00000  Uiso   1.00
H723   H     0.55773   0.32075   0.99852   0.00000  Uiso   1.00
H724   H     0.56965   0.42352   0.94534   0.00000  Uiso   1.00
H725   H     0.71907   0.35518   0.04591   0.00000  Uiso   1.00
H726   H     0.51809   0.26855   0.09011   0.00000  Uiso   1.00
H727   H     0.54322   0.48525   0.97797   0.00000  Uiso   1.00
O728   O     0.75823   0.35479   0.32496   0.00000  Uiso   1.00
O729   O     0.49454   0.24114   0.38295   0.00000  Uiso   1.00
O730   O     0.52752   0.52544   0.23582   0.00000  Uiso   1.00
N731   N     0.71086   0.36249   0.47080   0.00000  Uiso   1.00
N732   N     0.52295   0.28149   0.51212   0.00000  Uiso   1.00
N733   N     0.54645   0.48408   0.40728   0.00000  Uiso   1.00
N734   N     0.71089   0.35804   0.17315   0.00000  Uiso   1.00
N735   N     0.52298   0.27704   0.21447   0.00000  Uiso   1.00
N736   N     0.54648   0.47963   0.10963   0.00000  Uiso   1.00
