data_job_05370
_audit_creation_date              2018-12-19
_audit_creation_method            'Materials Studio'
_symmetry_space_group_name_H-M    'P1'
_symmetry_Int_Tables_number       1
_symmetry_cell_setting            triclinic
loop_
_symmetry_equiv_pos_as_xyz
  x,y,z
_cell_length_a                    34.5271
_cell_length_b                    42.3803
_cell_length_c                    7.0278
_cell_angle_alpha                 90.0000
_cell_angle_beta                  90.0000
_cell_angle_gamma                 90.0000
loop_
_atom_site_label
_atom_site_type_symbol
_atom_site_fract_x
_atom_site_fract_y
_atom_site_fract_z
_atom_site_U_iso_or_equiv
_atom_site_adp_type
_atom_site_occupancy
C1     C     0.21676   0.13268   0.19289   0.00000  Uiso   1.00
C2     C     0.25383   0.14973   0.25062   0.00000  Uiso   1.00
C3     C     0.28363   0.15842   0.12889   0.00000  Uiso   1.00
C4     C     0.31510   0.17383   0.20942   0.00000  Uiso   1.00
C5     C     0.37244   0.19931   0.26937   0.00000  Uiso   1.00
C6     C     0.21499   0.10293   0.31461   0.00000  Uiso   1.00
C7     C     0.21212   0.07227   0.24668   0.00000  Uiso   1.00
C8     C     0.21090   0.04828   0.38108   0.00000  Uiso   1.00
C9     C     0.20790   0.00109   0.54038   0.00000  Uiso   1.00
C10    C     0.18345   0.15354   0.25980   0.00000  Uiso   1.00
C11    C     0.15405   0.16542   0.14578   0.00000  Uiso   1.00
C12    C     0.12626   0.18404   0.23405   0.00000  Uiso   1.00
C13    C     0.07429   0.21544   0.30824   0.00000  Uiso   1.00
C14    C     0.21967   0.14459   0.55238   0.00000  Uiso   1.00
C15    C     0.25541   0.15620   0.44589   0.00000  Uiso   1.00
C16    C     0.28685   0.17160   0.52662   0.00000  Uiso   1.00
C17    C     0.31668   0.18031   0.40503   0.00000  Uiso   1.00
C18    C     0.21657   0.10939   0.50987   0.00000  Uiso   1.00
C19    C     0.21535   0.08544   0.64441   0.00000  Uiso   1.00
C20    C     0.21248   0.05476   0.57669   0.00000  Uiso   1.00
C21    C     0.18503   0.16001   0.45506   0.00000  Uiso   1.00
C22    C     0.15728   0.17860   0.54352   0.00000  Uiso   1.00
C23    C     0.12784   0.19052   0.42966   0.00000  Uiso   1.00
H24    H     0.21553   0.12764   0.04088   0.00000  Uiso   1.00
H25    H     0.28239   0.15341   0.97779   0.00000  Uiso   1.00
H26    H     0.21090   0.06727   0.09557   0.00000  Uiso   1.00
H27    H     0.15284   0.16041   0.99469   0.00000  Uiso   1.00
H28    H     0.35723   0.18482   0.99397   0.00000  Uiso   1.00
H29    H     0.20646   0.00319   0.24230   0.00000  Uiso   1.00
H30    H     0.08403   0.19960   0.02958   0.00000  Uiso   1.00
H31    H     0.22090   0.14962   0.70441   0.00000  Uiso   1.00
H32    H     0.28806   0.17660   0.67773   0.00000  Uiso   1.00
H33    H     0.21657   0.09046   0.79550   0.00000  Uiso   1.00
H34    H     0.15851   0.18360   0.69462   0.00000  Uiso   1.00
H35    H     0.36184   0.20365   0.56207   0.00000  Uiso   1.00
H36    H     0.21107   0.02201   0.81039   0.00000  Uiso   1.00
H37    H     0.08864   0.21843   0.59768   0.00000  Uiso   1.00
O38    O     0.40363   0.21158   0.24851   0.00000  Uiso   1.00
O39    O     0.20582   0.97328   0.57430   0.00000  Uiso   1.00
O40    O     0.04519   0.23097   0.29522   0.00000  Uiso   1.00
N41    N     0.34910   0.18556   0.13132   0.00000  Uiso   1.00
N42    N     0.20814   0.01574   0.36350   0.00000  Uiso   1.00
N43    N     0.09367   0.19936   0.16463   0.00000  Uiso   1.00
N44    N     0.35157   0.19569   0.43701   0.00000  Uiso   1.00
N45    N     0.21062   0.02587   0.66919   0.00000  Uiso   1.00
N46    N     0.09615   0.20949   0.47032   0.00000  Uiso   1.00
C47    C     0.21676   0.63268   0.69289   0.00000  Uiso   1.00
C48    C     0.25383   0.64973   0.75062   0.00000  Uiso   1.00
C49    C     0.28363   0.65842   0.62889   0.00000  Uiso   1.00
C50    C     0.31510   0.67383   0.70942   0.00000  Uiso   1.00
C51    C     0.37244   0.69931   0.76937   0.00000  Uiso   1.00
C52    C     0.21499   0.60293   0.81461   0.00000  Uiso   1.00
C53    C     0.21212   0.57227   0.74668   0.00000  Uiso   1.00
C54    C     0.21090   0.54828   0.88108   0.00000  Uiso   1.00
C55    C     0.20790   0.50109   0.04038   0.00000  Uiso   1.00
C56    C     0.18345   0.65354   0.75980   0.00000  Uiso   1.00
C57    C     0.15405   0.66542   0.64578   0.00000  Uiso   1.00
C58    C     0.12626   0.68404   0.73405   0.00000  Uiso   1.00
C59    C     0.07429   0.71544   0.80824   0.00000  Uiso   1.00
C60    C     0.21967   0.64459   0.05238   0.00000  Uiso   1.00
C61    C     0.25541   0.65620   0.94589   0.00000  Uiso   1.00
C62    C     0.28685   0.67160   0.02662   0.00000  Uiso   1.00
C63    C     0.31668   0.68031   0.90503   0.00000  Uiso   1.00
C64    C     0.21657   0.60939   0.00987   0.00000  Uiso   1.00
C65    C     0.21535   0.58544   0.14441   0.00000  Uiso   1.00
C66    C     0.21248   0.55476   0.07669   0.00000  Uiso   1.00
C67    C     0.18503   0.66001   0.95506   0.00000  Uiso   1.00
C68    C     0.15728   0.67860   0.04352   0.00000  Uiso   1.00
C69    C     0.12784   0.69052   0.92966   0.00000  Uiso   1.00
H70    H     0.21553   0.62764   0.54088   0.00000  Uiso   1.00
H71    H     0.28239   0.65341   0.47779   0.00000  Uiso   1.00
H72    H     0.21090   0.56727   0.59557   0.00000  Uiso   1.00
H73    H     0.15284   0.66041   0.49469   0.00000  Uiso   1.00
H74    H     0.35723   0.68482   0.49397   0.00000  Uiso   1.00
H75    H     0.20646   0.50319   0.74230   0.00000  Uiso   1.00
H76    H     0.08403   0.69960   0.52958   0.00000  Uiso   1.00
H77    H     0.22090   0.64962   0.20441   0.00000  Uiso   1.00
H78    H     0.28806   0.67660   0.17773   0.00000  Uiso   1.00
H79    H     0.21657   0.59046   0.29550   0.00000  Uiso   1.00
H80    H     0.15851   0.68360   0.19462   0.00000  Uiso   1.00
H81    H     0.36184   0.70365   0.06207   0.00000  Uiso   1.00
H82    H     0.21107   0.52201   0.31039   0.00000  Uiso   1.00
H83    H     0.08864   0.71843   0.09768   0.00000  Uiso   1.00
O84    O     0.40363   0.71158   0.74851   0.00000  Uiso   1.00
O85    O     0.20582   0.47328   0.07430   0.00000  Uiso   1.00
O86    O     0.04519   0.73097   0.79522   0.00000  Uiso   1.00
N87    N     0.34910   0.68556   0.63132   0.00000  Uiso   1.00
N88    N     0.20814   0.51574   0.86350   0.00000  Uiso   1.00
N89    N     0.09367   0.69936   0.66463   0.00000  Uiso   1.00
N90    N     0.35157   0.69569   0.93701   0.00000  Uiso   1.00
N91    N     0.21062   0.52587   0.16919   0.00000  Uiso   1.00
N92    N     0.09615   0.70949   0.97032   0.00000  Uiso   1.00
C93    C     0.71676   0.13268   0.69289   0.00000  Uiso   1.00
C94    C     0.75383   0.14973   0.75062   0.00000  Uiso   1.00
C95    C     0.78363   0.15842   0.62889   0.00000  Uiso   1.00
C96    C     0.81510   0.17383   0.70942   0.00000  Uiso   1.00
C97    C     0.87244   0.19931   0.76937   0.00000  Uiso   1.00
C98    C     0.71499   0.10293   0.81461   0.00000  Uiso   1.00
C99    C     0.71212   0.07227   0.74668   0.00000  Uiso   1.00
C100   C     0.71090   0.04828   0.88108   0.00000  Uiso   1.00
C101   C     0.70790   0.00109   0.04038   0.00000  Uiso   1.00
C102   C     0.68345   0.15354   0.75980   0.00000  Uiso   1.00
C103   C     0.65405   0.16542   0.64578   0.00000  Uiso   1.00
C104   C     0.62626   0.18404   0.73405   0.00000  Uiso   1.00
C105   C     0.57429   0.21544   0.80824   0.00000  Uiso   1.00
C106   C     0.71967   0.14459   0.05238   0.00000  Uiso   1.00
C107   C     0.75541   0.15620   0.94589   0.00000  Uiso   1.00
C108   C     0.78685   0.17160   0.02662   0.00000  Uiso   1.00
C109   C     0.81668   0.18031   0.90503   0.00000  Uiso   1.00
C110   C     0.71657   0.10939   0.00987   0.00000  Uiso   1.00
C111   C     0.71535   0.08544   0.14441   0.00000  Uiso   1.00
C112   C     0.71248   0.05476   0.07669   0.00000  Uiso   1.00
C113   C     0.68503   0.16001   0.95506   0.00000  Uiso   1.00
C114   C     0.65728   0.17860   0.04352   0.00000  Uiso   1.00
C115   C     0.62784   0.19052   0.92966   0.00000  Uiso   1.00
H116   H     0.71553   0.12764   0.54088   0.00000  Uiso   1.00
H117   H     0.78239   0.15341   0.47779   0.00000  Uiso   1.00
H118   H     0.71090   0.06727   0.59557   0.00000  Uiso   1.00
H119   H     0.65284   0.16041   0.49469   0.00000  Uiso   1.00
H120   H     0.85723   0.18482   0.49397   0.00000  Uiso   1.00
H121   H     0.70646   0.00319   0.74230   0.00000  Uiso   1.00
H122   H     0.58403   0.19960   0.52958   0.00000  Uiso   1.00
H123   H     0.72090   0.14962   0.20441   0.00000  Uiso   1.00
H124   H     0.78806   0.17660   0.17773   0.00000  Uiso   1.00
H125   H     0.71657   0.09046   0.29550   0.00000  Uiso   1.00
H126   H     0.65851   0.18360   0.19462   0.00000  Uiso   1.00
H127   H     0.86184   0.20365   0.06207   0.00000  Uiso   1.00
H128   H     0.71107   0.02201   0.31039   0.00000  Uiso   1.00
H129   H     0.58864   0.21843   0.09768   0.00000  Uiso   1.00
O130   O     0.90363   0.21158   0.74851   0.00000  Uiso   1.00
O131   O     0.70582   0.97328   0.07430   0.00000  Uiso   1.00
O132   O     0.54519   0.23097   0.79522   0.00000  Uiso   1.00
N133   N     0.84910   0.18556   0.63132   0.00000  Uiso   1.00
N134   N     0.70814   0.01574   0.86350   0.00000  Uiso   1.00
N135   N     0.59367   0.19936   0.66463   0.00000  Uiso   1.00
N136   N     0.85157   0.19569   0.93701   0.00000  Uiso   1.00
N137   N     0.71062   0.02587   0.16919   0.00000  Uiso   1.00
N138   N     0.59615   0.20949   0.97032   0.00000  Uiso   1.00
C139   C     0.71676   0.63268   0.19289   0.00000  Uiso   1.00
C140   C     0.75383   0.64973   0.25062   0.00000  Uiso   1.00
C141   C     0.78363   0.65842   0.12889   0.00000  Uiso   1.00
C142   C     0.81510   0.67383   0.20942   0.00000  Uiso   1.00
C143   C     0.87244   0.69931   0.26937   0.00000  Uiso   1.00
C144   C     0.71499   0.60293   0.31461   0.00000  Uiso   1.00
C145   C     0.71212   0.57227   0.24668   0.00000  Uiso   1.00
C146   C     0.71090   0.54828   0.38108   0.00000  Uiso   1.00
C147   C     0.70790   0.50109   0.54038   0.00000  Uiso   1.00
C148   C     0.68345   0.65354   0.25980   0.00000  Uiso   1.00
C149   C     0.65405   0.66542   0.14578   0.00000  Uiso   1.00
C150   C     0.62626   0.68404   0.23405   0.00000  Uiso   1.00
C151   C     0.57429   0.71544   0.30824   0.00000  Uiso   1.00
C152   C     0.71967   0.64459   0.55238   0.00000  Uiso   1.00
C153   C     0.75541   0.65620   0.44589   0.00000  Uiso   1.00
C154   C     0.78685   0.67160   0.52662   0.00000  Uiso   1.00
C155   C     0.81668   0.68031   0.40503   0.00000  Uiso   1.00
C156   C     0.71657   0.60939   0.50987   0.00000  Uiso   1.00
C157   C     0.71535   0.58544   0.64441   0.00000  Uiso   1.00
C158   C     0.71248   0.55476   0.57669   0.00000  Uiso   1.00
C159   C     0.68503   0.66001   0.45506   0.00000  Uiso   1.00
C160   C     0.65728   0.67860   0.54352   0.00000  Uiso   1.00
C161   C     0.62784   0.69052   0.42966   0.00000  Uiso   1.00
H162   H     0.71553   0.62764   0.04088   0.00000  Uiso   1.00
H163   H     0.78239   0.65341   0.97779   0.00000  Uiso   1.00
H164   H     0.71090   0.56727   0.09557   0.00000  Uiso   1.00
H165   H     0.65284   0.66041   0.99469   0.00000  Uiso   1.00
H166   H     0.85723   0.68482   0.99397   0.00000  Uiso   1.00
H167   H     0.70646   0.50319   0.24230   0.00000  Uiso   1.00
H168   H     0.58403   0.69960   0.02958   0.00000  Uiso   1.00
H169   H     0.72090   0.64962   0.70441   0.00000  Uiso   1.00
H170   H     0.78806   0.67660   0.67773   0.00000  Uiso   1.00
H171   H     0.71657   0.59046   0.79550   0.00000  Uiso   1.00
H172   H     0.65851   0.68360   0.69462   0.00000  Uiso   1.00
H173   H     0.86184   0.70365   0.56207   0.00000  Uiso   1.00
H174   H     0.71107   0.52201   0.81039   0.00000  Uiso   1.00
H175   H     0.58864   0.71843   0.59768   0.00000  Uiso   1.00
O176   O     0.90363   0.71158   0.24851   0.00000  Uiso   1.00
O177   O     0.70582   0.47328   0.57430   0.00000  Uiso   1.00
O178   O     0.54519   0.73097   0.29522   0.00000  Uiso   1.00
N179   N     0.84910   0.68556   0.13132   0.00000  Uiso   1.00
N180   N     0.70814   0.51574   0.36350   0.00000  Uiso   1.00
N181   N     0.59367   0.69936   0.16463   0.00000  Uiso   1.00
N182   N     0.85157   0.69569   0.43701   0.00000  Uiso   1.00
N183   N     0.71062   0.52587   0.66919   0.00000  Uiso   1.00
N184   N     0.59615   0.70949   0.47032   0.00000  Uiso   1.00
C185   C     0.78324   0.86732   0.19289   0.00000  Uiso   1.00
C186   C     0.74617   0.85027   0.25062   0.00000  Uiso   1.00
C187   C     0.71637   0.84158   0.12889   0.00000  Uiso   1.00
C188   C     0.68490   0.82617   0.20942   0.00000  Uiso   1.00
C189   C     0.62756   0.80069   0.26937   0.00000  Uiso   1.00
C190   C     0.78501   0.89707   0.31461   0.00000  Uiso   1.00
C191   C     0.78788   0.92773   0.24668   0.00000  Uiso   1.00
C192   C     0.78910   0.95172   0.38108   0.00000  Uiso   1.00
C193   C     0.79210   0.99891   0.54038   0.00000  Uiso   1.00
C194   C     0.81655   0.84646   0.25980   0.00000  Uiso   1.00
C195   C     0.84595   0.83458   0.14578   0.00000  Uiso   1.00
C196   C     0.87374   0.81596   0.23405   0.00000  Uiso   1.00
C197   C     0.92571   0.78456   0.30824   0.00000  Uiso   1.00
C198   C     0.78033   0.85541   0.55238   0.00000  Uiso   1.00
C199   C     0.74459   0.84380   0.44589   0.00000  Uiso   1.00
C200   C     0.71315   0.82840   0.52662   0.00000  Uiso   1.00
C201   C     0.68332   0.81969   0.40503   0.00000  Uiso   1.00
C202   C     0.78343   0.89061   0.50987   0.00000  Uiso   1.00
C203   C     0.78465   0.91456   0.64441   0.00000  Uiso   1.00
C204   C     0.78752   0.94524   0.57669   0.00000  Uiso   1.00
C205   C     0.81497   0.83999   0.45506   0.00000  Uiso   1.00
C206   C     0.84272   0.82140   0.54352   0.00000  Uiso   1.00
C207   C     0.87216   0.80948   0.42966   0.00000  Uiso   1.00
H208   H     0.78447   0.87236   0.04088   0.00000  Uiso   1.00
H209   H     0.71761   0.84659   0.97779   0.00000  Uiso   1.00
H210   H     0.78910   0.93273   0.09557   0.00000  Uiso   1.00
H211   H     0.84716   0.83959   0.99469   0.00000  Uiso   1.00
H212   H     0.64277   0.81518   0.99397   0.00000  Uiso   1.00
H213   H     0.79354   0.99681   0.24230   0.00000  Uiso   1.00
H214   H     0.91597   0.80040   0.02958   0.00000  Uiso   1.00
H215   H     0.77910   0.85038   0.70441   0.00000  Uiso   1.00
H216   H     0.71194   0.82340   0.67773   0.00000  Uiso   1.00
H217   H     0.78343   0.90954   0.79550   0.00000  Uiso   1.00
H218   H     0.84149   0.81640   0.69462   0.00000  Uiso   1.00
H219   H     0.63816   0.79635   0.56207   0.00000  Uiso   1.00
H220   H     0.78893   0.97799   0.81039   0.00000  Uiso   1.00
H221   H     0.91136   0.78157   0.59768   0.00000  Uiso   1.00
O222   O     0.59637   0.78842   0.24851   0.00000  Uiso   1.00
O223   O     0.79418   0.02672   0.57430   0.00000  Uiso   1.00
O224   O     0.95481   0.76903   0.29522   0.00000  Uiso   1.00
N225   N     0.65090   0.81444   0.13132   0.00000  Uiso   1.00
N226   N     0.79186   0.98426   0.36350   0.00000  Uiso   1.00
N227   N     0.90633   0.80064   0.16463   0.00000  Uiso   1.00
N228   N     0.64843   0.80431   0.43701   0.00000  Uiso   1.00
N229   N     0.78938   0.97413   0.66919   0.00000  Uiso   1.00
N230   N     0.90385   0.79051   0.47032   0.00000  Uiso   1.00
C231   C     0.78324   0.36732   0.69289   0.00000  Uiso   1.00
C232   C     0.74617   0.35027   0.75062   0.00000  Uiso   1.00
C233   C     0.71637   0.34158   0.62889   0.00000  Uiso   1.00
C234   C     0.68490   0.32617   0.70942   0.00000  Uiso   1.00
C235   C     0.62756   0.30069   0.76937   0.00000  Uiso   1.00
C236   C     0.78501   0.39707   0.81461   0.00000  Uiso   1.00
C237   C     0.78788   0.42773   0.74668   0.00000  Uiso   1.00
C238   C     0.78910   0.45172   0.88108   0.00000  Uiso   1.00
C239   C     0.79210   0.49891   0.04038   0.00000  Uiso   1.00
C240   C     0.81655   0.34646   0.75980   0.00000  Uiso   1.00
C241   C     0.84595   0.33458   0.64578   0.00000  Uiso   1.00
C242   C     0.87374   0.31596   0.73405   0.00000  Uiso   1.00
C243   C     0.92571   0.28456   0.80824   0.00000  Uiso   1.00
C244   C     0.78033   0.35541   0.05238   0.00000  Uiso   1.00
C245   C     0.74459   0.34380   0.94589   0.00000  Uiso   1.00
C246   C     0.71315   0.32840   0.02662   0.00000  Uiso   1.00
C247   C     0.68332   0.31969   0.90503   0.00000  Uiso   1.00
C248   C     0.78343   0.39061   0.00987   0.00000  Uiso   1.00
C249   C     0.78465   0.41456   0.14441   0.00000  Uiso   1.00
C250   C     0.78752   0.44524   0.07669   0.00000  Uiso   1.00
C251   C     0.81497   0.33999   0.95506   0.00000  Uiso   1.00
C252   C     0.84272   0.32140   0.04352   0.00000  Uiso   1.00
C253   C     0.87216   0.30948   0.92966   0.00000  Uiso   1.00
H254   H     0.78447   0.37236   0.54088   0.00000  Uiso   1.00
H255   H     0.71761   0.34659   0.47779   0.00000  Uiso   1.00
H256   H     0.78910   0.43273   0.59557   0.00000  Uiso   1.00
H257   H     0.84716   0.33959   0.49469   0.00000  Uiso   1.00
H258   H     0.64277   0.31518   0.49397   0.00000  Uiso   1.00
H259   H     0.79354   0.49681   0.74230   0.00000  Uiso   1.00
H260   H     0.91597   0.30040   0.52958   0.00000  Uiso   1.00
H261   H     0.77910   0.35038   0.20441   0.00000  Uiso   1.00
H262   H     0.71194   0.32340   0.17773   0.00000  Uiso   1.00
H263   H     0.78343   0.40954   0.29550   0.00000  Uiso   1.00
H264   H     0.84149   0.31640   0.19462   0.00000  Uiso   1.00
H265   H     0.63816   0.29635   0.06207   0.00000  Uiso   1.00
H266   H     0.78893   0.47799   0.31039   0.00000  Uiso   1.00
H267   H     0.91136   0.28157   0.09768   0.00000  Uiso   1.00
O268   O     0.59637   0.28842   0.74851   0.00000  Uiso   1.00
O269   O     0.79418   0.52672   0.07430   0.00000  Uiso   1.00
O270   O     0.95481   0.26903   0.79522   0.00000  Uiso   1.00
N271   N     0.65090   0.31444   0.63132   0.00000  Uiso   1.00
N272   N     0.79186   0.48426   0.86350   0.00000  Uiso   1.00
N273   N     0.90633   0.30064   0.66463   0.00000  Uiso   1.00
N274   N     0.64843   0.30431   0.93701   0.00000  Uiso   1.00
N275   N     0.78938   0.47413   0.16919   0.00000  Uiso   1.00
N276   N     0.90385   0.29051   0.97032   0.00000  Uiso   1.00
C277   C     0.28324   0.86732   0.69289   0.00000  Uiso   1.00
C278   C     0.24617   0.85027   0.75062   0.00000  Uiso   1.00
C279   C     0.21637   0.84158   0.62889   0.00000  Uiso   1.00
C280   C     0.18490   0.82617   0.70942   0.00000  Uiso   1.00
C281   C     0.12756   0.80069   0.76937   0.00000  Uiso   1.00
C282   C     0.28501   0.89707   0.81461   0.00000  Uiso   1.00
C283   C     0.28788   0.92773   0.74668   0.00000  Uiso   1.00
C284   C     0.28910   0.95172   0.88108   0.00000  Uiso   1.00
C285   C     0.29210   0.99891   0.04038   0.00000  Uiso   1.00
C286   C     0.31655   0.84646   0.75980   0.00000  Uiso   1.00
C287   C     0.34595   0.83458   0.64578   0.00000  Uiso   1.00
C288   C     0.37374   0.81596   0.73405   0.00000  Uiso   1.00
C289   C     0.42571   0.78456   0.80824   0.00000  Uiso   1.00
C290   C     0.28033   0.85541   0.05238   0.00000  Uiso   1.00
C291   C     0.24459   0.84380   0.94589   0.00000  Uiso   1.00
C292   C     0.21315   0.82840   0.02662   0.00000  Uiso   1.00
C293   C     0.18332   0.81969   0.90503   0.00000  Uiso   1.00
C294   C     0.28343   0.89061   0.00987   0.00000  Uiso   1.00
C295   C     0.28465   0.91456   0.14441   0.00000  Uiso   1.00
C296   C     0.28752   0.94524   0.07669   0.00000  Uiso   1.00
C297   C     0.31497   0.83999   0.95506   0.00000  Uiso   1.00
C298   C     0.34272   0.82140   0.04352   0.00000  Uiso   1.00
C299   C     0.37216   0.80948   0.92966   0.00000  Uiso   1.00
H300   H     0.28447   0.87236   0.54088   0.00000  Uiso   1.00
H301   H     0.21761   0.84659   0.47779   0.00000  Uiso   1.00
H302   H     0.28910   0.93273   0.59557   0.00000  Uiso   1.00
H303   H     0.34716   0.83959   0.49469   0.00000  Uiso   1.00
H304   H     0.14277   0.81518   0.49397   0.00000  Uiso   1.00
H305   H     0.29354   0.99681   0.74230   0.00000  Uiso   1.00
H306   H     0.41597   0.80040   0.52958   0.00000  Uiso   1.00
H307   H     0.27910   0.85038   0.20441   0.00000  Uiso   1.00
H308   H     0.21194   0.82340   0.17773   0.00000  Uiso   1.00
H309   H     0.28343   0.90954   0.29550   0.00000  Uiso   1.00
H310   H     0.34149   0.81640   0.19462   0.00000  Uiso   1.00
H311   H     0.13816   0.79635   0.06207   0.00000  Uiso   1.00
H312   H     0.28893   0.97799   0.31039   0.00000  Uiso   1.00
H313   H     0.41136   0.78157   0.09768   0.00000  Uiso   1.00
O314   O     0.09637   0.78842   0.74851   0.00000  Uiso   1.00
O315   O     0.29418   0.02672   0.07430   0.00000  Uiso   1.00
O316   O     0.45481   0.76903   0.79522   0.00000  Uiso   1.00
N317   N     0.15090   0.81444   0.63132   0.00000  Uiso   1.00
N318   N     0.29186   0.98426   0.86350   0.00000  Uiso   1.00
N319   N     0.40633   0.80064   0.66463   0.00000  Uiso   1.00
N320   N     0.14843   0.80431   0.93701   0.00000  Uiso   1.00
N321   N     0.28938   0.97413   0.16919   0.00000  Uiso   1.00
N322   N     0.40385   0.79051   0.97032   0.00000  Uiso   1.00
C323   C     0.28324   0.36732   0.19289   0.00000  Uiso   1.00
C324   C     0.24617   0.35027   0.25062   0.00000  Uiso   1.00
C325   C     0.21637   0.34158   0.12889   0.00000  Uiso   1.00
C326   C     0.18490   0.32617   0.20942   0.00000  Uiso   1.00
C327   C     0.12756   0.30069   0.26937   0.00000  Uiso   1.00
C328   C     0.28501   0.39707   0.31461   0.00000  Uiso   1.00
C329   C     0.28788   0.42773   0.24668   0.00000  Uiso   1.00
C330   C     0.28910   0.45172   0.38108   0.00000  Uiso   1.00
C331   C     0.29210   0.49891   0.54038   0.00000  Uiso   1.00
C332   C     0.31655   0.34646   0.25980   0.00000  Uiso   1.00
C333   C     0.34595   0.33458   0.14578   0.00000  Uiso   1.00
C334   C     0.37374   0.31596   0.23405   0.00000  Uiso   1.00
C335   C     0.42571   0.28456   0.30824   0.00000  Uiso   1.00
C336   C     0.28033   0.35541   0.55238   0.00000  Uiso   1.00
C337   C     0.24459   0.34380   0.44589   0.00000  Uiso   1.00
C338   C     0.21315   0.32840   0.52662   0.00000  Uiso   1.00
C339   C     0.18332   0.31969   0.40503   0.00000  Uiso   1.00
C340   C     0.28343   0.39061   0.50987   0.00000  Uiso   1.00
C341   C     0.28465   0.41456   0.64441   0.00000  Uiso   1.00
C342   C     0.28752   0.44524   0.57669   0.00000  Uiso   1.00
C343   C     0.31497   0.33999   0.45506   0.00000  Uiso   1.00
C344   C     0.34272   0.32140   0.54352   0.00000  Uiso   1.00
C345   C     0.37216   0.30948   0.42966   0.00000  Uiso   1.00
H346   H     0.28447   0.37236   0.04088   0.00000  Uiso   1.00
H347   H     0.21761   0.34659   0.97779   0.00000  Uiso   1.00
H348   H     0.28910   0.43273   0.09557   0.00000  Uiso   1.00
H349   H     0.34716   0.33959   0.99469   0.00000  Uiso   1.00
H350   H     0.14277   0.31518   0.99397   0.00000  Uiso   1.00
H351   H     0.29354   0.49681   0.24230   0.00000  Uiso   1.00
H352   H     0.41597   0.30040   0.02958   0.00000  Uiso   1.00
H353   H     0.27910   0.35038   0.70441   0.00000  Uiso   1.00
H354   H     0.21194   0.32340   0.67773   0.00000  Uiso   1.00
H355   H     0.28343   0.40954   0.79550   0.00000  Uiso   1.00
H356   H     0.34149   0.31640   0.69462   0.00000  Uiso   1.00
H357   H     0.13816   0.29635   0.56207   0.00000  Uiso   1.00
H358   H     0.28893   0.47799   0.81039   0.00000  Uiso   1.00
H359   H     0.41136   0.28157   0.59768   0.00000  Uiso   1.00
O360   O     0.09637   0.28842   0.24851   0.00000  Uiso   1.00
O361   O     0.29418   0.52672   0.57430   0.00000  Uiso   1.00
O362   O     0.45481   0.26903   0.29522   0.00000  Uiso   1.00
N363   N     0.15090   0.31444   0.13132   0.00000  Uiso   1.00
N364   N     0.29186   0.48426   0.36350   0.00000  Uiso   1.00
N365   N     0.40633   0.30064   0.16463   0.00000  Uiso   1.00
N366   N     0.14843   0.30431   0.43701   0.00000  Uiso   1.00
N367   N     0.28938   0.47413   0.66919   0.00000  Uiso   1.00
N368   N     0.40385   0.29051   0.47032   0.00000  Uiso   1.00
C369   C     0.46676   0.11732   0.44289   0.00000  Uiso   1.00
C370   C     0.50383   0.10027   0.50062   0.00000  Uiso   1.00
C371   C     0.53363   0.09158   0.37889   0.00000  Uiso   1.00
C372   C     0.56510   0.07617   0.45942   0.00000  Uiso   1.00
C373   C     0.62244   0.05069   0.51937   0.00000  Uiso   1.00
C374   C     0.46499   0.14707   0.56461   0.00000  Uiso   1.00
C375   C     0.46212   0.17773   0.49668   0.00000  Uiso   1.00
C376   C     0.46090   0.20172   0.63108   0.00000  Uiso   1.00
C377   C     0.45790   0.24891   0.79038   0.00000  Uiso   1.00
C378   C     0.43345   0.09646   0.50980   0.00000  Uiso   1.00
C379   C     0.40405   0.08458   0.39578   0.00000  Uiso   1.00
C380   C     0.37626   0.06596   0.48405   0.00000  Uiso   1.00
C381   C     0.32429   0.03456   0.55824   0.00000  Uiso   1.00
C382   C     0.46967   0.10541   0.80238   0.00000  Uiso   1.00
C383   C     0.50541   0.09380   0.69589   0.00000  Uiso   1.00
C384   C     0.53685   0.07840   0.77662   0.00000  Uiso   1.00
C385   C     0.56668   0.06969   0.65503   0.00000  Uiso   1.00
C386   C     0.46657   0.14061   0.75987   0.00000  Uiso   1.00
C387   C     0.46535   0.16456   0.89441   0.00000  Uiso   1.00
C388   C     0.46248   0.19524   0.82669   0.00000  Uiso   1.00
C389   C     0.43503   0.08999   0.70506   0.00000  Uiso   1.00
C390   C     0.40728   0.07140   0.79352   0.00000  Uiso   1.00
C391   C     0.37784   0.05948   0.67966   0.00000  Uiso   1.00
H392   H     0.46553   0.12236   0.29088   0.00000  Uiso   1.00
H393   H     0.53239   0.09659   0.22779   0.00000  Uiso   1.00
H394   H     0.46090   0.18273   0.34557   0.00000  Uiso   1.00
H395   H     0.40284   0.08959   0.24469   0.00000  Uiso   1.00
H396   H     0.60723   0.06518   0.24397   0.00000  Uiso   1.00
H397   H     0.45646   0.24681   0.49230   0.00000  Uiso   1.00
H398   H     0.33403   0.05040   0.27958   0.00000  Uiso   1.00
H399   H     0.47090   0.10038   0.95441   0.00000  Uiso   1.00
H400   H     0.53806   0.07340   0.92773   0.00000  Uiso   1.00
H401   H     0.46657   0.15954   0.04550   0.00000  Uiso   1.00
H402   H     0.40851   0.06640   0.94462   0.00000  Uiso   1.00
H403   H     0.61184   0.04635   0.81207   0.00000  Uiso   1.00
H404   H     0.46107   0.22799   0.06039   0.00000  Uiso   1.00
H405   H     0.33864   0.03157   0.84768   0.00000  Uiso   1.00
O406   O     0.65363   0.03842   0.49851   0.00000  Uiso   1.00
O407   O     0.45582   0.27672   0.82430   0.00000  Uiso   1.00
O408   O     0.29519   0.01903   0.54522   0.00000  Uiso   1.00
N409   N     0.59910   0.06444   0.38132   0.00000  Uiso   1.00
N410   N     0.45814   0.23426   0.61350   0.00000  Uiso   1.00
N411   N     0.34367   0.05064   0.41463   0.00000  Uiso   1.00
N412   N     0.60157   0.05431   0.68701   0.00000  Uiso   1.00
N413   N     0.46062   0.22413   0.91919   0.00000  Uiso   1.00
N414   N     0.34615   0.04051   0.72032   0.00000  Uiso   1.00
C415   C     0.46676   0.61732   0.94289   0.00000  Uiso   1.00
C416   C     0.50383   0.60027   0.00062   0.00000  Uiso   1.00
C417   C     0.53363   0.59158   0.87889   0.00000  Uiso   1.00
C418   C     0.56510   0.57617   0.95942   0.00000  Uiso   1.00
C419   C     0.62244   0.55069   0.01937   0.00000  Uiso   1.00
C420   C     0.46499   0.64707   0.06461   0.00000  Uiso   1.00
C421   C     0.46212   0.67773   0.99668   0.00000  Uiso   1.00
C422   C     0.46090   0.70172   0.13108   0.00000  Uiso   1.00
C423   C     0.45790   0.74891   0.29038   0.00000  Uiso   1.00
C424   C     0.43345   0.59646   0.00980   0.00000  Uiso   1.00
C425   C     0.40405   0.58458   0.89578   0.00000  Uiso   1.00
C426   C     0.37626   0.56596   0.98405   0.00000  Uiso   1.00
C427   C     0.32429   0.53456   0.05824   0.00000  Uiso   1.00
C428   C     0.46967   0.60541   0.30238   0.00000  Uiso   1.00
C429   C     0.50541   0.59380   0.19589   0.00000  Uiso   1.00
C430   C     0.53685   0.57840   0.27662   0.00000  Uiso   1.00
C431   C     0.56668   0.56969   0.15503   0.00000  Uiso   1.00
C432   C     0.46657   0.64061   0.25987   0.00000  Uiso   1.00
C433   C     0.46535   0.66456   0.39441   0.00000  Uiso   1.00
C434   C     0.46248   0.69524   0.32669   0.00000  Uiso   1.00
C435   C     0.43503   0.58999   0.20506   0.00000  Uiso   1.00
C436   C     0.40728   0.57140   0.29352   0.00000  Uiso   1.00
C437   C     0.37784   0.55948   0.17966   0.00000  Uiso   1.00
H438   H     0.46553   0.62236   0.79088   0.00000  Uiso   1.00
H439   H     0.53239   0.59659   0.72779   0.00000  Uiso   1.00
H440   H     0.46090   0.68273   0.84557   0.00000  Uiso   1.00
H441   H     0.40284   0.58959   0.74469   0.00000  Uiso   1.00
H442   H     0.60723   0.56518   0.74397   0.00000  Uiso   1.00
H443   H     0.45646   0.74681   0.99230   0.00000  Uiso   1.00
H444   H     0.33403   0.55040   0.77958   0.00000  Uiso   1.00
H445   H     0.47090   0.60038   0.45441   0.00000  Uiso   1.00
H446   H     0.53806   0.57340   0.42773   0.00000  Uiso   1.00
H447   H     0.46657   0.65954   0.54550   0.00000  Uiso   1.00
H448   H     0.40851   0.56640   0.44462   0.00000  Uiso   1.00
H449   H     0.61184   0.54635   0.31207   0.00000  Uiso   1.00
H450   H     0.46107   0.72799   0.56039   0.00000  Uiso   1.00
H451   H     0.33864   0.53157   0.34768   0.00000  Uiso   1.00
O452   O     0.65363   0.53842   0.99851   0.00000  Uiso   1.00
O453   O     0.45582   0.77672   0.32430   0.00000  Uiso   1.00
O454   O     0.29519   0.51903   0.04522   0.00000  Uiso   1.00
N455   N     0.59910   0.56444   0.88132   0.00000  Uiso   1.00
N456   N     0.45814   0.73426   0.11350   0.00000  Uiso   1.00
N457   N     0.34367   0.55064   0.91463   0.00000  Uiso   1.00
N458   N     0.60157   0.55431   0.18701   0.00000  Uiso   1.00
N459   N     0.46062   0.72413   0.41919   0.00000  Uiso   1.00
N460   N     0.34615   0.54051   0.22032   0.00000  Uiso   1.00
C461   C     0.96676   0.11732   0.94289   0.00000  Uiso   1.00
C462   C     0.00383   0.10027   0.00062   0.00000  Uiso   1.00
C463   C     0.03363   0.09158   0.87889   0.00000  Uiso   1.00
C464   C     0.06510   0.07617   0.95942   0.00000  Uiso   1.00
C465   C     0.12244   0.05069   0.01937   0.00000  Uiso   1.00
C466   C     0.96499   0.14707   0.06461   0.00000  Uiso   1.00
C467   C     0.96212   0.17773   0.99668   0.00000  Uiso   1.00
C468   C     0.96090   0.20172   0.13108   0.00000  Uiso   1.00
C469   C     0.95790   0.24891   0.29038   0.00000  Uiso   1.00
C470   C     0.93345   0.09646   0.00980   0.00000  Uiso   1.00
C471   C     0.90405   0.08458   0.89578   0.00000  Uiso   1.00
C472   C     0.87626   0.06596   0.98405   0.00000  Uiso   1.00
C473   C     0.82429   0.03456   0.05824   0.00000  Uiso   1.00
C474   C     0.96967   0.10541   0.30238   0.00000  Uiso   1.00
C475   C     0.00541   0.09380   0.19589   0.00000  Uiso   1.00
C476   C     0.03685   0.07840   0.27662   0.00000  Uiso   1.00
C477   C     0.06668   0.06969   0.15503   0.00000  Uiso   1.00
C478   C     0.96657   0.14061   0.25987   0.00000  Uiso   1.00
C479   C     0.96535   0.16456   0.39441   0.00000  Uiso   1.00
C480   C     0.96248   0.19524   0.32669   0.00000  Uiso   1.00
C481   C     0.93503   0.08999   0.20506   0.00000  Uiso   1.00
C482   C     0.90728   0.07140   0.29352   0.00000  Uiso   1.00
C483   C     0.87784   0.05948   0.17966   0.00000  Uiso   1.00
H484   H     0.96553   0.12236   0.79088   0.00000  Uiso   1.00
H485   H     0.03239   0.09659   0.72779   0.00000  Uiso   1.00
H486   H     0.96090   0.18273   0.84557   0.00000  Uiso   1.00
H487   H     0.90284   0.08959   0.74469   0.00000  Uiso   1.00
H488   H     0.10723   0.06518   0.74397   0.00000  Uiso   1.00
H489   H     0.95646   0.24681   0.99230   0.00000  Uiso   1.00
H490   H     0.83403   0.05040   0.77958   0.00000  Uiso   1.00
H491   H     0.97090   0.10038   0.45441   0.00000  Uiso   1.00
H492   H     0.03806   0.07340   0.42773   0.00000  Uiso   1.00
H493   H     0.96657   0.15954   0.54550   0.00000  Uiso   1.00
H494   H     0.90851   0.06640   0.44462   0.00000  Uiso   1.00
H495   H     0.11184   0.04635   0.31207   0.00000  Uiso   1.00
H496   H     0.96107   0.22799   0.56039   0.00000  Uiso   1.00
H497   H     0.83864   0.03157   0.34768   0.00000  Uiso   1.00
O498   O     0.15363   0.03842   0.99851   0.00000  Uiso   1.00
O499   O     0.95582   0.27672   0.32430   0.00000  Uiso   1.00
O500   O     0.79519   0.01903   0.04522   0.00000  Uiso   1.00
N501   N     0.09910   0.06444   0.88132   0.00000  Uiso   1.00
N502   N     0.95814   0.23426   0.11350   0.00000  Uiso   1.00
N503   N     0.84367   0.05064   0.91463   0.00000  Uiso   1.00
N504   N     0.10157   0.05431   0.18701   0.00000  Uiso   1.00
N505   N     0.96062   0.22413   0.41919   0.00000  Uiso   1.00
N506   N     0.84615   0.04051   0.22032   0.00000  Uiso   1.00
C507   C     0.96676   0.61732   0.44289   0.00000  Uiso   1.00
C508   C     0.00383   0.60027   0.50062   0.00000  Uiso   1.00
C509   C     0.03363   0.59158   0.37889   0.00000  Uiso   1.00
C510   C     0.06510   0.57617   0.45942   0.00000  Uiso   1.00
C511   C     0.12244   0.55069   0.51937   0.00000  Uiso   1.00
C512   C     0.96499   0.64707   0.56461   0.00000  Uiso   1.00
C513   C     0.96212   0.67773   0.49668   0.00000  Uiso   1.00
C514   C     0.96090   0.70172   0.63108   0.00000  Uiso   1.00
C515   C     0.95790   0.74891   0.79038   0.00000  Uiso   1.00
C516   C     0.93345   0.59646   0.50980   0.00000  Uiso   1.00
C517   C     0.90405   0.58458   0.39578   0.00000  Uiso   1.00
C518   C     0.87626   0.56596   0.48405   0.00000  Uiso   1.00
C519   C     0.82429   0.53456   0.55824   0.00000  Uiso   1.00
C520   C     0.96967   0.60541   0.80238   0.00000  Uiso   1.00
C521   C     0.00541   0.59380   0.69589   0.00000  Uiso   1.00
C522   C     0.03685   0.57840   0.77662   0.00000  Uiso   1.00
C523   C     0.06668   0.56969   0.65503   0.00000  Uiso   1.00
C524   C     0.96657   0.64061   0.75987   0.00000  Uiso   1.00
C525   C     0.96535   0.66456   0.89441   0.00000  Uiso   1.00
C526   C     0.96248   0.69524   0.82669   0.00000  Uiso   1.00
C527   C     0.93503   0.58999   0.70506   0.00000  Uiso   1.00
C528   C     0.90728   0.57140   0.79352   0.00000  Uiso   1.00
C529   C     0.87784   0.55948   0.67966   0.00000  Uiso   1.00
H530   H     0.96553   0.62236   0.29088   0.00000  Uiso   1.00
H531   H     0.03239   0.59659   0.22779   0.00000  Uiso   1.00
H532   H     0.96090   0.68273   0.34557   0.00000  Uiso   1.00
H533   H     0.90284   0.58959   0.24469   0.00000  Uiso   1.00
H534   H     0.10723   0.56518   0.24397   0.00000  Uiso   1.00
H535   H     0.95646   0.74681   0.49230   0.00000  Uiso   1.00
H536   H     0.83403   0.55040   0.27958   0.00000  Uiso   1.00
H537   H     0.97090   0.60038   0.95441   0.00000  Uiso   1.00
H538   H     0.03806   0.57340   0.92773   0.00000  Uiso   1.00
H539   H     0.96657   0.65954   0.04550   0.00000  Uiso   1.00
H540   H     0.90851   0.56640   0.94462   0.00000  Uiso   1.00
H541   H     0.11184   0.54635   0.81207   0.00000  Uiso   1.00
H542   H     0.96107   0.72799   0.06039   0.00000  Uiso   1.00
H543   H     0.83864   0.53157   0.84768   0.00000  Uiso   1.00
O544   O     0.15363   0.53842   0.49851   0.00000  Uiso   1.00
O545   O     0.95582   0.77672   0.82430   0.00000  Uiso   1.00
O546   O     0.79519   0.51903   0.54522   0.00000  Uiso   1.00
N547   N     0.09910   0.56444   0.38132   0.00000  Uiso   1.00
N548   N     0.95814   0.73426   0.61350   0.00000  Uiso   1.00
N549   N     0.84367   0.55064   0.41463   0.00000  Uiso   1.00
N550   N     0.10157   0.55431   0.68701   0.00000  Uiso   1.00
N551   N     0.96062   0.72413   0.91919   0.00000  Uiso   1.00
N552   N     0.84615   0.54051   0.72032   0.00000  Uiso   1.00
C553   C     0.03324   0.38268   0.44289   0.00000  Uiso   1.00
C554   C     0.99617   0.39973   0.50062   0.00000  Uiso   1.00
C555   C     0.96637   0.40842   0.37889   0.00000  Uiso   1.00
C556   C     0.93490   0.42383   0.45942   0.00000  Uiso   1.00
C557   C     0.87756   0.44931   0.51937   0.00000  Uiso   1.00
C558   C     0.03501   0.35293   0.56461   0.00000  Uiso   1.00
C559   C     0.03788   0.32227   0.49668   0.00000  Uiso   1.00
C560   C     0.03910   0.29828   0.63108   0.00000  Uiso   1.00
C561   C     0.04210   0.25109   0.79038   0.00000  Uiso   1.00
C562   C     0.06655   0.40354   0.50980   0.00000  Uiso   1.00
C563   C     0.09595   0.41542   0.39578   0.00000  Uiso   1.00
C564   C     0.12374   0.43404   0.48405   0.00000  Uiso   1.00
C565   C     0.17571   0.46544   0.55824   0.00000  Uiso   1.00
C566   C     0.03033   0.39459   0.80238   0.00000  Uiso   1.00
C567   C     0.99459   0.40620   0.69589   0.00000  Uiso   1.00
C568   C     0.96315   0.42160   0.77662   0.00000  Uiso   1.00
C569   C     0.93332   0.43031   0.65503   0.00000  Uiso   1.00
C570   C     0.03343   0.35939   0.75987   0.00000  Uiso   1.00
C571   C     0.03465   0.33544   0.89441   0.00000  Uiso   1.00
C572   C     0.03752   0.30476   0.82669   0.00000  Uiso   1.00
C573   C     0.06497   0.41001   0.70506   0.00000  Uiso   1.00
C574   C     0.09272   0.42860   0.79352   0.00000  Uiso   1.00
C575   C     0.12216   0.44052   0.67966   0.00000  Uiso   1.00
H576   H     0.03447   0.37764   0.29088   0.00000  Uiso   1.00
H577   H     0.96761   0.40341   0.22779   0.00000  Uiso   1.00
H578   H     0.03910   0.31727   0.34557   0.00000  Uiso   1.00
H579   H     0.09716   0.41041   0.24469   0.00000  Uiso   1.00
H580   H     0.89277   0.43482   0.24397   0.00000  Uiso   1.00
H581   H     0.04354   0.25319   0.49230   0.00000  Uiso   1.00
H582   H     0.16597   0.44960   0.27958   0.00000  Uiso   1.00
H583   H     0.02910   0.39962   0.95441   0.00000  Uiso   1.00
H584   H     0.96194   0.42660   0.92773   0.00000  Uiso   1.00
H585   H     0.03343   0.34046   0.04550   0.00000  Uiso   1.00
H586   H     0.09149   0.43360   0.94462   0.00000  Uiso   1.00
H587   H     0.88816   0.45365   0.81207   0.00000  Uiso   1.00
H588   H     0.03893   0.27201   0.06039   0.00000  Uiso   1.00
H589   H     0.16136   0.46843   0.84768   0.00000  Uiso   1.00
O590   O     0.84637   0.46158   0.49851   0.00000  Uiso   1.00
O591   O     0.04418   0.22328   0.82430   0.00000  Uiso   1.00
O592   O     0.20481   0.48097   0.54522   0.00000  Uiso   1.00
N593   N     0.90090   0.43556   0.38132   0.00000  Uiso   1.00
N594   N     0.04186   0.26574   0.61350   0.00000  Uiso   1.00
N595   N     0.15633   0.44936   0.41463   0.00000  Uiso   1.00
N596   N     0.89843   0.44569   0.68701   0.00000  Uiso   1.00
N597   N     0.03938   0.27587   0.91919   0.00000  Uiso   1.00
N598   N     0.15385   0.45949   0.72032   0.00000  Uiso   1.00
C599   C     0.03324   0.88268   0.94289   0.00000  Uiso   1.00
C600   C     0.99617   0.89973   0.00062   0.00000  Uiso   1.00
C601   C     0.96637   0.90842   0.87889   0.00000  Uiso   1.00
C602   C     0.93490   0.92383   0.95942   0.00000  Uiso   1.00
C603   C     0.87756   0.94931   0.01937   0.00000  Uiso   1.00
C604   C     0.03501   0.85293   0.06461   0.00000  Uiso   1.00
C605   C     0.03788   0.82227   0.99668   0.00000  Uiso   1.00
C606   C     0.03910   0.79828   0.13108   0.00000  Uiso   1.00
C607   C     0.04210   0.75109   0.29038   0.00000  Uiso   1.00
C608   C     0.06655   0.90354   0.00980   0.00000  Uiso   1.00
C609   C     0.09595   0.91542   0.89578   0.00000  Uiso   1.00
C610   C     0.12374   0.93404   0.98405   0.00000  Uiso   1.00
C611   C     0.17571   0.96544   0.05824   0.00000  Uiso   1.00
C612   C     0.03033   0.89459   0.30238   0.00000  Uiso   1.00
C613   C     0.99459   0.90620   0.19589   0.00000  Uiso   1.00
C614   C     0.96315   0.92160   0.27662   0.00000  Uiso   1.00
C615   C     0.93332   0.93031   0.15503   0.00000  Uiso   1.00
C616   C     0.03343   0.85939   0.25987   0.00000  Uiso   1.00
C617   C     0.03465   0.83544   0.39441   0.00000  Uiso   1.00
C618   C     0.03752   0.80476   0.32669   0.00000  Uiso   1.00
C619   C     0.06497   0.91001   0.20506   0.00000  Uiso   1.00
C620   C     0.09272   0.92860   0.29352   0.00000  Uiso   1.00
C621   C     0.12216   0.94052   0.17966   0.00000  Uiso   1.00
H622   H     0.03447   0.87764   0.79088   0.00000  Uiso   1.00
H623   H     0.96761   0.90341   0.72779   0.00000  Uiso   1.00
H624   H     0.03910   0.81727   0.84557   0.00000  Uiso   1.00
H625   H     0.09716   0.91041   0.74469   0.00000  Uiso   1.00
H626   H     0.89277   0.93482   0.74397   0.00000  Uiso   1.00
H627   H     0.04354   0.75319   0.99230   0.00000  Uiso   1.00
H628   H     0.16597   0.94960   0.77958   0.00000  Uiso   1.00
H629   H     0.02910   0.89962   0.45441   0.00000  Uiso   1.00
H630   H     0.96194   0.92660   0.42773   0.00000  Uiso   1.00
H631   H     0.03343   0.84046   0.54550   0.00000  Uiso   1.00
H632   H     0.09149   0.93360   0.44462   0.00000  Uiso   1.00
H633   H     0.88816   0.95365   0.31207   0.00000  Uiso   1.00
H634   H     0.03893   0.77201   0.56039   0.00000  Uiso   1.00
H635   H     0.16136   0.96843   0.34768   0.00000  Uiso   1.00
O636   O     0.84637   0.96158   0.99851   0.00000  Uiso   1.00
O637   O     0.04418   0.72328   0.32430   0.00000  Uiso   1.00
O638   O     0.20481   0.98097   0.04522   0.00000  Uiso   1.00
N639   N     0.90090   0.93556   0.88132   0.00000  Uiso   1.00
N640   N     0.04186   0.76574   0.11350   0.00000  Uiso   1.00
N641   N     0.15633   0.94936   0.91463   0.00000  Uiso   1.00
N642   N     0.89843   0.94569   0.18701   0.00000  Uiso   1.00
N643   N     0.03938   0.77587   0.41919   0.00000  Uiso   1.00
N644   N     0.15385   0.95949   0.22032   0.00000  Uiso   1.00
C645   C     0.53324   0.38268   0.94289   0.00000  Uiso   1.00
C646   C     0.49617   0.39973   0.00062   0.00000  Uiso   1.00
C647   C     0.46637   0.40842   0.87889   0.00000  Uiso   1.00
C648   C     0.43490   0.42383   0.95942   0.00000  Uiso   1.00
C649   C     0.37756   0.44931   0.01937   0.00000  Uiso   1.00
C650   C     0.53501   0.35293   0.06461   0.00000  Uiso   1.00
C651   C     0.53788   0.32227   0.99668   0.00000  Uiso   1.00
C652   C     0.53910   0.29828   0.13108   0.00000  Uiso   1.00
C653   C     0.54210   0.25109   0.29038   0.00000  Uiso   1.00
C654   C     0.56655   0.40354   0.00980   0.00000  Uiso   1.00
C655   C     0.59595   0.41542   0.89578   0.00000  Uiso   1.00
C656   C     0.62374   0.43404   0.98405   0.00000  Uiso   1.00
C657   C     0.67571   0.46544   0.05824   0.00000  Uiso   1.00
C658   C     0.53033   0.39459   0.30238   0.00000  Uiso   1.00
C659   C     0.49459   0.40620   0.19589   0.00000  Uiso   1.00
C660   C     0.46315   0.42160   0.27662   0.00000  Uiso   1.00
C661   C     0.43332   0.43031   0.15503   0.00000  Uiso   1.00
C662   C     0.53343   0.35939   0.25987   0.00000  Uiso   1.00
C663   C     0.53465   0.33544   0.39441   0.00000  Uiso   1.00
C664   C     0.53752   0.30476   0.32669   0.00000  Uiso   1.00
C665   C     0.56497   0.41001   0.20506   0.00000  Uiso   1.00
C666   C     0.59272   0.42860   0.29352   0.00000  Uiso   1.00
C667   C     0.62216   0.44052   0.17966   0.00000  Uiso   1.00
H668   H     0.53447   0.37764   0.79088   0.00000  Uiso   1.00
H669   H     0.46761   0.40341   0.72779   0.00000  Uiso   1.00
H670   H     0.53910   0.31727   0.84557   0.00000  Uiso   1.00
H671   H     0.59716   0.41041   0.74469   0.00000  Uiso   1.00
H672   H     0.39277   0.43482   0.74397   0.00000  Uiso   1.00
H673   H     0.54354   0.25319   0.99230   0.00000  Uiso   1.00
H674   H     0.66597   0.44960   0.77958   0.00000  Uiso   1.00
H675   H     0.52910   0.39962   0.45441   0.00000  Uiso   1.00
H676   H     0.46194   0.42660   0.42773   0.00000  Uiso   1.00
H677   H     0.53343   0.34046   0.54550   0.00000  Uiso   1.00
H678   H     0.59149   0.43360   0.44462   0.00000  Uiso   1.00
H679   H     0.38816   0.45365   0.31207   0.00000  Uiso   1.00
H680   H     0.53893   0.27201   0.56039   0.00000  Uiso   1.00
H681   H     0.66136   0.46843   0.34768   0.00000  Uiso   1.00
O682   O     0.34637   0.46158   0.99851   0.00000  Uiso   1.00
O683   O     0.54418   0.22328   0.32430   0.00000  Uiso   1.00
O684   O     0.70481   0.48097   0.04522   0.00000  Uiso   1.00
N685   N     0.40090   0.43556   0.88132   0.00000  Uiso   1.00
N686   N     0.54186   0.26574   0.11350   0.00000  Uiso   1.00
N687   N     0.65633   0.44936   0.91463   0.00000  Uiso   1.00
N688   N     0.39843   0.44569   0.18701   0.00000  Uiso   1.00
N689   N     0.53938   0.27587   0.41919   0.00000  Uiso   1.00
N690   N     0.65385   0.45949   0.22032   0.00000  Uiso   1.00
C691   C     0.53324   0.88268   0.44289   0.00000  Uiso   1.00
C692   C     0.49617   0.89973   0.50062   0.00000  Uiso   1.00
C693   C     0.46637   0.90842   0.37889   0.00000  Uiso   1.00
C694   C     0.43490   0.92383   0.45942   0.00000  Uiso   1.00
C695   C     0.37756   0.94931   0.51937   0.00000  Uiso   1.00
C696   C     0.53501   0.85293   0.56461   0.00000  Uiso   1.00
C697   C     0.53788   0.82227   0.49668   0.00000  Uiso   1.00
C698   C     0.53910   0.79828   0.63108   0.00000  Uiso   1.00
C699   C     0.54210   0.75109   0.79038   0.00000  Uiso   1.00
C700   C     0.56655   0.90354   0.50980   0.00000  Uiso   1.00
C701   C     0.59595   0.91542   0.39578   0.00000  Uiso   1.00
C702   C     0.62374   0.93404   0.48405   0.00000  Uiso   1.00
C703   C     0.67571   0.96544   0.55824   0.00000  Uiso   1.00
C704   C     0.53033   0.89459   0.80238   0.00000  Uiso   1.00
C705   C     0.49459   0.90620   0.69589   0.00000  Uiso   1.00
C706   C     0.46315   0.92160   0.77662   0.00000  Uiso   1.00
C707   C     0.43332   0.93031   0.65503   0.00000  Uiso   1.00
C708   C     0.53343   0.85939   0.75987   0.00000  Uiso   1.00
C709   C     0.53465   0.83544   0.89441   0.00000  Uiso   1.00
C710   C     0.53752   0.80476   0.82669   0.00000  Uiso   1.00
C711   C     0.56497   0.91001   0.70506   0.00000  Uiso   1.00
C712   C     0.59272   0.92860   0.79352   0.00000  Uiso   1.00
C713   C     0.62216   0.94052   0.67966   0.00000  Uiso   1.00
H714   H     0.53447   0.87764   0.29088   0.00000  Uiso   1.00
H715   H     0.46761   0.90341   0.22779   0.00000  Uiso   1.00
H716   H     0.53910   0.81727   0.34557   0.00000  Uiso   1.00
H717   H     0.59716   0.91041   0.24469   0.00000  Uiso   1.00
H718   H     0.39277   0.93482   0.24397   0.00000  Uiso   1.00
H719   H     0.54354   0.75319   0.49230   0.00000  Uiso   1.00
H720   H     0.66597   0.94960   0.27958   0.00000  Uiso   1.00
H721   H     0.52910   0.89962   0.95441   0.00000  Uiso   1.00
H722   H     0.46194   0.92660   0.92773   0.00000  Uiso   1.00
H723   H     0.53343   0.84046   0.04550   0.00000  Uiso   1.00
H724   H     0.59149   0.93360   0.94462   0.00000  Uiso   1.00
H725   H     0.38816   0.95365   0.81207   0.00000  Uiso   1.00
H726   H     0.53893   0.77201   0.06039   0.00000  Uiso   1.00
H727   H     0.66136   0.96843   0.84768   0.00000  Uiso   1.00
O728   O     0.34637   0.96158   0.49851   0.00000  Uiso   1.00
O729   O     0.54418   0.72328   0.82430   0.00000  Uiso   1.00
O730   O     0.70481   0.98097   0.54522   0.00000  Uiso   1.00
N731   N     0.40090   0.93556   0.38132   0.00000  Uiso   1.00
N732   N     0.54186   0.76574   0.61350   0.00000  Uiso   1.00
N733   N     0.65633   0.94936   0.41463   0.00000  Uiso   1.00
N734   N     0.39843   0.94569   0.68701   0.00000  Uiso   1.00
N735   N     0.53938   0.77587   0.91919   0.00000  Uiso   1.00
N736   N     0.65385   0.95949   0.72032   0.00000  Uiso   1.00
