data_job_01215
_audit_creation_date              2018-12-19
_audit_creation_method            'Materials Studio'
_symmetry_space_group_name_H-M    'P1'
_symmetry_Int_Tables_number       1
_symmetry_cell_setting            triclinic
loop_
_symmetry_equiv_pos_as_xyz
  x,y,z
_cell_length_a                    24.0949
_cell_length_b                    24.0949
_cell_length_c                    18.4448
_cell_angle_alpha                 90.0000
_cell_angle_beta                  90.0000
_cell_angle_gamma                 90.0000
loop_
_atom_site_label
_atom_site_type_symbol
_atom_site_fract_x
_atom_site_fract_y
_atom_site_fract_z
_atom_site_U_iso_or_equiv
_atom_site_adp_type
_atom_site_occupancy
C1     C     0.22931   0.52062   0.48981   0.00000  Uiso   1.00
C2     C     0.18931   0.56514   0.51670   0.00000  Uiso   1.00
C3     C     0.16238   0.60399   0.47371   0.00000  Uiso   1.00
C4     C     0.12746   0.64120   0.50865   0.00000  Uiso   1.00
C5     C     0.06654   0.71059   0.53898   0.00000  Uiso   1.00
C6     C     0.28316   0.52931   0.53173   0.00000  Uiso   1.00
C7     C     0.33514   0.53803   0.50138   0.00000  Uiso   1.00
C8     C     0.37922   0.54508   0.54898   0.00000  Uiso   1.00
C9     C     0.46401   0.55881   0.60263   0.00000  Uiso   1.00
C10    C     0.20578   0.46538   0.51590   0.00000  Uiso   1.00
C11    C     0.19271   0.42033   0.47224   0.00000  Uiso   1.00
C12    C     0.17165   0.37354   0.50651   0.00000  Uiso   1.00
C13    C     0.13629   0.28799   0.53559   0.00000  Uiso   1.00
C14    C     0.21518   0.51764   0.62831   0.00000  Uiso   1.00
C15    C     0.18164   0.56352   0.59193   0.00000  Uiso   1.00
C16    C     0.14674   0.60068   0.62695   0.00000  Uiso   1.00
C17    C     0.11977   0.63958   0.58402   0.00000  Uiso   1.00
C18    C     0.27549   0.52769   0.60696   0.00000  Uiso   1.00
C19    C     0.31950   0.53473   0.65462   0.00000  Uiso   1.00
C20    C     0.37153   0.54346   0.62434   0.00000  Uiso   1.00
C21    C     0.19810   0.46375   0.59113   0.00000  Uiso   1.00
C22    C     0.17706   0.41703   0.62548   0.00000  Uiso   1.00
C23    C     0.16396   0.37192   0.58188   0.00000  Uiso   1.00
H24    H     0.23529   0.52189   0.43124   0.00000  Uiso   1.00
H25    H     0.16834   0.60523   0.41549   0.00000  Uiso   1.00
H26    H     0.34107   0.53928   0.44316   0.00000  Uiso   1.00
H27    H     0.19865   0.42160   0.41402   0.00000  Uiso   1.00
H28    H     0.09074   0.69693   0.43122   0.00000  Uiso   1.00
H29    H     0.45495   0.55785   0.48955   0.00000  Uiso   1.00
H30    H     0.15464   0.30969   0.42811   0.00000  Uiso   1.00
H31    H     0.20920   0.51638   0.68688   0.00000  Uiso   1.00
H32    H     0.14081   0.59942   0.68517   0.00000  Uiso   1.00
H33    H     0.31354   0.53347   0.71283   0.00000  Uiso   1.00
H34    H     0.17113   0.41579   0.68370   0.00000  Uiso   1.00
H35    H     0.06840   0.69222   0.65010   0.00000  Uiso   1.00
H36    H     0.43261   0.55313   0.70842   0.00000  Uiso   1.00
H37    H     0.13230   0.30498   0.64699   0.00000  Uiso   1.00
O38    O     0.03507   0.74931   0.53492   0.00000  Uiso   1.00
O39    O     0.51290   0.56684   0.61144   0.00000  Uiso   1.00
O40    O     0.11890   0.24126   0.53084   0.00000  Uiso   1.00
N41    N     0.09486   0.68442   0.48297   0.00000  Uiso   1.00
N42    N     0.43537   0.55440   0.53750   0.00000  Uiso   1.00
N43    N     0.15463   0.32238   0.48007   0.00000  Uiso   1.00
N44    N     0.08284   0.68188   0.60074   0.00000  Uiso   1.00
N45    N     0.42335   0.55186   0.65527   0.00000  Uiso   1.00
N46    N     0.14260   0.31984   0.59784   0.00000  Uiso   1.00
C47    C     0.72931   0.02062   0.98981   0.00000  Uiso   1.00
C48    C     0.68931   0.06514   0.01670   0.00000  Uiso   1.00
C49    C     0.66238   0.10399   0.97371   0.00000  Uiso   1.00
C50    C     0.62746   0.14120   0.00865   0.00000  Uiso   1.00
C51    C     0.56654   0.21059   0.03898   0.00000  Uiso   1.00
C52    C     0.78316   0.02931   0.03173   0.00000  Uiso   1.00
C53    C     0.83514   0.03803   0.00138   0.00000  Uiso   1.00
C54    C     0.87922   0.04508   0.04898   0.00000  Uiso   1.00
C55    C     0.96401   0.05881   0.10263   0.00000  Uiso   1.00
C56    C     0.70578   0.96538   0.01590   0.00000  Uiso   1.00
C57    C     0.69271   0.92033   0.97224   0.00000  Uiso   1.00
C58    C     0.67165   0.87354   0.00651   0.00000  Uiso   1.00
C59    C     0.63629   0.78799   0.03559   0.00000  Uiso   1.00
C60    C     0.71518   0.01764   0.12831   0.00000  Uiso   1.00
C61    C     0.68164   0.06352   0.09193   0.00000  Uiso   1.00
C62    C     0.64674   0.10068   0.12695   0.00000  Uiso   1.00
C63    C     0.61977   0.13958   0.08402   0.00000  Uiso   1.00
C64    C     0.77549   0.02769   0.10696   0.00000  Uiso   1.00
C65    C     0.81950   0.03473   0.15462   0.00000  Uiso   1.00
C66    C     0.87153   0.04346   0.12434   0.00000  Uiso   1.00
C67    C     0.69810   0.96375   0.09113   0.00000  Uiso   1.00
C68    C     0.67706   0.91703   0.12548   0.00000  Uiso   1.00
C69    C     0.66396   0.87192   0.08188   0.00000  Uiso   1.00
H70    H     0.73529   0.02189   0.93124   0.00000  Uiso   1.00
H71    H     0.66834   0.10523   0.91549   0.00000  Uiso   1.00
H72    H     0.84107   0.03928   0.94316   0.00000  Uiso   1.00
H73    H     0.69865   0.92160   0.91402   0.00000  Uiso   1.00
H74    H     0.59074   0.19693   0.93122   0.00000  Uiso   1.00
H75    H     0.95495   0.05785   0.98955   0.00000  Uiso   1.00
H76    H     0.65464   0.80969   0.92811   0.00000  Uiso   1.00
H77    H     0.70920   0.01638   0.18688   0.00000  Uiso   1.00
H78    H     0.64081   0.09942   0.18517   0.00000  Uiso   1.00
H79    H     0.81354   0.03347   0.21283   0.00000  Uiso   1.00
H80    H     0.67113   0.91579   0.18370   0.00000  Uiso   1.00
H81    H     0.56840   0.19222   0.15010   0.00000  Uiso   1.00
H82    H     0.93261   0.05313   0.20842   0.00000  Uiso   1.00
H83    H     0.63230   0.80498   0.14699   0.00000  Uiso   1.00
O84    O     0.53507   0.24931   0.03492   0.00000  Uiso   1.00
O85    O     0.01290   0.06684   0.11144   0.00000  Uiso   1.00
O86    O     0.61890   0.74126   0.03084   0.00000  Uiso   1.00
N87    N     0.59486   0.18442   0.98297   0.00000  Uiso   1.00
N88    N     0.93537   0.05440   0.03750   0.00000  Uiso   1.00
N89    N     0.65463   0.82238   0.98007   0.00000  Uiso   1.00
N90    N     0.58284   0.18188   0.10074   0.00000  Uiso   1.00
N91    N     0.92335   0.05186   0.15527   0.00000  Uiso   1.00
N92    N     0.64260   0.81984   0.09784   0.00000  Uiso   1.00
C93    C     0.77069   0.47938   0.48981   0.00000  Uiso   1.00
C94    C     0.81069   0.43486   0.51670   0.00000  Uiso   1.00
C95    C     0.83762   0.39601   0.47371   0.00000  Uiso   1.00
C96    C     0.87254   0.35880   0.50865   0.00000  Uiso   1.00
C97    C     0.93346   0.28941   0.53898   0.00000  Uiso   1.00
C98    C     0.71684   0.47069   0.53173   0.00000  Uiso   1.00
C99    C     0.66486   0.46197   0.50138   0.00000  Uiso   1.00
C100   C     0.62078   0.45492   0.54898   0.00000  Uiso   1.00
C101   C     0.53599   0.44119   0.60263   0.00000  Uiso   1.00
C102   C     0.79422   0.53462   0.51590   0.00000  Uiso   1.00
C103   C     0.80729   0.57967   0.47224   0.00000  Uiso   1.00
C104   C     0.82835   0.62646   0.50651   0.00000  Uiso   1.00
C105   C     0.86371   0.71201   0.53559   0.00000  Uiso   1.00
C106   C     0.78482   0.48236   0.62831   0.00000  Uiso   1.00
C107   C     0.81836   0.43648   0.59193   0.00000  Uiso   1.00
C108   C     0.85326   0.39932   0.62695   0.00000  Uiso   1.00
C109   C     0.88023   0.36042   0.58402   0.00000  Uiso   1.00
C110   C     0.72451   0.47231   0.60696   0.00000  Uiso   1.00
C111   C     0.68050   0.46527   0.65462   0.00000  Uiso   1.00
C112   C     0.62847   0.45654   0.62434   0.00000  Uiso   1.00
C113   C     0.80190   0.53625   0.59113   0.00000  Uiso   1.00
C114   C     0.82294   0.58297   0.62548   0.00000  Uiso   1.00
C115   C     0.83604   0.62808   0.58188   0.00000  Uiso   1.00
H116   H     0.76471   0.47811   0.43124   0.00000  Uiso   1.00
H117   H     0.83166   0.39477   0.41549   0.00000  Uiso   1.00
H118   H     0.65893   0.46072   0.44316   0.00000  Uiso   1.00
H119   H     0.80135   0.57840   0.41402   0.00000  Uiso   1.00
H120   H     0.90926   0.30307   0.43122   0.00000  Uiso   1.00
H121   H     0.54505   0.44215   0.48955   0.00000  Uiso   1.00
H122   H     0.84536   0.69031   0.42811   0.00000  Uiso   1.00
H123   H     0.79080   0.48362   0.68688   0.00000  Uiso   1.00
H124   H     0.85919   0.40058   0.68517   0.00000  Uiso   1.00
H125   H     0.68646   0.46653   0.71283   0.00000  Uiso   1.00
H126   H     0.82887   0.58421   0.68370   0.00000  Uiso   1.00
H127   H     0.93160   0.30778   0.65010   0.00000  Uiso   1.00
H128   H     0.56739   0.44687   0.70842   0.00000  Uiso   1.00
H129   H     0.86770   0.69502   0.64699   0.00000  Uiso   1.00
O130   O     0.96493   0.25069   0.53492   0.00000  Uiso   1.00
O131   O     0.48710   0.43316   0.61144   0.00000  Uiso   1.00
O132   O     0.88110   0.75874   0.53084   0.00000  Uiso   1.00
N133   N     0.90514   0.31558   0.48297   0.00000  Uiso   1.00
N134   N     0.56463   0.44560   0.53750   0.00000  Uiso   1.00
N135   N     0.84537   0.67762   0.48007   0.00000  Uiso   1.00
N136   N     0.91716   0.31812   0.60074   0.00000  Uiso   1.00
N137   N     0.57665   0.44814   0.65527   0.00000  Uiso   1.00
N138   N     0.85740   0.68016   0.59784   0.00000  Uiso   1.00
C139   C     0.27069   0.97938   0.98981   0.00000  Uiso   1.00
C140   C     0.31069   0.93486   0.01670   0.00000  Uiso   1.00
C141   C     0.33762   0.89601   0.97371   0.00000  Uiso   1.00
C142   C     0.37254   0.85880   0.00865   0.00000  Uiso   1.00
C143   C     0.43346   0.78941   0.03898   0.00000  Uiso   1.00
C144   C     0.21684   0.97069   0.03173   0.00000  Uiso   1.00
C145   C     0.16486   0.96197   0.00138   0.00000  Uiso   1.00
C146   C     0.12078   0.95492   0.04898   0.00000  Uiso   1.00
C147   C     0.03599   0.94119   0.10263   0.00000  Uiso   1.00
C148   C     0.29422   0.03462   0.01590   0.00000  Uiso   1.00
C149   C     0.30729   0.07967   0.97224   0.00000  Uiso   1.00
C150   C     0.32835   0.12646   0.00651   0.00000  Uiso   1.00
C151   C     0.36371   0.21201   0.03559   0.00000  Uiso   1.00
C152   C     0.28482   0.98236   0.12831   0.00000  Uiso   1.00
C153   C     0.31836   0.93648   0.09193   0.00000  Uiso   1.00
C154   C     0.35326   0.89932   0.12695   0.00000  Uiso   1.00
C155   C     0.38023   0.86042   0.08402   0.00000  Uiso   1.00
C156   C     0.22451   0.97231   0.10696   0.00000  Uiso   1.00
C157   C     0.18050   0.96527   0.15462   0.00000  Uiso   1.00
C158   C     0.12847   0.95654   0.12434   0.00000  Uiso   1.00
C159   C     0.30190   0.03625   0.09113   0.00000  Uiso   1.00
C160   C     0.32294   0.08297   0.12548   0.00000  Uiso   1.00
C161   C     0.33604   0.12808   0.08188   0.00000  Uiso   1.00
H162   H     0.26471   0.97811   0.93124   0.00000  Uiso   1.00
H163   H     0.33166   0.89477   0.91549   0.00000  Uiso   1.00
H164   H     0.15893   0.96072   0.94316   0.00000  Uiso   1.00
H165   H     0.30135   0.07840   0.91402   0.00000  Uiso   1.00
H166   H     0.40926   0.80307   0.93122   0.00000  Uiso   1.00
H167   H     0.04505   0.94215   0.98955   0.00000  Uiso   1.00
H168   H     0.34536   0.19031   0.92811   0.00000  Uiso   1.00
H169   H     0.29080   0.98362   0.18688   0.00000  Uiso   1.00
H170   H     0.35919   0.90058   0.18517   0.00000  Uiso   1.00
H171   H     0.18646   0.96653   0.21283   0.00000  Uiso   1.00
H172   H     0.32887   0.08421   0.18370   0.00000  Uiso   1.00
H173   H     0.43160   0.80778   0.15010   0.00000  Uiso   1.00
H174   H     0.06739   0.94687   0.20842   0.00000  Uiso   1.00
H175   H     0.36770   0.19502   0.14699   0.00000  Uiso   1.00
O176   O     0.46493   0.75069   0.03492   0.00000  Uiso   1.00
O177   O     0.98710   0.93316   0.11144   0.00000  Uiso   1.00
O178   O     0.38110   0.25874   0.03084   0.00000  Uiso   1.00
N179   N     0.40514   0.81558   0.98297   0.00000  Uiso   1.00
N180   N     0.06463   0.94560   0.03750   0.00000  Uiso   1.00
N181   N     0.34537   0.17762   0.98007   0.00000  Uiso   1.00
N182   N     0.41716   0.81812   0.10074   0.00000  Uiso   1.00
N183   N     0.07665   0.94814   0.15527   0.00000  Uiso   1.00
N184   N     0.35740   0.18016   0.09784   0.00000  Uiso   1.00
C185   C     0.52062   0.77069   0.51019   0.00000  Uiso   1.00
C186   C     0.56514   0.81069   0.48330   0.00000  Uiso   1.00
C187   C     0.60399   0.83762   0.52629   0.00000  Uiso   1.00
C188   C     0.64120   0.87254   0.49135   0.00000  Uiso   1.00
C189   C     0.71059   0.93346   0.46102   0.00000  Uiso   1.00
C190   C     0.52931   0.71684   0.46827   0.00000  Uiso   1.00
C191   C     0.53803   0.66486   0.49862   0.00000  Uiso   1.00
C192   C     0.54508   0.62078   0.45102   0.00000  Uiso   1.00
C193   C     0.55881   0.53599   0.39737   0.00000  Uiso   1.00
C194   C     0.46538   0.79422   0.48410   0.00000  Uiso   1.00
C195   C     0.42033   0.80729   0.52776   0.00000  Uiso   1.00
C196   C     0.37354   0.82835   0.49349   0.00000  Uiso   1.00
C197   C     0.28799   0.86371   0.46441   0.00000  Uiso   1.00
C198   C     0.51764   0.78482   0.37169   0.00000  Uiso   1.00
C199   C     0.56352   0.81836   0.40807   0.00000  Uiso   1.00
C200   C     0.60068   0.85326   0.37305   0.00000  Uiso   1.00
C201   C     0.63958   0.88023   0.41598   0.00000  Uiso   1.00
C202   C     0.52769   0.72451   0.39304   0.00000  Uiso   1.00
C203   C     0.53473   0.68050   0.34538   0.00000  Uiso   1.00
C204   C     0.54346   0.62847   0.37566   0.00000  Uiso   1.00
C205   C     0.46375   0.80190   0.40887   0.00000  Uiso   1.00
C206   C     0.41703   0.82294   0.37452   0.00000  Uiso   1.00
C207   C     0.37192   0.83604   0.41812   0.00000  Uiso   1.00
H208   H     0.52189   0.76471   0.56876   0.00000  Uiso   1.00
H209   H     0.60523   0.83166   0.58451   0.00000  Uiso   1.00
H210   H     0.53928   0.65893   0.55684   0.00000  Uiso   1.00
H211   H     0.42160   0.80135   0.58598   0.00000  Uiso   1.00
H212   H     0.69693   0.90926   0.56878   0.00000  Uiso   1.00
H213   H     0.55785   0.54505   0.51045   0.00000  Uiso   1.00
H214   H     0.30969   0.84536   0.57189   0.00000  Uiso   1.00
H215   H     0.51638   0.79080   0.31312   0.00000  Uiso   1.00
H216   H     0.59942   0.85919   0.31483   0.00000  Uiso   1.00
H217   H     0.53347   0.68646   0.28717   0.00000  Uiso   1.00
H218   H     0.41579   0.82887   0.31630   0.00000  Uiso   1.00
H219   H     0.69222   0.93160   0.34990   0.00000  Uiso   1.00
H220   H     0.55313   0.56739   0.29158   0.00000  Uiso   1.00
H221   H     0.30498   0.86770   0.35301   0.00000  Uiso   1.00
O222   O     0.74931   0.96493   0.46508   0.00000  Uiso   1.00
O223   O     0.56684   0.48710   0.38856   0.00000  Uiso   1.00
O224   O     0.24126   0.88110   0.46916   0.00000  Uiso   1.00
N225   N     0.68442   0.90514   0.51703   0.00000  Uiso   1.00
N226   N     0.55440   0.56463   0.46250   0.00000  Uiso   1.00
N227   N     0.32238   0.84537   0.51993   0.00000  Uiso   1.00
N228   N     0.68188   0.91716   0.39926   0.00000  Uiso   1.00
N229   N     0.55186   0.57665   0.34473   0.00000  Uiso   1.00
N230   N     0.31984   0.85740   0.40216   0.00000  Uiso   1.00
C231   C     0.02062   0.27069   0.01019   0.00000  Uiso   1.00
C232   C     0.06514   0.31069   0.98330   0.00000  Uiso   1.00
C233   C     0.10399   0.33762   0.02629   0.00000  Uiso   1.00
C234   C     0.14120   0.37254   0.99135   0.00000  Uiso   1.00
C235   C     0.21059   0.43346   0.96102   0.00000  Uiso   1.00
C236   C     0.02931   0.21684   0.96827   0.00000  Uiso   1.00
C237   C     0.03803   0.16486   0.99862   0.00000  Uiso   1.00
C238   C     0.04508   0.12078   0.95102   0.00000  Uiso   1.00
C239   C     0.05881   0.03599   0.89737   0.00000  Uiso   1.00
C240   C     0.96538   0.29422   0.98410   0.00000  Uiso   1.00
C241   C     0.92033   0.30729   0.02776   0.00000  Uiso   1.00
C242   C     0.87354   0.32835   0.99349   0.00000  Uiso   1.00
C243   C     0.78799   0.36371   0.96441   0.00000  Uiso   1.00
C244   C     0.01764   0.28482   0.87169   0.00000  Uiso   1.00
C245   C     0.06352   0.31836   0.90807   0.00000  Uiso   1.00
C246   C     0.10068   0.35326   0.87305   0.00000  Uiso   1.00
C247   C     0.13958   0.38023   0.91598   0.00000  Uiso   1.00
C248   C     0.02769   0.22451   0.89304   0.00000  Uiso   1.00
C249   C     0.03473   0.18050   0.84538   0.00000  Uiso   1.00
C250   C     0.04346   0.12847   0.87566   0.00000  Uiso   1.00
C251   C     0.96375   0.30190   0.90887   0.00000  Uiso   1.00
C252   C     0.91703   0.32294   0.87452   0.00000  Uiso   1.00
C253   C     0.87192   0.33604   0.91812   0.00000  Uiso   1.00
H254   H     0.02189   0.26471   0.06876   0.00000  Uiso   1.00
H255   H     0.10523   0.33166   0.08451   0.00000  Uiso   1.00
H256   H     0.03928   0.15893   0.05684   0.00000  Uiso   1.00
H257   H     0.92160   0.30135   0.08598   0.00000  Uiso   1.00
H258   H     0.19693   0.40926   0.06878   0.00000  Uiso   1.00
H259   H     0.05785   0.04505   0.01045   0.00000  Uiso   1.00
H260   H     0.80969   0.34536   0.07189   0.00000  Uiso   1.00
H261   H     0.01638   0.29080   0.81312   0.00000  Uiso   1.00
H262   H     0.09942   0.35919   0.81483   0.00000  Uiso   1.00
H263   H     0.03347   0.18646   0.78717   0.00000  Uiso   1.00
H264   H     0.91579   0.32887   0.81630   0.00000  Uiso   1.00
H265   H     0.19222   0.43160   0.84990   0.00000  Uiso   1.00
H266   H     0.05313   0.06739   0.79158   0.00000  Uiso   1.00
H267   H     0.80498   0.36770   0.85301   0.00000  Uiso   1.00
O268   O     0.24931   0.46493   0.96508   0.00000  Uiso   1.00
O269   O     0.06684   0.98710   0.88856   0.00000  Uiso   1.00
O270   O     0.74126   0.38110   0.96916   0.00000  Uiso   1.00
N271   N     0.18442   0.40514   0.01703   0.00000  Uiso   1.00
N272   N     0.05440   0.06463   0.96250   0.00000  Uiso   1.00
N273   N     0.82238   0.34537   0.01993   0.00000  Uiso   1.00
N274   N     0.18188   0.41716   0.89926   0.00000  Uiso   1.00
N275   N     0.05186   0.07665   0.84473   0.00000  Uiso   1.00
N276   N     0.81984   0.35740   0.90216   0.00000  Uiso   1.00
C277   C     0.47938   0.22931   0.51019   0.00000  Uiso   1.00
C278   C     0.43486   0.18931   0.48330   0.00000  Uiso   1.00
C279   C     0.39601   0.16238   0.52629   0.00000  Uiso   1.00
C280   C     0.35880   0.12746   0.49135   0.00000  Uiso   1.00
C281   C     0.28941   0.06654   0.46102   0.00000  Uiso   1.00
C282   C     0.47069   0.28316   0.46827   0.00000  Uiso   1.00
C283   C     0.46197   0.33514   0.49862   0.00000  Uiso   1.00
C284   C     0.45492   0.37922   0.45102   0.00000  Uiso   1.00
C285   C     0.44119   0.46401   0.39737   0.00000  Uiso   1.00
C286   C     0.53462   0.20578   0.48410   0.00000  Uiso   1.00
C287   C     0.57967   0.19271   0.52776   0.00000  Uiso   1.00
C288   C     0.62646   0.17165   0.49349   0.00000  Uiso   1.00
C289   C     0.71201   0.13629   0.46441   0.00000  Uiso   1.00
C290   C     0.48236   0.21518   0.37169   0.00000  Uiso   1.00
C291   C     0.43648   0.18164   0.40807   0.00000  Uiso   1.00
C292   C     0.39932   0.14674   0.37305   0.00000  Uiso   1.00
C293   C     0.36042   0.11977   0.41598   0.00000  Uiso   1.00
C294   C     0.47231   0.27549   0.39304   0.00000  Uiso   1.00
C295   C     0.46527   0.31950   0.34538   0.00000  Uiso   1.00
C296   C     0.45654   0.37153   0.37566   0.00000  Uiso   1.00
C297   C     0.53625   0.19810   0.40887   0.00000  Uiso   1.00
C298   C     0.58297   0.17706   0.37452   0.00000  Uiso   1.00
C299   C     0.62808   0.16396   0.41812   0.00000  Uiso   1.00
H300   H     0.47811   0.23529   0.56876   0.00000  Uiso   1.00
H301   H     0.39477   0.16834   0.58451   0.00000  Uiso   1.00
H302   H     0.46072   0.34107   0.55684   0.00000  Uiso   1.00
H303   H     0.57840   0.19865   0.58598   0.00000  Uiso   1.00
H304   H     0.30307   0.09074   0.56878   0.00000  Uiso   1.00
H305   H     0.44215   0.45495   0.51045   0.00000  Uiso   1.00
H306   H     0.69031   0.15464   0.57189   0.00000  Uiso   1.00
H307   H     0.48362   0.20920   0.31312   0.00000  Uiso   1.00
H308   H     0.40058   0.14081   0.31483   0.00000  Uiso   1.00
H309   H     0.46653   0.31354   0.28717   0.00000  Uiso   1.00
H310   H     0.58421   0.17113   0.31630   0.00000  Uiso   1.00
H311   H     0.30778   0.06840   0.34990   0.00000  Uiso   1.00
H312   H     0.44687   0.43261   0.29158   0.00000  Uiso   1.00
H313   H     0.69502   0.13230   0.35301   0.00000  Uiso   1.00
O314   O     0.25069   0.03507   0.46508   0.00000  Uiso   1.00
O315   O     0.43316   0.51290   0.38856   0.00000  Uiso   1.00
O316   O     0.75874   0.11890   0.46916   0.00000  Uiso   1.00
N317   N     0.31558   0.09486   0.51703   0.00000  Uiso   1.00
N318   N     0.44560   0.43537   0.46250   0.00000  Uiso   1.00
N319   N     0.67762   0.15463   0.51993   0.00000  Uiso   1.00
N320   N     0.31812   0.08284   0.39926   0.00000  Uiso   1.00
N321   N     0.44814   0.42335   0.34473   0.00000  Uiso   1.00
N322   N     0.68016   0.14260   0.40216   0.00000  Uiso   1.00
C323   C     0.97938   0.72931   0.01019   0.00000  Uiso   1.00
C324   C     0.93486   0.68931   0.98330   0.00000  Uiso   1.00
C325   C     0.89601   0.66238   0.02629   0.00000  Uiso   1.00
C326   C     0.85880   0.62746   0.99135   0.00000  Uiso   1.00
C327   C     0.78941   0.56654   0.96102   0.00000  Uiso   1.00
C328   C     0.97069   0.78316   0.96827   0.00000  Uiso   1.00
C329   C     0.96197   0.83514   0.99862   0.00000  Uiso   1.00
C330   C     0.95492   0.87922   0.95102   0.00000  Uiso   1.00
C331   C     0.94119   0.96401   0.89737   0.00000  Uiso   1.00
C332   C     0.03462   0.70578   0.98410   0.00000  Uiso   1.00
C333   C     0.07967   0.69271   0.02776   0.00000  Uiso   1.00
C334   C     0.12646   0.67165   0.99349   0.00000  Uiso   1.00
C335   C     0.21201   0.63629   0.96441   0.00000  Uiso   1.00
C336   C     0.98236   0.71518   0.87169   0.00000  Uiso   1.00
C337   C     0.93648   0.68164   0.90807   0.00000  Uiso   1.00
C338   C     0.89932   0.64674   0.87305   0.00000  Uiso   1.00
C339   C     0.86042   0.61977   0.91598   0.00000  Uiso   1.00
C340   C     0.97231   0.77549   0.89304   0.00000  Uiso   1.00
C341   C     0.96527   0.81950   0.84538   0.00000  Uiso   1.00
C342   C     0.95654   0.87153   0.87566   0.00000  Uiso   1.00
C343   C     0.03625   0.69810   0.90887   0.00000  Uiso   1.00
C344   C     0.08297   0.67706   0.87452   0.00000  Uiso   1.00
C345   C     0.12808   0.66396   0.91812   0.00000  Uiso   1.00
H346   H     0.97811   0.73529   0.06876   0.00000  Uiso   1.00
H347   H     0.89477   0.66834   0.08451   0.00000  Uiso   1.00
H348   H     0.96072   0.84107   0.05684   0.00000  Uiso   1.00
H349   H     0.07840   0.69865   0.08598   0.00000  Uiso   1.00
H350   H     0.80307   0.59074   0.06878   0.00000  Uiso   1.00
H351   H     0.94215   0.95495   0.01045   0.00000  Uiso   1.00
H352   H     0.19031   0.65464   0.07189   0.00000  Uiso   1.00
H353   H     0.98362   0.70920   0.81312   0.00000  Uiso   1.00
H354   H     0.90058   0.64081   0.81483   0.00000  Uiso   1.00
H355   H     0.96653   0.81354   0.78717   0.00000  Uiso   1.00
H356   H     0.08421   0.67113   0.81630   0.00000  Uiso   1.00
H357   H     0.80778   0.56840   0.84990   0.00000  Uiso   1.00
H358   H     0.94687   0.93261   0.79158   0.00000  Uiso   1.00
H359   H     0.19502   0.63230   0.85301   0.00000  Uiso   1.00
O360   O     0.75069   0.53507   0.96508   0.00000  Uiso   1.00
O361   O     0.93316   0.01290   0.88856   0.00000  Uiso   1.00
O362   O     0.25874   0.61890   0.96916   0.00000  Uiso   1.00
N363   N     0.81558   0.59486   0.01703   0.00000  Uiso   1.00
N364   N     0.94560   0.93537   0.96250   0.00000  Uiso   1.00
N365   N     0.17762   0.65463   0.01993   0.00000  Uiso   1.00
N366   N     0.81812   0.58284   0.89926   0.00000  Uiso   1.00
N367   N     0.94814   0.92335   0.84473   0.00000  Uiso   1.00
N368   N     0.18016   0.64260   0.90216   0.00000  Uiso   1.00
C369   C     0.27069   0.52062   0.26019   0.00000  Uiso   1.00
C370   C     0.31069   0.56514   0.23330   0.00000  Uiso   1.00
C371   C     0.33762   0.60399   0.27629   0.00000  Uiso   1.00
C372   C     0.37254   0.64120   0.24135   0.00000  Uiso   1.00
C373   C     0.43346   0.71059   0.21102   0.00000  Uiso   1.00
C374   C     0.21684   0.52931   0.21827   0.00000  Uiso   1.00
C375   C     0.16486   0.53803   0.24862   0.00000  Uiso   1.00
C376   C     0.12078   0.54508   0.20102   0.00000  Uiso   1.00
C377   C     0.03599   0.55881   0.14737   0.00000  Uiso   1.00
C378   C     0.29422   0.46538   0.23410   0.00000  Uiso   1.00
C379   C     0.30729   0.42033   0.27776   0.00000  Uiso   1.00
C380   C     0.32835   0.37354   0.24349   0.00000  Uiso   1.00
C381   C     0.36371   0.28799   0.21441   0.00000  Uiso   1.00
C382   C     0.28482   0.51764   0.12169   0.00000  Uiso   1.00
C383   C     0.31836   0.56352   0.15807   0.00000  Uiso   1.00
C384   C     0.35326   0.60068   0.12305   0.00000  Uiso   1.00
C385   C     0.38023   0.63958   0.16598   0.00000  Uiso   1.00
C386   C     0.22451   0.52769   0.14304   0.00000  Uiso   1.00
C387   C     0.18050   0.53473   0.09538   0.00000  Uiso   1.00
C388   C     0.12847   0.54346   0.12566   0.00000  Uiso   1.00
C389   C     0.30190   0.46375   0.15887   0.00000  Uiso   1.00
C390   C     0.32294   0.41703   0.12452   0.00000  Uiso   1.00
C391   C     0.33604   0.37192   0.16812   0.00000  Uiso   1.00
H392   H     0.26471   0.52189   0.31876   0.00000  Uiso   1.00
H393   H     0.33166   0.60523   0.33451   0.00000  Uiso   1.00
H394   H     0.15893   0.53928   0.30684   0.00000  Uiso   1.00
H395   H     0.30135   0.42160   0.33598   0.00000  Uiso   1.00
H396   H     0.40926   0.69693   0.31878   0.00000  Uiso   1.00
H397   H     0.04505   0.55785   0.26045   0.00000  Uiso   1.00
H398   H     0.34536   0.30969   0.32189   0.00000  Uiso   1.00
H399   H     0.29080   0.51638   0.06312   0.00000  Uiso   1.00
H400   H     0.35919   0.59942   0.06483   0.00000  Uiso   1.00
H401   H     0.18646   0.53347   0.03717   0.00000  Uiso   1.00
H402   H     0.32887   0.41579   0.06630   0.00000  Uiso   1.00
H403   H     0.43160   0.69222   0.09990   0.00000  Uiso   1.00
H404   H     0.06739   0.55313   0.04158   0.00000  Uiso   1.00
H405   H     0.36770   0.30498   0.10301   0.00000  Uiso   1.00
O406   O     0.46493   0.74931   0.21508   0.00000  Uiso   1.00
O407   O     0.98710   0.56684   0.13856   0.00000  Uiso   1.00
O408   O     0.38110   0.24126   0.21916   0.00000  Uiso   1.00
N409   N     0.40514   0.68442   0.26703   0.00000  Uiso   1.00
N410   N     0.06463   0.55440   0.21250   0.00000  Uiso   1.00
N411   N     0.34537   0.32238   0.26993   0.00000  Uiso   1.00
N412   N     0.41716   0.68188   0.14926   0.00000  Uiso   1.00
N413   N     0.07665   0.55186   0.09473   0.00000  Uiso   1.00
N414   N     0.35740   0.31984   0.15216   0.00000  Uiso   1.00
C415   C     0.77069   0.02062   0.76019   0.00000  Uiso   1.00
C416   C     0.81069   0.06514   0.73330   0.00000  Uiso   1.00
C417   C     0.83762   0.10399   0.77629   0.00000  Uiso   1.00
C418   C     0.87254   0.14120   0.74135   0.00000  Uiso   1.00
C419   C     0.93346   0.21059   0.71102   0.00000  Uiso   1.00
C420   C     0.71684   0.02931   0.71827   0.00000  Uiso   1.00
C421   C     0.66486   0.03803   0.74862   0.00000  Uiso   1.00
C422   C     0.62078   0.04508   0.70102   0.00000  Uiso   1.00
C423   C     0.53599   0.05881   0.64737   0.00000  Uiso   1.00
C424   C     0.79422   0.96538   0.73410   0.00000  Uiso   1.00
C425   C     0.80729   0.92033   0.77776   0.00000  Uiso   1.00
C426   C     0.82835   0.87354   0.74349   0.00000  Uiso   1.00
C427   C     0.86371   0.78799   0.71441   0.00000  Uiso   1.00
C428   C     0.78482   0.01764   0.62169   0.00000  Uiso   1.00
C429   C     0.81836   0.06352   0.65807   0.00000  Uiso   1.00
C430   C     0.85326   0.10068   0.62305   0.00000  Uiso   1.00
C431   C     0.88023   0.13958   0.66598   0.00000  Uiso   1.00
C432   C     0.72451   0.02769   0.64304   0.00000  Uiso   1.00
C433   C     0.68050   0.03473   0.59538   0.00000  Uiso   1.00
C434   C     0.62847   0.04346   0.62566   0.00000  Uiso   1.00
C435   C     0.80190   0.96375   0.65887   0.00000  Uiso   1.00
C436   C     0.82294   0.91703   0.62452   0.00000  Uiso   1.00
C437   C     0.83604   0.87192   0.66812   0.00000  Uiso   1.00
H438   H     0.76471   0.02189   0.81876   0.00000  Uiso   1.00
H439   H     0.83166   0.10523   0.83451   0.00000  Uiso   1.00
H440   H     0.65893   0.03928   0.80684   0.00000  Uiso   1.00
H441   H     0.80135   0.92160   0.83598   0.00000  Uiso   1.00
H442   H     0.90926   0.19693   0.81878   0.00000  Uiso   1.00
H443   H     0.54505   0.05785   0.76045   0.00000  Uiso   1.00
H444   H     0.84536   0.80969   0.82189   0.00000  Uiso   1.00
H445   H     0.79080   0.01638   0.56312   0.00000  Uiso   1.00
H446   H     0.85919   0.09942   0.56483   0.00000  Uiso   1.00
H447   H     0.68646   0.03347   0.53717   0.00000  Uiso   1.00
H448   H     0.82887   0.91579   0.56630   0.00000  Uiso   1.00
H449   H     0.93160   0.19222   0.59990   0.00000  Uiso   1.00
H450   H     0.56739   0.05313   0.54158   0.00000  Uiso   1.00
H451   H     0.86770   0.80498   0.60301   0.00000  Uiso   1.00
O452   O     0.96493   0.24931   0.71508   0.00000  Uiso   1.00
O453   O     0.48710   0.06684   0.63856   0.00000  Uiso   1.00
O454   O     0.88110   0.74126   0.71916   0.00000  Uiso   1.00
N455   N     0.90514   0.18442   0.76703   0.00000  Uiso   1.00
N456   N     0.56463   0.05440   0.71250   0.00000  Uiso   1.00
N457   N     0.84537   0.82238   0.76993   0.00000  Uiso   1.00
N458   N     0.91716   0.18188   0.64926   0.00000  Uiso   1.00
N459   N     0.57665   0.05186   0.59473   0.00000  Uiso   1.00
N460   N     0.85740   0.81984   0.65216   0.00000  Uiso   1.00
C461   C     0.72931   0.47938   0.26019   0.00000  Uiso   1.00
C462   C     0.68931   0.43486   0.23330   0.00000  Uiso   1.00
C463   C     0.66238   0.39601   0.27629   0.00000  Uiso   1.00
C464   C     0.62746   0.35880   0.24135   0.00000  Uiso   1.00
C465   C     0.56654   0.28941   0.21102   0.00000  Uiso   1.00
C466   C     0.78316   0.47069   0.21827   0.00000  Uiso   1.00
C467   C     0.83514   0.46197   0.24862   0.00000  Uiso   1.00
C468   C     0.87922   0.45492   0.20102   0.00000  Uiso   1.00
C469   C     0.96401   0.44119   0.14737   0.00000  Uiso   1.00
C470   C     0.70578   0.53462   0.23410   0.00000  Uiso   1.00
C471   C     0.69271   0.57967   0.27776   0.00000  Uiso   1.00
C472   C     0.67165   0.62646   0.24349   0.00000  Uiso   1.00
C473   C     0.63629   0.71201   0.21441   0.00000  Uiso   1.00
C474   C     0.71518   0.48236   0.12169   0.00000  Uiso   1.00
C475   C     0.68164   0.43648   0.15807   0.00000  Uiso   1.00
C476   C     0.64674   0.39932   0.12305   0.00000  Uiso   1.00
C477   C     0.61977   0.36042   0.16598   0.00000  Uiso   1.00
C478   C     0.77549   0.47231   0.14304   0.00000  Uiso   1.00
C479   C     0.81950   0.46527   0.09538   0.00000  Uiso   1.00
C480   C     0.87153   0.45654   0.12566   0.00000  Uiso   1.00
C481   C     0.69810   0.53625   0.15887   0.00000  Uiso   1.00
C482   C     0.67706   0.58297   0.12452   0.00000  Uiso   1.00
C483   C     0.66396   0.62808   0.16812   0.00000  Uiso   1.00
H484   H     0.73529   0.47811   0.31876   0.00000  Uiso   1.00
H485   H     0.66834   0.39477   0.33451   0.00000  Uiso   1.00
H486   H     0.84107   0.46072   0.30684   0.00000  Uiso   1.00
H487   H     0.69865   0.57840   0.33598   0.00000  Uiso   1.00
H488   H     0.59074   0.30307   0.31878   0.00000  Uiso   1.00
H489   H     0.95495   0.44215   0.26045   0.00000  Uiso   1.00
H490   H     0.65464   0.69031   0.32189   0.00000  Uiso   1.00
H491   H     0.70920   0.48362   0.06312   0.00000  Uiso   1.00
H492   H     0.64081   0.40058   0.06483   0.00000  Uiso   1.00
H493   H     0.81354   0.46653   0.03717   0.00000  Uiso   1.00
H494   H     0.67113   0.58421   0.06630   0.00000  Uiso   1.00
H495   H     0.56840   0.30778   0.09990   0.00000  Uiso   1.00
H496   H     0.93261   0.44687   0.04158   0.00000  Uiso   1.00
H497   H     0.63230   0.69502   0.10301   0.00000  Uiso   1.00
O498   O     0.53507   0.25069   0.21508   0.00000  Uiso   1.00
O499   O     0.01290   0.43316   0.13856   0.00000  Uiso   1.00
O500   O     0.61890   0.75874   0.21916   0.00000  Uiso   1.00
N501   N     0.59486   0.31558   0.26703   0.00000  Uiso   1.00
N502   N     0.93537   0.44560   0.21250   0.00000  Uiso   1.00
N503   N     0.65463   0.67762   0.26993   0.00000  Uiso   1.00
N504   N     0.58284   0.31812   0.14926   0.00000  Uiso   1.00
N505   N     0.92335   0.44814   0.09473   0.00000  Uiso   1.00
N506   N     0.64260   0.68016   0.15216   0.00000  Uiso   1.00
C507   C     0.22931   0.97938   0.76019   0.00000  Uiso   1.00
C508   C     0.18931   0.93486   0.73330   0.00000  Uiso   1.00
C509   C     0.16238   0.89601   0.77629   0.00000  Uiso   1.00
C510   C     0.12746   0.85880   0.74135   0.00000  Uiso   1.00
C511   C     0.06654   0.78941   0.71102   0.00000  Uiso   1.00
C512   C     0.28316   0.97069   0.71827   0.00000  Uiso   1.00
C513   C     0.33514   0.96197   0.74862   0.00000  Uiso   1.00
C514   C     0.37922   0.95492   0.70102   0.00000  Uiso   1.00
C515   C     0.46401   0.94119   0.64737   0.00000  Uiso   1.00
C516   C     0.20578   0.03462   0.73410   0.00000  Uiso   1.00
C517   C     0.19271   0.07967   0.77776   0.00000  Uiso   1.00
C518   C     0.17165   0.12646   0.74349   0.00000  Uiso   1.00
C519   C     0.13629   0.21201   0.71441   0.00000  Uiso   1.00
C520   C     0.21518   0.98236   0.62169   0.00000  Uiso   1.00
C521   C     0.18164   0.93648   0.65807   0.00000  Uiso   1.00
C522   C     0.14674   0.89932   0.62305   0.00000  Uiso   1.00
C523   C     0.11977   0.86042   0.66598   0.00000  Uiso   1.00
C524   C     0.27549   0.97231   0.64304   0.00000  Uiso   1.00
C525   C     0.31950   0.96527   0.59538   0.00000  Uiso   1.00
C526   C     0.37153   0.95654   0.62566   0.00000  Uiso   1.00
C527   C     0.19810   0.03625   0.65887   0.00000  Uiso   1.00
C528   C     0.17706   0.08297   0.62452   0.00000  Uiso   1.00
C529   C     0.16396   0.12808   0.66812   0.00000  Uiso   1.00
H530   H     0.23529   0.97811   0.81876   0.00000  Uiso   1.00
H531   H     0.16834   0.89477   0.83451   0.00000  Uiso   1.00
H532   H     0.34107   0.96072   0.80684   0.00000  Uiso   1.00
H533   H     0.19865   0.07840   0.83598   0.00000  Uiso   1.00
H534   H     0.09074   0.80307   0.81878   0.00000  Uiso   1.00
H535   H     0.45495   0.94215   0.76045   0.00000  Uiso   1.00
H536   H     0.15464   0.19031   0.82189   0.00000  Uiso   1.00
H537   H     0.20920   0.98362   0.56312   0.00000  Uiso   1.00
H538   H     0.14081   0.90058   0.56483   0.00000  Uiso   1.00
H539   H     0.31354   0.96653   0.53717   0.00000  Uiso   1.00
H540   H     0.17113   0.08421   0.56630   0.00000  Uiso   1.00
H541   H     0.06840   0.80778   0.59990   0.00000  Uiso   1.00
H542   H     0.43261   0.94687   0.54158   0.00000  Uiso   1.00
H543   H     0.13230   0.19502   0.60301   0.00000  Uiso   1.00
O544   O     0.03507   0.75069   0.71508   0.00000  Uiso   1.00
O545   O     0.51290   0.93316   0.63856   0.00000  Uiso   1.00
O546   O     0.11890   0.25874   0.71916   0.00000  Uiso   1.00
N547   N     0.09486   0.81558   0.76703   0.00000  Uiso   1.00
N548   N     0.43537   0.94560   0.71250   0.00000  Uiso   1.00
N549   N     0.15463   0.17762   0.76993   0.00000  Uiso   1.00
N550   N     0.08284   0.81812   0.64926   0.00000  Uiso   1.00
N551   N     0.42335   0.94814   0.59473   0.00000  Uiso   1.00
N552   N     0.14260   0.18016   0.65216   0.00000  Uiso   1.00
C553   C     0.97938   0.77069   0.23981   0.00000  Uiso   1.00
C554   C     0.93486   0.81069   0.26670   0.00000  Uiso   1.00
C555   C     0.89601   0.83762   0.22371   0.00000  Uiso   1.00
C556   C     0.85880   0.87254   0.25865   0.00000  Uiso   1.00
C557   C     0.78941   0.93346   0.28898   0.00000  Uiso   1.00
C558   C     0.97069   0.71684   0.28173   0.00000  Uiso   1.00
C559   C     0.96197   0.66486   0.25138   0.00000  Uiso   1.00
C560   C     0.95492   0.62078   0.29898   0.00000  Uiso   1.00
C561   C     0.94119   0.53599   0.35263   0.00000  Uiso   1.00
C562   C     0.03462   0.79422   0.26590   0.00000  Uiso   1.00
C563   C     0.07967   0.80729   0.22224   0.00000  Uiso   1.00
C564   C     0.12646   0.82835   0.25651   0.00000  Uiso   1.00
C565   C     0.21201   0.86371   0.28559   0.00000  Uiso   1.00
C566   C     0.98236   0.78482   0.37831   0.00000  Uiso   1.00
C567   C     0.93648   0.81836   0.34193   0.00000  Uiso   1.00
C568   C     0.89932   0.85326   0.37695   0.00000  Uiso   1.00
C569   C     0.86042   0.88023   0.33402   0.00000  Uiso   1.00
C570   C     0.97231   0.72451   0.35696   0.00000  Uiso   1.00
C571   C     0.96527   0.68050   0.40462   0.00000  Uiso   1.00
C572   C     0.95654   0.62847   0.37434   0.00000  Uiso   1.00
C573   C     0.03625   0.80190   0.34113   0.00000  Uiso   1.00
C574   C     0.08297   0.82294   0.37548   0.00000  Uiso   1.00
C575   C     0.12808   0.83604   0.33188   0.00000  Uiso   1.00
H576   H     0.97811   0.76471   0.18124   0.00000  Uiso   1.00
H577   H     0.89477   0.83166   0.16549   0.00000  Uiso   1.00
H578   H     0.96072   0.65893   0.19316   0.00000  Uiso   1.00
H579   H     0.07840   0.80135   0.16402   0.00000  Uiso   1.00
H580   H     0.80307   0.90926   0.18122   0.00000  Uiso   1.00
H581   H     0.94215   0.54505   0.23955   0.00000  Uiso   1.00
H582   H     0.19031   0.84536   0.17811   0.00000  Uiso   1.00
H583   H     0.98362   0.79080   0.43688   0.00000  Uiso   1.00
H584   H     0.90058   0.85919   0.43517   0.00000  Uiso   1.00
H585   H     0.96653   0.68646   0.46283   0.00000  Uiso   1.00
H586   H     0.08421   0.82887   0.43370   0.00000  Uiso   1.00
H587   H     0.80778   0.93160   0.40010   0.00000  Uiso   1.00
H588   H     0.94687   0.56739   0.45842   0.00000  Uiso   1.00
H589   H     0.19502   0.86770   0.39699   0.00000  Uiso   1.00
O590   O     0.75069   0.96493   0.28492   0.00000  Uiso   1.00
O591   O     0.93316   0.48710   0.36144   0.00000  Uiso   1.00
O592   O     0.25874   0.88110   0.28084   0.00000  Uiso   1.00
N593   N     0.81558   0.90514   0.23297   0.00000  Uiso   1.00
N594   N     0.94560   0.56463   0.28750   0.00000  Uiso   1.00
N595   N     0.17762   0.84537   0.23007   0.00000  Uiso   1.00
N596   N     0.81812   0.91716   0.35074   0.00000  Uiso   1.00
N597   N     0.94814   0.57665   0.40527   0.00000  Uiso   1.00
N598   N     0.18016   0.85740   0.34784   0.00000  Uiso   1.00
C599   C     0.47938   0.27069   0.73981   0.00000  Uiso   1.00
C600   C     0.43486   0.31069   0.76670   0.00000  Uiso   1.00
C601   C     0.39601   0.33762   0.72371   0.00000  Uiso   1.00
C602   C     0.35880   0.37254   0.75865   0.00000  Uiso   1.00
C603   C     0.28941   0.43346   0.78898   0.00000  Uiso   1.00
C604   C     0.47069   0.21684   0.78173   0.00000  Uiso   1.00
C605   C     0.46197   0.16486   0.75138   0.00000  Uiso   1.00
C606   C     0.45492   0.12078   0.79898   0.00000  Uiso   1.00
C607   C     0.44119   0.03599   0.85263   0.00000  Uiso   1.00
C608   C     0.53462   0.29422   0.76590   0.00000  Uiso   1.00
C609   C     0.57967   0.30729   0.72224   0.00000  Uiso   1.00
C610   C     0.62646   0.32835   0.75651   0.00000  Uiso   1.00
C611   C     0.71201   0.36371   0.78559   0.00000  Uiso   1.00
C612   C     0.48236   0.28482   0.87831   0.00000  Uiso   1.00
C613   C     0.43648   0.31836   0.84193   0.00000  Uiso   1.00
C614   C     0.39932   0.35326   0.87695   0.00000  Uiso   1.00
C615   C     0.36042   0.38023   0.83402   0.00000  Uiso   1.00
C616   C     0.47231   0.22451   0.85696   0.00000  Uiso   1.00
C617   C     0.46527   0.18050   0.90462   0.00000  Uiso   1.00
C618   C     0.45654   0.12847   0.87434   0.00000  Uiso   1.00
C619   C     0.53625   0.30190   0.84113   0.00000  Uiso   1.00
C620   C     0.58297   0.32294   0.87548   0.00000  Uiso   1.00
C621   C     0.62808   0.33604   0.83188   0.00000  Uiso   1.00
H622   H     0.47811   0.26471   0.68124   0.00000  Uiso   1.00
H623   H     0.39477   0.33166   0.66549   0.00000  Uiso   1.00
H624   H     0.46072   0.15893   0.69316   0.00000  Uiso   1.00
H625   H     0.57840   0.30135   0.66402   0.00000  Uiso   1.00
H626   H     0.30307   0.40926   0.68122   0.00000  Uiso   1.00
H627   H     0.44215   0.04505   0.73955   0.00000  Uiso   1.00
H628   H     0.69031   0.34536   0.67811   0.00000  Uiso   1.00
H629   H     0.48362   0.29080   0.93688   0.00000  Uiso   1.00
H630   H     0.40058   0.35919   0.93517   0.00000  Uiso   1.00
H631   H     0.46653   0.18646   0.96283   0.00000  Uiso   1.00
H632   H     0.58421   0.32887   0.93370   0.00000  Uiso   1.00
H633   H     0.30778   0.43160   0.90010   0.00000  Uiso   1.00
H634   H     0.44687   0.06739   0.95842   0.00000  Uiso   1.00
H635   H     0.69502   0.36770   0.89699   0.00000  Uiso   1.00
O636   O     0.25069   0.46493   0.78492   0.00000  Uiso   1.00
O637   O     0.43316   0.98710   0.86144   0.00000  Uiso   1.00
O638   O     0.75874   0.38110   0.78084   0.00000  Uiso   1.00
N639   N     0.31558   0.40514   0.73297   0.00000  Uiso   1.00
N640   N     0.44560   0.06463   0.78750   0.00000  Uiso   1.00
N641   N     0.67762   0.34537   0.73007   0.00000  Uiso   1.00
N642   N     0.31812   0.41716   0.85074   0.00000  Uiso   1.00
N643   N     0.44814   0.07665   0.90527   0.00000  Uiso   1.00
N644   N     0.68016   0.35740   0.84784   0.00000  Uiso   1.00
C645   C     0.02062   0.22931   0.23981   0.00000  Uiso   1.00
C646   C     0.06514   0.18931   0.26670   0.00000  Uiso   1.00
C647   C     0.10399   0.16238   0.22371   0.00000  Uiso   1.00
C648   C     0.14120   0.12746   0.25865   0.00000  Uiso   1.00
C649   C     0.21059   0.06654   0.28898   0.00000  Uiso   1.00
C650   C     0.02931   0.28316   0.28173   0.00000  Uiso   1.00
C651   C     0.03803   0.33514   0.25138   0.00000  Uiso   1.00
C652   C     0.04508   0.37922   0.29898   0.00000  Uiso   1.00
C653   C     0.05881   0.46401   0.35263   0.00000  Uiso   1.00
C654   C     0.96538   0.20578   0.26590   0.00000  Uiso   1.00
C655   C     0.92033   0.19271   0.22224   0.00000  Uiso   1.00
C656   C     0.87354   0.17165   0.25651   0.00000  Uiso   1.00
C657   C     0.78799   0.13629   0.28559   0.00000  Uiso   1.00
C658   C     0.01764   0.21518   0.37831   0.00000  Uiso   1.00
C659   C     0.06352   0.18164   0.34193   0.00000  Uiso   1.00
C660   C     0.10068   0.14674   0.37695   0.00000  Uiso   1.00
C661   C     0.13958   0.11977   0.33402   0.00000  Uiso   1.00
C662   C     0.02769   0.27549   0.35696   0.00000  Uiso   1.00
C663   C     0.03473   0.31950   0.40462   0.00000  Uiso   1.00
C664   C     0.04346   0.37153   0.37434   0.00000  Uiso   1.00
C665   C     0.96375   0.19810   0.34113   0.00000  Uiso   1.00
C666   C     0.91703   0.17706   0.37548   0.00000  Uiso   1.00
C667   C     0.87192   0.16396   0.33188   0.00000  Uiso   1.00
H668   H     0.02189   0.23529   0.18124   0.00000  Uiso   1.00
H669   H     0.10523   0.16834   0.16549   0.00000  Uiso   1.00
H670   H     0.03928   0.34107   0.19316   0.00000  Uiso   1.00
H671   H     0.92160   0.19865   0.16402   0.00000  Uiso   1.00
H672   H     0.19693   0.09074   0.18122   0.00000  Uiso   1.00
H673   H     0.05785   0.45495   0.23955   0.00000  Uiso   1.00
H674   H     0.80969   0.15464   0.17811   0.00000  Uiso   1.00
H675   H     0.01638   0.20920   0.43688   0.00000  Uiso   1.00
H676   H     0.09942   0.14081   0.43517   0.00000  Uiso   1.00
H677   H     0.03347   0.31354   0.46283   0.00000  Uiso   1.00
H678   H     0.91579   0.17113   0.43370   0.00000  Uiso   1.00
H679   H     0.19222   0.06840   0.40010   0.00000  Uiso   1.00
H680   H     0.05313   0.43261   0.45842   0.00000  Uiso   1.00
H681   H     0.80498   0.13230   0.39699   0.00000  Uiso   1.00
O682   O     0.24931   0.03507   0.28492   0.00000  Uiso   1.00
O683   O     0.06684   0.51290   0.36144   0.00000  Uiso   1.00
O684   O     0.74126   0.11890   0.28084   0.00000  Uiso   1.00
N685   N     0.18442   0.09486   0.23297   0.00000  Uiso   1.00
N686   N     0.05440   0.43537   0.28750   0.00000  Uiso   1.00
N687   N     0.82238   0.15463   0.23007   0.00000  Uiso   1.00
N688   N     0.18188   0.08284   0.35074   0.00000  Uiso   1.00
N689   N     0.05186   0.42335   0.40527   0.00000  Uiso   1.00
N690   N     0.81984   0.14260   0.34784   0.00000  Uiso   1.00
C691   C     0.52062   0.72931   0.73981   0.00000  Uiso   1.00
C692   C     0.56514   0.68931   0.76670   0.00000  Uiso   1.00
C693   C     0.60399   0.66238   0.72371   0.00000  Uiso   1.00
C694   C     0.64120   0.62746   0.75865   0.00000  Uiso   1.00
C695   C     0.71059   0.56654   0.78898   0.00000  Uiso   1.00
C696   C     0.52931   0.78316   0.78173   0.00000  Uiso   1.00
C697   C     0.53803   0.83514   0.75138   0.00000  Uiso   1.00
C698   C     0.54508   0.87922   0.79898   0.00000  Uiso   1.00
C699   C     0.55881   0.96401   0.85263   0.00000  Uiso   1.00
C700   C     0.46538   0.70578   0.76590   0.00000  Uiso   1.00
C701   C     0.42033   0.69271   0.72224   0.00000  Uiso   1.00
C702   C     0.37354   0.67165   0.75651   0.00000  Uiso   1.00
C703   C     0.28799   0.63629   0.78559   0.00000  Uiso   1.00
C704   C     0.51764   0.71518   0.87831   0.00000  Uiso   1.00
C705   C     0.56352   0.68164   0.84193   0.00000  Uiso   1.00
C706   C     0.60068   0.64674   0.87695   0.00000  Uiso   1.00
C707   C     0.63958   0.61977   0.83402   0.00000  Uiso   1.00
C708   C     0.52769   0.77549   0.85696   0.00000  Uiso   1.00
C709   C     0.53473   0.81950   0.90462   0.00000  Uiso   1.00
C710   C     0.54346   0.87153   0.87434   0.00000  Uiso   1.00
C711   C     0.46375   0.69810   0.84113   0.00000  Uiso   1.00
C712   C     0.41703   0.67706   0.87548   0.00000  Uiso   1.00
C713   C     0.37192   0.66396   0.83188   0.00000  Uiso   1.00
H714   H     0.52189   0.73529   0.68124   0.00000  Uiso   1.00
H715   H     0.60523   0.66834   0.66549   0.00000  Uiso   1.00
H716   H     0.53928   0.84107   0.69316   0.00000  Uiso   1.00
H717   H     0.42160   0.69865   0.66402   0.00000  Uiso   1.00
H718   H     0.69693   0.59074   0.68122   0.00000  Uiso   1.00
H719   H     0.55785   0.95495   0.73955   0.00000  Uiso   1.00
H720   H     0.30969   0.65464   0.67811   0.00000  Uiso   1.00
H721   H     0.51638   0.70920   0.93688   0.00000  Uiso   1.00
H722   H     0.59942   0.64081   0.93517   0.00000  Uiso   1.00
H723   H     0.53347   0.81354   0.96283   0.00000  Uiso   1.00
H724   H     0.41579   0.67113   0.93370   0.00000  Uiso   1.00
H725   H     0.69222   0.56840   0.90010   0.00000  Uiso   1.00
H726   H     0.55313   0.93261   0.95842   0.00000  Uiso   1.00
H727   H     0.30498   0.63230   0.89699   0.00000  Uiso   1.00
O728   O     0.74931   0.53507   0.78492   0.00000  Uiso   1.00
O729   O     0.56684   0.01290   0.86144   0.00000  Uiso   1.00
O730   O     0.24126   0.61890   0.78084   0.00000  Uiso   1.00
N731   N     0.68442   0.59486   0.73297   0.00000  Uiso   1.00
N732   N     0.55440   0.93537   0.78750   0.00000  Uiso   1.00
N733   N     0.32238   0.65463   0.73007   0.00000  Uiso   1.00
N734   N     0.68188   0.58284   0.85074   0.00000  Uiso   1.00
N735   N     0.55186   0.92335   0.90527   0.00000  Uiso   1.00
N736   N     0.31984   0.64260   0.84784   0.00000  Uiso   1.00
