data_job_05769
_audit_creation_date              2018-12-19
_audit_creation_method            'Materials Studio'
_symmetry_space_group_name_H-M    'P1'
_symmetry_Int_Tables_number       1
_symmetry_cell_setting            triclinic
loop_
_symmetry_equiv_pos_as_xyz
  x,y,z
_cell_length_a                    19.8991
_cell_length_b                    19.8991
_cell_length_c                    39.7350
_cell_angle_alpha                 90.0000
_cell_angle_beta                  90.0000
_cell_angle_gamma                 90.0000
loop_
_atom_site_label
_atom_site_type_symbol
_atom_site_fract_x
_atom_site_fract_y
_atom_site_fract_z
_atom_site_U_iso_or_equiv
_atom_site_adp_type
_atom_site_occupancy
C1     C     0.58922   0.80324   0.04379   0.00000  Uiso   1.00
C2     C     0.61927   0.77408   0.01165   0.00000  Uiso   1.00
C3     C     0.59745   0.78739   0.97915   0.00000  Uiso   1.00
C4     C     0.63157   0.75574   0.95312   0.00000  Uiso   1.00
C5     C     0.66999   0.71704   0.90225   0.00000  Uiso   1.00
C6     C     0.56949   0.74318   0.06548   0.00000  Uiso   1.00
C7     C     0.50582   0.73052   0.07826   0.00000  Uiso   1.00
C8     C     0.49803   0.67286   0.09754   0.00000  Uiso   1.00
C9     C     0.45919   0.58622   0.13028   0.00000  Uiso   1.00
C10    C     0.64700   0.83771   0.06216   0.00000  Uiso   1.00
C11    C     0.64850   0.90453   0.07214   0.00000  Uiso   1.00
C12    C     0.70597   0.92646   0.08864   0.00000  Uiso   1.00
C13    C     0.78747   0.98659   0.11621   0.00000  Uiso   1.00
C14    C     0.68860   0.72337   0.05534   0.00000  Uiso   1.00
C15    C     0.67324   0.73070   0.01792   0.00000  Uiso   1.00
C16    C     0.70740   0.69902   0.99193   0.00000  Uiso   1.00
C17    C     0.68564   0.71229   0.95940   0.00000  Uiso   1.00
C18    C     0.62346   0.69980   0.07176   0.00000  Uiso   1.00
C19    C     0.61577   0.64215   0.09104   0.00000  Uiso   1.00
C20    C     0.55211   0.62940   0.10383   0.00000  Uiso   1.00
C21    C     0.70098   0.79433   0.06843   0.00000  Uiso   1.00
C22    C     0.75845   0.81616   0.08492   0.00000  Uiso   1.00
C23    C     0.76005   0.88300   0.09492   0.00000  Uiso   1.00
H24    H     0.54719   0.83701   0.03891   0.00000  Uiso   1.00
H25    H     0.55567   0.82096   0.97431   0.00000  Uiso   1.00
H26    H     0.46406   0.76410   0.07340   0.00000  Uiso   1.00
H27    H     0.60672   0.93809   0.06728   0.00000  Uiso   1.00
H28    H     0.58886   0.78402   0.90545   0.00000  Uiso   1.00
H29    H     0.39570   0.66414   0.11440   0.00000  Uiso   1.00
H30    H     0.69652   0.03102   0.10150   0.00000  Uiso   1.00
H31    H     0.73062   0.68959   0.06023   0.00000  Uiso   1.00
H32    H     0.74918   0.66545   0.99679   0.00000  Uiso   1.00
H33    H     0.65756   0.60859   0.09589   0.00000  Uiso   1.00
H34    H     0.80022   0.78258   0.08977   0.00000  Uiso   1.00
H35    H     0.74592   0.65780   0.92370   0.00000  Uiso   1.00
H36    H     0.55275   0.53792   0.13266   0.00000  Uiso   1.00
H37    H     0.85357   0.90480   0.11975   0.00000  Uiso   1.00
O38    O     0.67627   0.70767   0.87247   0.00000  Uiso   1.00
O39    O     0.42284   0.55041   0.14661   0.00000  Uiso   1.00
O40    O     0.81752   0.03174   0.12968   0.00000  Uiso   1.00
N41    N     0.62329   0.75764   0.91845   0.00000  Uiso   1.00
N42    N     0.44268   0.64555   0.11380   0.00000  Uiso   1.00
N43    N     0.72392   0.98855   0.10175   0.00000  Uiso   1.00
N44    N     0.70780   0.68972   0.92827   0.00000  Uiso   1.00
N45    N     0.52719   0.57763   0.12363   0.00000  Uiso   1.00
N46    N     0.80843   0.92063   0.11157   0.00000  Uiso   1.00
C47    C     0.08922   0.30324   0.54379   0.00000  Uiso   1.00
C48    C     0.11927   0.27408   0.51165   0.00000  Uiso   1.00
C49    C     0.09745   0.28739   0.47915   0.00000  Uiso   1.00
C50    C     0.13157   0.25574   0.45312   0.00000  Uiso   1.00
C51    C     0.16999   0.21704   0.40225   0.00000  Uiso   1.00
C52    C     0.06949   0.24318   0.56548   0.00000  Uiso   1.00
C53    C     0.00582   0.23052   0.57826   0.00000  Uiso   1.00
C54    C     0.99803   0.17286   0.59754   0.00000  Uiso   1.00
C55    C     0.95919   0.08622   0.63028   0.00000  Uiso   1.00
C56    C     0.14700   0.33771   0.56216   0.00000  Uiso   1.00
C57    C     0.14850   0.40453   0.57214   0.00000  Uiso   1.00
C58    C     0.20597   0.42646   0.58864   0.00000  Uiso   1.00
C59    C     0.28747   0.48659   0.61621   0.00000  Uiso   1.00
C60    C     0.18860   0.22337   0.55534   0.00000  Uiso   1.00
C61    C     0.17324   0.23070   0.51792   0.00000  Uiso   1.00
C62    C     0.20740   0.19902   0.49193   0.00000  Uiso   1.00
C63    C     0.18564   0.21229   0.45940   0.00000  Uiso   1.00
C64    C     0.12346   0.19980   0.57176   0.00000  Uiso   1.00
C65    C     0.11577   0.14215   0.59104   0.00000  Uiso   1.00
C66    C     0.05211   0.12940   0.60383   0.00000  Uiso   1.00
C67    C     0.20098   0.29433   0.56843   0.00000  Uiso   1.00
C68    C     0.25845   0.31616   0.58492   0.00000  Uiso   1.00
C69    C     0.26005   0.38300   0.59492   0.00000  Uiso   1.00
H70    H     0.04719   0.33701   0.53891   0.00000  Uiso   1.00
H71    H     0.05567   0.32096   0.47431   0.00000  Uiso   1.00
H72    H     0.96406   0.26410   0.57340   0.00000  Uiso   1.00
H73    H     0.10672   0.43809   0.56728   0.00000  Uiso   1.00
H74    H     0.08886   0.28402   0.40545   0.00000  Uiso   1.00
H75    H     0.89570   0.16414   0.61440   0.00000  Uiso   1.00
H76    H     0.19652   0.53102   0.60150   0.00000  Uiso   1.00
H77    H     0.23062   0.18959   0.56023   0.00000  Uiso   1.00
H78    H     0.24918   0.16545   0.49679   0.00000  Uiso   1.00
H79    H     0.15756   0.10859   0.59589   0.00000  Uiso   1.00
H80    H     0.30022   0.28258   0.58977   0.00000  Uiso   1.00
H81    H     0.24592   0.15780   0.42370   0.00000  Uiso   1.00
H82    H     0.05275   0.03792   0.63266   0.00000  Uiso   1.00
H83    H     0.35357   0.40480   0.61975   0.00000  Uiso   1.00
O84    O     0.17627   0.20767   0.37247   0.00000  Uiso   1.00
O85    O     0.92284   0.05041   0.64661   0.00000  Uiso   1.00
O86    O     0.31752   0.53174   0.62968   0.00000  Uiso   1.00
N87    N     0.12329   0.25764   0.41845   0.00000  Uiso   1.00
N88    N     0.94268   0.14555   0.61380   0.00000  Uiso   1.00
N89    N     0.22392   0.48855   0.60175   0.00000  Uiso   1.00
N90    N     0.20780   0.18972   0.42827   0.00000  Uiso   1.00
N91    N     0.02719   0.07763   0.62363   0.00000  Uiso   1.00
N92    N     0.30843   0.42063   0.61157   0.00000  Uiso   1.00
C93    C     0.41078   0.19676   0.04379   0.00000  Uiso   1.00
C94    C     0.38073   0.22592   0.01165   0.00000  Uiso   1.00
C95    C     0.40255   0.21261   0.97915   0.00000  Uiso   1.00
C96    C     0.36843   0.24426   0.95312   0.00000  Uiso   1.00
C97    C     0.33001   0.28296   0.90225   0.00000  Uiso   1.00
C98    C     0.43051   0.25682   0.06548   0.00000  Uiso   1.00
C99    C     0.49418   0.26948   0.07826   0.00000  Uiso   1.00
C100   C     0.50197   0.32714   0.09754   0.00000  Uiso   1.00
C101   C     0.54081   0.41378   0.13028   0.00000  Uiso   1.00
C102   C     0.35300   0.16229   0.06216   0.00000  Uiso   1.00
C103   C     0.35150   0.09547   0.07214   0.00000  Uiso   1.00
C104   C     0.29403   0.07354   0.08864   0.00000  Uiso   1.00
C105   C     0.21253   0.01341   0.11621   0.00000  Uiso   1.00
C106   C     0.31140   0.27663   0.05534   0.00000  Uiso   1.00
C107   C     0.32676   0.26930   0.01792   0.00000  Uiso   1.00
C108   C     0.29260   0.30098   0.99193   0.00000  Uiso   1.00
C109   C     0.31436   0.28771   0.95940   0.00000  Uiso   1.00
C110   C     0.37654   0.30020   0.07176   0.00000  Uiso   1.00
C111   C     0.38423   0.35785   0.09104   0.00000  Uiso   1.00
C112   C     0.44789   0.37060   0.10383   0.00000  Uiso   1.00
C113   C     0.29902   0.20567   0.06843   0.00000  Uiso   1.00
C114   C     0.24155   0.18384   0.08492   0.00000  Uiso   1.00
C115   C     0.23995   0.11700   0.09492   0.00000  Uiso   1.00
H116   H     0.45281   0.16299   0.03891   0.00000  Uiso   1.00
H117   H     0.44433   0.17904   0.97431   0.00000  Uiso   1.00
H118   H     0.53594   0.23590   0.07340   0.00000  Uiso   1.00
H119   H     0.39328   0.06191   0.06728   0.00000  Uiso   1.00
H120   H     0.41114   0.21598   0.90545   0.00000  Uiso   1.00
H121   H     0.60430   0.33586   0.11440   0.00000  Uiso   1.00
H122   H     0.30348   0.96898   0.10150   0.00000  Uiso   1.00
H123   H     0.26938   0.31041   0.06023   0.00000  Uiso   1.00
H124   H     0.25082   0.33455   0.99679   0.00000  Uiso   1.00
H125   H     0.34244   0.39141   0.09589   0.00000  Uiso   1.00
H126   H     0.19978   0.21742   0.08977   0.00000  Uiso   1.00
H127   H     0.25408   0.34220   0.92370   0.00000  Uiso   1.00
H128   H     0.44725   0.46208   0.13266   0.00000  Uiso   1.00
H129   H     0.14643   0.09520   0.11975   0.00000  Uiso   1.00
O130   O     0.32373   0.29233   0.87247   0.00000  Uiso   1.00
O131   O     0.57716   0.44959   0.14661   0.00000  Uiso   1.00
O132   O     0.18248   0.96826   0.12968   0.00000  Uiso   1.00
N133   N     0.37671   0.24236   0.91845   0.00000  Uiso   1.00
N134   N     0.55732   0.35445   0.11380   0.00000  Uiso   1.00
N135   N     0.27608   0.01145   0.10175   0.00000  Uiso   1.00
N136   N     0.29220   0.31028   0.92827   0.00000  Uiso   1.00
N137   N     0.47281   0.42237   0.12363   0.00000  Uiso   1.00
N138   N     0.19157   0.07937   0.11157   0.00000  Uiso   1.00
C139   C     0.91078   0.69676   0.54379   0.00000  Uiso   1.00
C140   C     0.88073   0.72592   0.51165   0.00000  Uiso   1.00
C141   C     0.90255   0.71261   0.47915   0.00000  Uiso   1.00
C142   C     0.86843   0.74426   0.45312   0.00000  Uiso   1.00
C143   C     0.83001   0.78296   0.40225   0.00000  Uiso   1.00
C144   C     0.93051   0.75682   0.56548   0.00000  Uiso   1.00
C145   C     0.99418   0.76948   0.57826   0.00000  Uiso   1.00
C146   C     0.00197   0.82714   0.59754   0.00000  Uiso   1.00
C147   C     0.04081   0.91378   0.63028   0.00000  Uiso   1.00
C148   C     0.85300   0.66229   0.56216   0.00000  Uiso   1.00
C149   C     0.85150   0.59547   0.57214   0.00000  Uiso   1.00
C150   C     0.79403   0.57354   0.58864   0.00000  Uiso   1.00
C151   C     0.71253   0.51341   0.61621   0.00000  Uiso   1.00
C152   C     0.81140   0.77663   0.55534   0.00000  Uiso   1.00
C153   C     0.82676   0.76930   0.51792   0.00000  Uiso   1.00
C154   C     0.79260   0.80098   0.49193   0.00000  Uiso   1.00
C155   C     0.81436   0.78771   0.45940   0.00000  Uiso   1.00
C156   C     0.87654   0.80020   0.57176   0.00000  Uiso   1.00
C157   C     0.88423   0.85785   0.59104   0.00000  Uiso   1.00
C158   C     0.94789   0.87060   0.60383   0.00000  Uiso   1.00
C159   C     0.79902   0.70567   0.56843   0.00000  Uiso   1.00
C160   C     0.74155   0.68384   0.58492   0.00000  Uiso   1.00
C161   C     0.73995   0.61700   0.59492   0.00000  Uiso   1.00
H162   H     0.95281   0.66299   0.53891   0.00000  Uiso   1.00
H163   H     0.94433   0.67904   0.47431   0.00000  Uiso   1.00
H164   H     0.03594   0.73590   0.57340   0.00000  Uiso   1.00
H165   H     0.89328   0.56191   0.56728   0.00000  Uiso   1.00
H166   H     0.91114   0.71598   0.40545   0.00000  Uiso   1.00
H167   H     0.10430   0.83586   0.61440   0.00000  Uiso   1.00
H168   H     0.80348   0.46898   0.60150   0.00000  Uiso   1.00
H169   H     0.76938   0.81041   0.56023   0.00000  Uiso   1.00
H170   H     0.75082   0.83455   0.49679   0.00000  Uiso   1.00
H171   H     0.84244   0.89141   0.59589   0.00000  Uiso   1.00
H172   H     0.69978   0.71742   0.58977   0.00000  Uiso   1.00
H173   H     0.75408   0.84220   0.42370   0.00000  Uiso   1.00
H174   H     0.94725   0.96208   0.63266   0.00000  Uiso   1.00
H175   H     0.64643   0.59520   0.61975   0.00000  Uiso   1.00
O176   O     0.82373   0.79233   0.37247   0.00000  Uiso   1.00
O177   O     0.07716   0.94959   0.64661   0.00000  Uiso   1.00
O178   O     0.68248   0.46826   0.62968   0.00000  Uiso   1.00
N179   N     0.87671   0.74236   0.41845   0.00000  Uiso   1.00
N180   N     0.05732   0.85445   0.61380   0.00000  Uiso   1.00
N181   N     0.77608   0.51145   0.60175   0.00000  Uiso   1.00
N182   N     0.79220   0.81028   0.42827   0.00000  Uiso   1.00
N183   N     0.97281   0.92237   0.62363   0.00000  Uiso   1.00
N184   N     0.69157   0.57937   0.61157   0.00000  Uiso   1.00
C185   C     0.80324   0.41078   0.95621   0.00000  Uiso   1.00
C186   C     0.77408   0.38073   0.98835   0.00000  Uiso   1.00
C187   C     0.78739   0.40255   0.02085   0.00000  Uiso   1.00
C188   C     0.75574   0.36843   0.04688   0.00000  Uiso   1.00
C189   C     0.71704   0.33001   0.09775   0.00000  Uiso   1.00
C190   C     0.74318   0.43051   0.93452   0.00000  Uiso   1.00
C191   C     0.73052   0.49418   0.92174   0.00000  Uiso   1.00
C192   C     0.67286   0.50197   0.90246   0.00000  Uiso   1.00
C193   C     0.58622   0.54081   0.86972   0.00000  Uiso   1.00
C194   C     0.83771   0.35300   0.93784   0.00000  Uiso   1.00
C195   C     0.90453   0.35150   0.92786   0.00000  Uiso   1.00
C196   C     0.92646   0.29403   0.91136   0.00000  Uiso   1.00
C197   C     0.98659   0.21253   0.88379   0.00000  Uiso   1.00
C198   C     0.72337   0.31140   0.94466   0.00000  Uiso   1.00
C199   C     0.73070   0.32676   0.98208   0.00000  Uiso   1.00
C200   C     0.69902   0.29260   0.00807   0.00000  Uiso   1.00
C201   C     0.71229   0.31436   0.04060   0.00000  Uiso   1.00
C202   C     0.69980   0.37654   0.92824   0.00000  Uiso   1.00
C203   C     0.64215   0.38423   0.90896   0.00000  Uiso   1.00
C204   C     0.62940   0.44789   0.89617   0.00000  Uiso   1.00
C205   C     0.79433   0.29902   0.93157   0.00000  Uiso   1.00
C206   C     0.81616   0.24155   0.91508   0.00000  Uiso   1.00
C207   C     0.88300   0.23995   0.90508   0.00000  Uiso   1.00
H208   H     0.83701   0.45281   0.96109   0.00000  Uiso   1.00
H209   H     0.82096   0.44433   0.02569   0.00000  Uiso   1.00
H210   H     0.76410   0.53594   0.92660   0.00000  Uiso   1.00
H211   H     0.93809   0.39328   0.93272   0.00000  Uiso   1.00
H212   H     0.78402   0.41114   0.09455   0.00000  Uiso   1.00
H213   H     0.66414   0.60430   0.88560   0.00000  Uiso   1.00
H214   H     0.03102   0.30348   0.89850   0.00000  Uiso   1.00
H215   H     0.68959   0.26938   0.93977   0.00000  Uiso   1.00
H216   H     0.66545   0.25082   0.00321   0.00000  Uiso   1.00
H217   H     0.60859   0.34244   0.90411   0.00000  Uiso   1.00
H218   H     0.78258   0.19978   0.91023   0.00000  Uiso   1.00
H219   H     0.65780   0.25408   0.07630   0.00000  Uiso   1.00
H220   H     0.53792   0.44725   0.86734   0.00000  Uiso   1.00
H221   H     0.90480   0.14643   0.88025   0.00000  Uiso   1.00
O222   O     0.70767   0.32373   0.12753   0.00000  Uiso   1.00
O223   O     0.55041   0.57716   0.85339   0.00000  Uiso   1.00
O224   O     0.03174   0.18248   0.87032   0.00000  Uiso   1.00
N225   N     0.75764   0.37671   0.08155   0.00000  Uiso   1.00
N226   N     0.64555   0.55732   0.88620   0.00000  Uiso   1.00
N227   N     0.98855   0.27608   0.89825   0.00000  Uiso   1.00
N228   N     0.68972   0.29220   0.07173   0.00000  Uiso   1.00
N229   N     0.57763   0.47281   0.87637   0.00000  Uiso   1.00
N230   N     0.92063   0.19157   0.88843   0.00000  Uiso   1.00
C231   C     0.30324   0.91078   0.45621   0.00000  Uiso   1.00
C232   C     0.27408   0.88073   0.48835   0.00000  Uiso   1.00
C233   C     0.28739   0.90255   0.52085   0.00000  Uiso   1.00
C234   C     0.25574   0.86843   0.54688   0.00000  Uiso   1.00
C235   C     0.21704   0.83001   0.59775   0.00000  Uiso   1.00
C236   C     0.24318   0.93051   0.43452   0.00000  Uiso   1.00
C237   C     0.23052   0.99418   0.42174   0.00000  Uiso   1.00
C238   C     0.17286   0.00197   0.40246   0.00000  Uiso   1.00
C239   C     0.08622   0.04081   0.36972   0.00000  Uiso   1.00
C240   C     0.33771   0.85300   0.43784   0.00000  Uiso   1.00
C241   C     0.40453   0.85150   0.42786   0.00000  Uiso   1.00
C242   C     0.42646   0.79403   0.41136   0.00000  Uiso   1.00
C243   C     0.48659   0.71253   0.38379   0.00000  Uiso   1.00
C244   C     0.22337   0.81140   0.44466   0.00000  Uiso   1.00
C245   C     0.23070   0.82676   0.48208   0.00000  Uiso   1.00
C246   C     0.19902   0.79260   0.50807   0.00000  Uiso   1.00
C247   C     0.21229   0.81436   0.54060   0.00000  Uiso   1.00
C248   C     0.19980   0.87654   0.42824   0.00000  Uiso   1.00
C249   C     0.14215   0.88423   0.40896   0.00000  Uiso   1.00
C250   C     0.12940   0.94789   0.39617   0.00000  Uiso   1.00
C251   C     0.29433   0.79902   0.43157   0.00000  Uiso   1.00
C252   C     0.31616   0.74155   0.41508   0.00000  Uiso   1.00
C253   C     0.38300   0.73995   0.40508   0.00000  Uiso   1.00
H254   H     0.33701   0.95281   0.46109   0.00000  Uiso   1.00
H255   H     0.32096   0.94433   0.52569   0.00000  Uiso   1.00
H256   H     0.26410   0.03594   0.42660   0.00000  Uiso   1.00
H257   H     0.43809   0.89328   0.43272   0.00000  Uiso   1.00
H258   H     0.28402   0.91114   0.59455   0.00000  Uiso   1.00
H259   H     0.16414   0.10430   0.38560   0.00000  Uiso   1.00
H260   H     0.53102   0.80348   0.39850   0.00000  Uiso   1.00
H261   H     0.18959   0.76938   0.43977   0.00000  Uiso   1.00
H262   H     0.16545   0.75082   0.50321   0.00000  Uiso   1.00
H263   H     0.10859   0.84244   0.40411   0.00000  Uiso   1.00
H264   H     0.28258   0.69978   0.41023   0.00000  Uiso   1.00
H265   H     0.15780   0.75408   0.57630   0.00000  Uiso   1.00
H266   H     0.03792   0.94725   0.36734   0.00000  Uiso   1.00
H267   H     0.40480   0.64643   0.38025   0.00000  Uiso   1.00
O268   O     0.20767   0.82373   0.62753   0.00000  Uiso   1.00
O269   O     0.05041   0.07716   0.35339   0.00000  Uiso   1.00
O270   O     0.53174   0.68248   0.37032   0.00000  Uiso   1.00
N271   N     0.25764   0.87671   0.58155   0.00000  Uiso   1.00
N272   N     0.14555   0.05732   0.38620   0.00000  Uiso   1.00
N273   N     0.48855   0.77608   0.39825   0.00000  Uiso   1.00
N274   N     0.18972   0.79220   0.57173   0.00000  Uiso   1.00
N275   N     0.07763   0.97281   0.37637   0.00000  Uiso   1.00
N276   N     0.42063   0.69157   0.38843   0.00000  Uiso   1.00
C277   C     0.19676   0.58922   0.95621   0.00000  Uiso   1.00
C278   C     0.22592   0.61927   0.98835   0.00000  Uiso   1.00
C279   C     0.21261   0.59745   0.02085   0.00000  Uiso   1.00
C280   C     0.24426   0.63157   0.04688   0.00000  Uiso   1.00
C281   C     0.28296   0.66999   0.09775   0.00000  Uiso   1.00
C282   C     0.25682   0.56949   0.93452   0.00000  Uiso   1.00
C283   C     0.26948   0.50582   0.92174   0.00000  Uiso   1.00
C284   C     0.32714   0.49803   0.90246   0.00000  Uiso   1.00
C285   C     0.41378   0.45919   0.86972   0.00000  Uiso   1.00
C286   C     0.16229   0.64700   0.93784   0.00000  Uiso   1.00
C287   C     0.09547   0.64850   0.92786   0.00000  Uiso   1.00
C288   C     0.07354   0.70597   0.91136   0.00000  Uiso   1.00
C289   C     0.01341   0.78747   0.88379   0.00000  Uiso   1.00
C290   C     0.27663   0.68860   0.94466   0.00000  Uiso   1.00
C291   C     0.26930   0.67324   0.98208   0.00000  Uiso   1.00
C292   C     0.30098   0.70740   0.00807   0.00000  Uiso   1.00
C293   C     0.28771   0.68564   0.04060   0.00000  Uiso   1.00
C294   C     0.30020   0.62346   0.92824   0.00000  Uiso   1.00
C295   C     0.35785   0.61577   0.90896   0.00000  Uiso   1.00
C296   C     0.37060   0.55211   0.89617   0.00000  Uiso   1.00
C297   C     0.20567   0.70098   0.93157   0.00000  Uiso   1.00
C298   C     0.18384   0.75845   0.91508   0.00000  Uiso   1.00
C299   C     0.11700   0.76005   0.90508   0.00000  Uiso   1.00
H300   H     0.16299   0.54719   0.96109   0.00000  Uiso   1.00
H301   H     0.17904   0.55567   0.02569   0.00000  Uiso   1.00
H302   H     0.23590   0.46406   0.92660   0.00000  Uiso   1.00
H303   H     0.06191   0.60672   0.93272   0.00000  Uiso   1.00
H304   H     0.21598   0.58886   0.09455   0.00000  Uiso   1.00
H305   H     0.33586   0.39570   0.88560   0.00000  Uiso   1.00
H306   H     0.96898   0.69652   0.89850   0.00000  Uiso   1.00
H307   H     0.31041   0.73062   0.93977   0.00000  Uiso   1.00
H308   H     0.33455   0.74918   0.00321   0.00000  Uiso   1.00
H309   H     0.39141   0.65756   0.90411   0.00000  Uiso   1.00
H310   H     0.21742   0.80022   0.91023   0.00000  Uiso   1.00
H311   H     0.34220   0.74592   0.07630   0.00000  Uiso   1.00
H312   H     0.46208   0.55275   0.86734   0.00000  Uiso   1.00
H313   H     0.09520   0.85357   0.88025   0.00000  Uiso   1.00
O314   O     0.29233   0.67627   0.12753   0.00000  Uiso   1.00
O315   O     0.44959   0.42284   0.85339   0.00000  Uiso   1.00
O316   O     0.96826   0.81752   0.87032   0.00000  Uiso   1.00
N317   N     0.24236   0.62329   0.08155   0.00000  Uiso   1.00
N318   N     0.35445   0.44268   0.88620   0.00000  Uiso   1.00
N319   N     0.01145   0.72392   0.89825   0.00000  Uiso   1.00
N320   N     0.31028   0.70780   0.07173   0.00000  Uiso   1.00
N321   N     0.42237   0.52719   0.87637   0.00000  Uiso   1.00
N322   N     0.07937   0.80843   0.88843   0.00000  Uiso   1.00
C323   C     0.69676   0.08922   0.45621   0.00000  Uiso   1.00
C324   C     0.72592   0.11927   0.48835   0.00000  Uiso   1.00
C325   C     0.71261   0.09745   0.52085   0.00000  Uiso   1.00
C326   C     0.74426   0.13157   0.54688   0.00000  Uiso   1.00
C327   C     0.78296   0.16999   0.59775   0.00000  Uiso   1.00
C328   C     0.75682   0.06949   0.43452   0.00000  Uiso   1.00
C329   C     0.76948   0.00582   0.42174   0.00000  Uiso   1.00
C330   C     0.82714   0.99803   0.40246   0.00000  Uiso   1.00
C331   C     0.91378   0.95919   0.36972   0.00000  Uiso   1.00
C332   C     0.66229   0.14700   0.43784   0.00000  Uiso   1.00
C333   C     0.59547   0.14850   0.42786   0.00000  Uiso   1.00
C334   C     0.57354   0.20597   0.41136   0.00000  Uiso   1.00
C335   C     0.51341   0.28747   0.38379   0.00000  Uiso   1.00
C336   C     0.77663   0.18860   0.44466   0.00000  Uiso   1.00
C337   C     0.76930   0.17324   0.48208   0.00000  Uiso   1.00
C338   C     0.80098   0.20740   0.50807   0.00000  Uiso   1.00
C339   C     0.78771   0.18564   0.54060   0.00000  Uiso   1.00
C340   C     0.80020   0.12346   0.42824   0.00000  Uiso   1.00
C341   C     0.85785   0.11577   0.40896   0.00000  Uiso   1.00
C342   C     0.87060   0.05211   0.39617   0.00000  Uiso   1.00
C343   C     0.70567   0.20098   0.43157   0.00000  Uiso   1.00
C344   C     0.68384   0.25845   0.41508   0.00000  Uiso   1.00
C345   C     0.61700   0.26005   0.40508   0.00000  Uiso   1.00
H346   H     0.66299   0.04719   0.46109   0.00000  Uiso   1.00
H347   H     0.67904   0.05567   0.52569   0.00000  Uiso   1.00
H348   H     0.73590   0.96406   0.42660   0.00000  Uiso   1.00
H349   H     0.56191   0.10672   0.43272   0.00000  Uiso   1.00
H350   H     0.71598   0.08886   0.59455   0.00000  Uiso   1.00
H351   H     0.83586   0.89570   0.38560   0.00000  Uiso   1.00
H352   H     0.46898   0.19652   0.39850   0.00000  Uiso   1.00
H353   H     0.81041   0.23062   0.43977   0.00000  Uiso   1.00
H354   H     0.83455   0.24918   0.50321   0.00000  Uiso   1.00
H355   H     0.89141   0.15756   0.40411   0.00000  Uiso   1.00
H356   H     0.71742   0.30022   0.41023   0.00000  Uiso   1.00
H357   H     0.84220   0.24592   0.57630   0.00000  Uiso   1.00
H358   H     0.96208   0.05275   0.36734   0.00000  Uiso   1.00
H359   H     0.59520   0.35357   0.38025   0.00000  Uiso   1.00
O360   O     0.79233   0.17627   0.62753   0.00000  Uiso   1.00
O361   O     0.94959   0.92284   0.35339   0.00000  Uiso   1.00
O362   O     0.46826   0.31752   0.37032   0.00000  Uiso   1.00
N363   N     0.74236   0.12329   0.58155   0.00000  Uiso   1.00
N364   N     0.85445   0.94268   0.38620   0.00000  Uiso   1.00
N365   N     0.51145   0.22392   0.39825   0.00000  Uiso   1.00
N366   N     0.81028   0.20780   0.57173   0.00000  Uiso   1.00
N367   N     0.92237   0.02719   0.37637   0.00000  Uiso   1.00
N368   N     0.57937   0.30843   0.38843   0.00000  Uiso   1.00
C369   C     0.91078   0.80324   0.70621   0.00000  Uiso   1.00
C370   C     0.88073   0.77408   0.73835   0.00000  Uiso   1.00
C371   C     0.90255   0.78739   0.77085   0.00000  Uiso   1.00
C372   C     0.86843   0.75574   0.79688   0.00000  Uiso   1.00
C373   C     0.83001   0.71704   0.84775   0.00000  Uiso   1.00
C374   C     0.93051   0.74318   0.68452   0.00000  Uiso   1.00
C375   C     0.99418   0.73052   0.67174   0.00000  Uiso   1.00
C376   C     0.00197   0.67286   0.65246   0.00000  Uiso   1.00
C377   C     0.04081   0.58622   0.61972   0.00000  Uiso   1.00
C378   C     0.85300   0.83771   0.68784   0.00000  Uiso   1.00
C379   C     0.85150   0.90453   0.67786   0.00000  Uiso   1.00
C380   C     0.79403   0.92646   0.66136   0.00000  Uiso   1.00
C381   C     0.71253   0.98659   0.63379   0.00000  Uiso   1.00
C382   C     0.81140   0.72337   0.69466   0.00000  Uiso   1.00
C383   C     0.82676   0.73070   0.73208   0.00000  Uiso   1.00
C384   C     0.79260   0.69902   0.75807   0.00000  Uiso   1.00
C385   C     0.81436   0.71229   0.79060   0.00000  Uiso   1.00
C386   C     0.87654   0.69980   0.67824   0.00000  Uiso   1.00
C387   C     0.88423   0.64215   0.65896   0.00000  Uiso   1.00
C388   C     0.94789   0.62940   0.64617   0.00000  Uiso   1.00
C389   C     0.79902   0.79433   0.68157   0.00000  Uiso   1.00
C390   C     0.74155   0.81616   0.66508   0.00000  Uiso   1.00
C391   C     0.73995   0.88300   0.65508   0.00000  Uiso   1.00
H392   H     0.95281   0.83701   0.71109   0.00000  Uiso   1.00
H393   H     0.94433   0.82096   0.77569   0.00000  Uiso   1.00
H394   H     0.03594   0.76410   0.67660   0.00000  Uiso   1.00
H395   H     0.89328   0.93809   0.68272   0.00000  Uiso   1.00
H396   H     0.91114   0.78402   0.84455   0.00000  Uiso   1.00
H397   H     0.10430   0.66414   0.63560   0.00000  Uiso   1.00
H398   H     0.80348   0.03102   0.64850   0.00000  Uiso   1.00
H399   H     0.76938   0.68959   0.68977   0.00000  Uiso   1.00
H400   H     0.75082   0.66545   0.75321   0.00000  Uiso   1.00
H401   H     0.84244   0.60859   0.65411   0.00000  Uiso   1.00
H402   H     0.69978   0.78258   0.66023   0.00000  Uiso   1.00
H403   H     0.75408   0.65780   0.82630   0.00000  Uiso   1.00
H404   H     0.94725   0.53792   0.61734   0.00000  Uiso   1.00
H405   H     0.64643   0.90480   0.63025   0.00000  Uiso   1.00
O406   O     0.82373   0.70767   0.87753   0.00000  Uiso   1.00
O407   O     0.07716   0.55041   0.60339   0.00000  Uiso   1.00
O408   O     0.68248   0.03174   0.62032   0.00000  Uiso   1.00
N409   N     0.87671   0.75764   0.83155   0.00000  Uiso   1.00
N410   N     0.05732   0.64555   0.63620   0.00000  Uiso   1.00
N411   N     0.77608   0.98855   0.64825   0.00000  Uiso   1.00
N412   N     0.79220   0.68972   0.82173   0.00000  Uiso   1.00
N413   N     0.97281   0.57763   0.62637   0.00000  Uiso   1.00
N414   N     0.69157   0.92063   0.63843   0.00000  Uiso   1.00
C415   C     0.41078   0.30324   0.20621   0.00000  Uiso   1.00
C416   C     0.38073   0.27408   0.23835   0.00000  Uiso   1.00
C417   C     0.40255   0.28739   0.27085   0.00000  Uiso   1.00
C418   C     0.36843   0.25574   0.29688   0.00000  Uiso   1.00
C419   C     0.33001   0.21704   0.34775   0.00000  Uiso   1.00
C420   C     0.43051   0.24318   0.18452   0.00000  Uiso   1.00
C421   C     0.49418   0.23052   0.17174   0.00000  Uiso   1.00
C422   C     0.50197   0.17286   0.15246   0.00000  Uiso   1.00
C423   C     0.54081   0.08622   0.11972   0.00000  Uiso   1.00
C424   C     0.35300   0.33771   0.18784   0.00000  Uiso   1.00
C425   C     0.35150   0.40453   0.17786   0.00000  Uiso   1.00
C426   C     0.29403   0.42646   0.16136   0.00000  Uiso   1.00
C427   C     0.21253   0.48659   0.13379   0.00000  Uiso   1.00
C428   C     0.31140   0.22337   0.19466   0.00000  Uiso   1.00
C429   C     0.32676   0.23070   0.23208   0.00000  Uiso   1.00
C430   C     0.29260   0.19902   0.25807   0.00000  Uiso   1.00
C431   C     0.31436   0.21229   0.29060   0.00000  Uiso   1.00
C432   C     0.37654   0.19980   0.17824   0.00000  Uiso   1.00
C433   C     0.38423   0.14215   0.15896   0.00000  Uiso   1.00
C434   C     0.44789   0.12940   0.14617   0.00000  Uiso   1.00
C435   C     0.29902   0.29433   0.18157   0.00000  Uiso   1.00
C436   C     0.24155   0.31616   0.16508   0.00000  Uiso   1.00
C437   C     0.23995   0.38300   0.15508   0.00000  Uiso   1.00
H438   H     0.45281   0.33701   0.21109   0.00000  Uiso   1.00
H439   H     0.44433   0.32096   0.27569   0.00000  Uiso   1.00
H440   H     0.53594   0.26410   0.17660   0.00000  Uiso   1.00
H441   H     0.39328   0.43809   0.18272   0.00000  Uiso   1.00
H442   H     0.41114   0.28402   0.34455   0.00000  Uiso   1.00
H443   H     0.60430   0.16414   0.13560   0.00000  Uiso   1.00
H444   H     0.30348   0.53102   0.14850   0.00000  Uiso   1.00
H445   H     0.26938   0.18959   0.18977   0.00000  Uiso   1.00
H446   H     0.25082   0.16545   0.25321   0.00000  Uiso   1.00
H447   H     0.34244   0.10859   0.15411   0.00000  Uiso   1.00
H448   H     0.19978   0.28258   0.16023   0.00000  Uiso   1.00
H449   H     0.25408   0.15780   0.32630   0.00000  Uiso   1.00
H450   H     0.44725   0.03792   0.11734   0.00000  Uiso   1.00
H451   H     0.14643   0.40480   0.13025   0.00000  Uiso   1.00
O452   O     0.32373   0.20767   0.37753   0.00000  Uiso   1.00
O453   O     0.57716   0.05041   0.10339   0.00000  Uiso   1.00
O454   O     0.18248   0.53174   0.12032   0.00000  Uiso   1.00
N455   N     0.37671   0.25764   0.33155   0.00000  Uiso   1.00
N456   N     0.55732   0.14555   0.13620   0.00000  Uiso   1.00
N457   N     0.27608   0.48855   0.14825   0.00000  Uiso   1.00
N458   N     0.29220   0.18972   0.32173   0.00000  Uiso   1.00
N459   N     0.47281   0.07763   0.12637   0.00000  Uiso   1.00
N460   N     0.19157   0.42063   0.13843   0.00000  Uiso   1.00
C461   C     0.08922   0.19676   0.70621   0.00000  Uiso   1.00
C462   C     0.11927   0.22592   0.73835   0.00000  Uiso   1.00
C463   C     0.09745   0.21261   0.77085   0.00000  Uiso   1.00
C464   C     0.13157   0.24426   0.79688   0.00000  Uiso   1.00
C465   C     0.16999   0.28296   0.84775   0.00000  Uiso   1.00
C466   C     0.06949   0.25682   0.68452   0.00000  Uiso   1.00
C467   C     0.00582   0.26948   0.67174   0.00000  Uiso   1.00
C468   C     0.99803   0.32714   0.65246   0.00000  Uiso   1.00
C469   C     0.95919   0.41378   0.61972   0.00000  Uiso   1.00
C470   C     0.14700   0.16229   0.68784   0.00000  Uiso   1.00
C471   C     0.14850   0.09547   0.67786   0.00000  Uiso   1.00
C472   C     0.20597   0.07354   0.66136   0.00000  Uiso   1.00
C473   C     0.28747   0.01341   0.63379   0.00000  Uiso   1.00
C474   C     0.18860   0.27663   0.69466   0.00000  Uiso   1.00
C475   C     0.17324   0.26930   0.73208   0.00000  Uiso   1.00
C476   C     0.20740   0.30098   0.75807   0.00000  Uiso   1.00
C477   C     0.18564   0.28771   0.79060   0.00000  Uiso   1.00
C478   C     0.12346   0.30020   0.67824   0.00000  Uiso   1.00
C479   C     0.11577   0.35785   0.65896   0.00000  Uiso   1.00
C480   C     0.05211   0.37060   0.64617   0.00000  Uiso   1.00
C481   C     0.20098   0.20567   0.68157   0.00000  Uiso   1.00
C482   C     0.25845   0.18384   0.66508   0.00000  Uiso   1.00
C483   C     0.26005   0.11700   0.65508   0.00000  Uiso   1.00
H484   H     0.04719   0.16299   0.71109   0.00000  Uiso   1.00
H485   H     0.05567   0.17904   0.77569   0.00000  Uiso   1.00
H486   H     0.96406   0.23590   0.67660   0.00000  Uiso   1.00
H487   H     0.10672   0.06191   0.68272   0.00000  Uiso   1.00
H488   H     0.08886   0.21598   0.84455   0.00000  Uiso   1.00
H489   H     0.89570   0.33586   0.63560   0.00000  Uiso   1.00
H490   H     0.19652   0.96898   0.64850   0.00000  Uiso   1.00
H491   H     0.23062   0.31041   0.68977   0.00000  Uiso   1.00
H492   H     0.24918   0.33455   0.75321   0.00000  Uiso   1.00
H493   H     0.15756   0.39141   0.65411   0.00000  Uiso   1.00
H494   H     0.30022   0.21742   0.66023   0.00000  Uiso   1.00
H495   H     0.24592   0.34220   0.82630   0.00000  Uiso   1.00
H496   H     0.05275   0.46208   0.61734   0.00000  Uiso   1.00
H497   H     0.35357   0.09520   0.63025   0.00000  Uiso   1.00
O498   O     0.17627   0.29233   0.87753   0.00000  Uiso   1.00
O499   O     0.92284   0.44959   0.60339   0.00000  Uiso   1.00
O500   O     0.31752   0.96826   0.62032   0.00000  Uiso   1.00
N501   N     0.12329   0.24236   0.83155   0.00000  Uiso   1.00
N502   N     0.94268   0.35445   0.63620   0.00000  Uiso   1.00
N503   N     0.22392   0.01145   0.64825   0.00000  Uiso   1.00
N504   N     0.20780   0.31028   0.82173   0.00000  Uiso   1.00
N505   N     0.02719   0.42237   0.62637   0.00000  Uiso   1.00
N506   N     0.30843   0.07937   0.63843   0.00000  Uiso   1.00
C507   C     0.58922   0.69676   0.20621   0.00000  Uiso   1.00
C508   C     0.61927   0.72592   0.23835   0.00000  Uiso   1.00
C509   C     0.59745   0.71261   0.27085   0.00000  Uiso   1.00
C510   C     0.63157   0.74426   0.29688   0.00000  Uiso   1.00
C511   C     0.66999   0.78296   0.34775   0.00000  Uiso   1.00
C512   C     0.56949   0.75682   0.18452   0.00000  Uiso   1.00
C513   C     0.50582   0.76948   0.17174   0.00000  Uiso   1.00
C514   C     0.49803   0.82714   0.15246   0.00000  Uiso   1.00
C515   C     0.45919   0.91378   0.11972   0.00000  Uiso   1.00
C516   C     0.64700   0.66229   0.18784   0.00000  Uiso   1.00
C517   C     0.64850   0.59547   0.17786   0.00000  Uiso   1.00
C518   C     0.70597   0.57354   0.16136   0.00000  Uiso   1.00
C519   C     0.78747   0.51341   0.13379   0.00000  Uiso   1.00
C520   C     0.68860   0.77663   0.19466   0.00000  Uiso   1.00
C521   C     0.67324   0.76930   0.23208   0.00000  Uiso   1.00
C522   C     0.70740   0.80098   0.25807   0.00000  Uiso   1.00
C523   C     0.68564   0.78771   0.29060   0.00000  Uiso   1.00
C524   C     0.62346   0.80020   0.17824   0.00000  Uiso   1.00
C525   C     0.61577   0.85785   0.15896   0.00000  Uiso   1.00
C526   C     0.55211   0.87060   0.14617   0.00000  Uiso   1.00
C527   C     0.70098   0.70567   0.18157   0.00000  Uiso   1.00
C528   C     0.75845   0.68384   0.16508   0.00000  Uiso   1.00
C529   C     0.76005   0.61700   0.15508   0.00000  Uiso   1.00
H530   H     0.54719   0.66299   0.21109   0.00000  Uiso   1.00
H531   H     0.55567   0.67904   0.27569   0.00000  Uiso   1.00
H532   H     0.46406   0.73590   0.17660   0.00000  Uiso   1.00
H533   H     0.60672   0.56191   0.18272   0.00000  Uiso   1.00
H534   H     0.58886   0.71598   0.34455   0.00000  Uiso   1.00
H535   H     0.39570   0.83586   0.13560   0.00000  Uiso   1.00
H536   H     0.69652   0.46898   0.14850   0.00000  Uiso   1.00
H537   H     0.73062   0.81041   0.18977   0.00000  Uiso   1.00
H538   H     0.74918   0.83455   0.25321   0.00000  Uiso   1.00
H539   H     0.65756   0.89141   0.15411   0.00000  Uiso   1.00
H540   H     0.80022   0.71742   0.16023   0.00000  Uiso   1.00
H541   H     0.74592   0.84220   0.32630   0.00000  Uiso   1.00
H542   H     0.55275   0.96208   0.11734   0.00000  Uiso   1.00
H543   H     0.85357   0.59520   0.13025   0.00000  Uiso   1.00
O544   O     0.67627   0.79233   0.37753   0.00000  Uiso   1.00
O545   O     0.42284   0.94959   0.10339   0.00000  Uiso   1.00
O546   O     0.81752   0.46826   0.12032   0.00000  Uiso   1.00
N547   N     0.62329   0.74236   0.33155   0.00000  Uiso   1.00
N548   N     0.44268   0.85445   0.13620   0.00000  Uiso   1.00
N549   N     0.72392   0.51145   0.14825   0.00000  Uiso   1.00
N550   N     0.70780   0.81028   0.32173   0.00000  Uiso   1.00
N551   N     0.52719   0.92237   0.12637   0.00000  Uiso   1.00
N552   N     0.80843   0.57937   0.13843   0.00000  Uiso   1.00
C553   C     0.69676   0.41078   0.79379   0.00000  Uiso   1.00
C554   C     0.72592   0.38073   0.76165   0.00000  Uiso   1.00
C555   C     0.71261   0.40255   0.72915   0.00000  Uiso   1.00
C556   C     0.74426   0.36843   0.70312   0.00000  Uiso   1.00
C557   C     0.78296   0.33001   0.65225   0.00000  Uiso   1.00
C558   C     0.75682   0.43051   0.81548   0.00000  Uiso   1.00
C559   C     0.76948   0.49418   0.82826   0.00000  Uiso   1.00
C560   C     0.82714   0.50197   0.84754   0.00000  Uiso   1.00
C561   C     0.91378   0.54081   0.88028   0.00000  Uiso   1.00
C562   C     0.66229   0.35300   0.81216   0.00000  Uiso   1.00
C563   C     0.59547   0.35150   0.82214   0.00000  Uiso   1.00
C564   C     0.57354   0.29403   0.83864   0.00000  Uiso   1.00
C565   C     0.51341   0.21253   0.86621   0.00000  Uiso   1.00
C566   C     0.77663   0.31140   0.80534   0.00000  Uiso   1.00
C567   C     0.76930   0.32676   0.76792   0.00000  Uiso   1.00
C568   C     0.80098   0.29260   0.74193   0.00000  Uiso   1.00
C569   C     0.78771   0.31436   0.70940   0.00000  Uiso   1.00
C570   C     0.80020   0.37654   0.82176   0.00000  Uiso   1.00
C571   C     0.85785   0.38423   0.84104   0.00000  Uiso   1.00
C572   C     0.87060   0.44789   0.85383   0.00000  Uiso   1.00
C573   C     0.70567   0.29902   0.81843   0.00000  Uiso   1.00
C574   C     0.68384   0.24155   0.83492   0.00000  Uiso   1.00
C575   C     0.61700   0.23995   0.84492   0.00000  Uiso   1.00
H576   H     0.66299   0.45281   0.78891   0.00000  Uiso   1.00
H577   H     0.67904   0.44433   0.72431   0.00000  Uiso   1.00
H578   H     0.73590   0.53594   0.82340   0.00000  Uiso   1.00
H579   H     0.56191   0.39328   0.81728   0.00000  Uiso   1.00
H580   H     0.71598   0.41114   0.65545   0.00000  Uiso   1.00
H581   H     0.83586   0.60430   0.86440   0.00000  Uiso   1.00
H582   H     0.46898   0.30348   0.85150   0.00000  Uiso   1.00
H583   H     0.81041   0.26938   0.81023   0.00000  Uiso   1.00
H584   H     0.83455   0.25082   0.74679   0.00000  Uiso   1.00
H585   H     0.89141   0.34244   0.84589   0.00000  Uiso   1.00
H586   H     0.71742   0.19978   0.83977   0.00000  Uiso   1.00
H587   H     0.84220   0.25408   0.67370   0.00000  Uiso   1.00
H588   H     0.96208   0.44725   0.88266   0.00000  Uiso   1.00
H589   H     0.59520   0.14643   0.86975   0.00000  Uiso   1.00
O590   O     0.79233   0.32373   0.62247   0.00000  Uiso   1.00
O591   O     0.94959   0.57716   0.89661   0.00000  Uiso   1.00
O592   O     0.46826   0.18248   0.87968   0.00000  Uiso   1.00
N593   N     0.74236   0.37671   0.66845   0.00000  Uiso   1.00
N594   N     0.85445   0.55732   0.86380   0.00000  Uiso   1.00
N595   N     0.51145   0.27608   0.85175   0.00000  Uiso   1.00
N596   N     0.81028   0.29220   0.67827   0.00000  Uiso   1.00
N597   N     0.92237   0.47281   0.87363   0.00000  Uiso   1.00
N598   N     0.57937   0.19157   0.86157   0.00000  Uiso   1.00
C599   C     0.19676   0.91078   0.29379   0.00000  Uiso   1.00
C600   C     0.22592   0.88073   0.26165   0.00000  Uiso   1.00
C601   C     0.21261   0.90255   0.22915   0.00000  Uiso   1.00
C602   C     0.24426   0.86843   0.20312   0.00000  Uiso   1.00
C603   C     0.28296   0.83001   0.15225   0.00000  Uiso   1.00
C604   C     0.25682   0.93051   0.31548   0.00000  Uiso   1.00
C605   C     0.26948   0.99418   0.32826   0.00000  Uiso   1.00
C606   C     0.32714   0.00197   0.34754   0.00000  Uiso   1.00
C607   C     0.41378   0.04081   0.38028   0.00000  Uiso   1.00
C608   C     0.16229   0.85300   0.31216   0.00000  Uiso   1.00
C609   C     0.09547   0.85150   0.32214   0.00000  Uiso   1.00
C610   C     0.07354   0.79403   0.33864   0.00000  Uiso   1.00
C611   C     0.01341   0.71253   0.36621   0.00000  Uiso   1.00
C612   C     0.27663   0.81140   0.30534   0.00000  Uiso   1.00
C613   C     0.26930   0.82676   0.26792   0.00000  Uiso   1.00
C614   C     0.30098   0.79260   0.24193   0.00000  Uiso   1.00
C615   C     0.28771   0.81436   0.20940   0.00000  Uiso   1.00
C616   C     0.30020   0.87654   0.32176   0.00000  Uiso   1.00
C617   C     0.35785   0.88423   0.34104   0.00000  Uiso   1.00
C618   C     0.37060   0.94789   0.35383   0.00000  Uiso   1.00
C619   C     0.20567   0.79902   0.31843   0.00000  Uiso   1.00
C620   C     0.18384   0.74155   0.33492   0.00000  Uiso   1.00
C621   C     0.11700   0.73995   0.34492   0.00000  Uiso   1.00
H622   H     0.16299   0.95281   0.28891   0.00000  Uiso   1.00
H623   H     0.17904   0.94433   0.22431   0.00000  Uiso   1.00
H624   H     0.23590   0.03594   0.32340   0.00000  Uiso   1.00
H625   H     0.06191   0.89328   0.31728   0.00000  Uiso   1.00
H626   H     0.21598   0.91114   0.15545   0.00000  Uiso   1.00
H627   H     0.33586   0.10430   0.36440   0.00000  Uiso   1.00
H628   H     0.96898   0.80348   0.35150   0.00000  Uiso   1.00
H629   H     0.31041   0.76938   0.31023   0.00000  Uiso   1.00
H630   H     0.33455   0.75082   0.24679   0.00000  Uiso   1.00
H631   H     0.39141   0.84244   0.34589   0.00000  Uiso   1.00
H632   H     0.21742   0.69978   0.33977   0.00000  Uiso   1.00
H633   H     0.34220   0.75408   0.17370   0.00000  Uiso   1.00
H634   H     0.46208   0.94725   0.38266   0.00000  Uiso   1.00
H635   H     0.09520   0.64643   0.36975   0.00000  Uiso   1.00
O636   O     0.29233   0.82373   0.12247   0.00000  Uiso   1.00
O637   O     0.44959   0.07716   0.39661   0.00000  Uiso   1.00
O638   O     0.96826   0.68248   0.37968   0.00000  Uiso   1.00
N639   N     0.24236   0.87671   0.16845   0.00000  Uiso   1.00
N640   N     0.35445   0.05732   0.36380   0.00000  Uiso   1.00
N641   N     0.01145   0.77608   0.35175   0.00000  Uiso   1.00
N642   N     0.31028   0.79220   0.17827   0.00000  Uiso   1.00
N643   N     0.42237   0.97281   0.37363   0.00000  Uiso   1.00
N644   N     0.07937   0.69157   0.36157   0.00000  Uiso   1.00
C645   C     0.30324   0.58922   0.79379   0.00000  Uiso   1.00
C646   C     0.27408   0.61927   0.76165   0.00000  Uiso   1.00
C647   C     0.28739   0.59745   0.72915   0.00000  Uiso   1.00
C648   C     0.25574   0.63157   0.70312   0.00000  Uiso   1.00
C649   C     0.21704   0.66999   0.65225   0.00000  Uiso   1.00
C650   C     0.24318   0.56949   0.81548   0.00000  Uiso   1.00
C651   C     0.23052   0.50582   0.82826   0.00000  Uiso   1.00
C652   C     0.17286   0.49803   0.84754   0.00000  Uiso   1.00
C653   C     0.08622   0.45919   0.88028   0.00000  Uiso   1.00
C654   C     0.33771   0.64700   0.81216   0.00000  Uiso   1.00
C655   C     0.40453   0.64850   0.82214   0.00000  Uiso   1.00
C656   C     0.42646   0.70597   0.83864   0.00000  Uiso   1.00
C657   C     0.48659   0.78747   0.86621   0.00000  Uiso   1.00
C658   C     0.22337   0.68860   0.80534   0.00000  Uiso   1.00
C659   C     0.23070   0.67324   0.76792   0.00000  Uiso   1.00
C660   C     0.19902   0.70740   0.74193   0.00000  Uiso   1.00
C661   C     0.21229   0.68564   0.70940   0.00000  Uiso   1.00
C662   C     0.19980   0.62346   0.82176   0.00000  Uiso   1.00
C663   C     0.14215   0.61577   0.84104   0.00000  Uiso   1.00
C664   C     0.12940   0.55211   0.85383   0.00000  Uiso   1.00
C665   C     0.29433   0.70098   0.81843   0.00000  Uiso   1.00
C666   C     0.31616   0.75845   0.83492   0.00000  Uiso   1.00
C667   C     0.38300   0.76005   0.84492   0.00000  Uiso   1.00
H668   H     0.33701   0.54719   0.78891   0.00000  Uiso   1.00
H669   H     0.32096   0.55567   0.72431   0.00000  Uiso   1.00
H670   H     0.26410   0.46406   0.82340   0.00000  Uiso   1.00
H671   H     0.43809   0.60672   0.81728   0.00000  Uiso   1.00
H672   H     0.28402   0.58886   0.65545   0.00000  Uiso   1.00
H673   H     0.16414   0.39570   0.86440   0.00000  Uiso   1.00
H674   H     0.53102   0.69652   0.85150   0.00000  Uiso   1.00
H675   H     0.18959   0.73062   0.81023   0.00000  Uiso   1.00
H676   H     0.16545   0.74918   0.74679   0.00000  Uiso   1.00
H677   H     0.10859   0.65756   0.84589   0.00000  Uiso   1.00
H678   H     0.28258   0.80022   0.83977   0.00000  Uiso   1.00
H679   H     0.15780   0.74592   0.67370   0.00000  Uiso   1.00
H680   H     0.03792   0.55275   0.88266   0.00000  Uiso   1.00
H681   H     0.40480   0.85357   0.86975   0.00000  Uiso   1.00
O682   O     0.20767   0.67627   0.62247   0.00000  Uiso   1.00
O683   O     0.05041   0.42284   0.89661   0.00000  Uiso   1.00
O684   O     0.53174   0.81752   0.87968   0.00000  Uiso   1.00
N685   N     0.25764   0.62329   0.66845   0.00000  Uiso   1.00
N686   N     0.14555   0.44268   0.86380   0.00000  Uiso   1.00
N687   N     0.48855   0.72392   0.85175   0.00000  Uiso   1.00
N688   N     0.18972   0.70780   0.67827   0.00000  Uiso   1.00
N689   N     0.07763   0.52719   0.87363   0.00000  Uiso   1.00
N690   N     0.42063   0.80843   0.86157   0.00000  Uiso   1.00
C691   C     0.80324   0.08922   0.29379   0.00000  Uiso   1.00
C692   C     0.77408   0.11927   0.26165   0.00000  Uiso   1.00
C693   C     0.78739   0.09745   0.22915   0.00000  Uiso   1.00
C694   C     0.75574   0.13157   0.20312   0.00000  Uiso   1.00
C695   C     0.71704   0.16999   0.15225   0.00000  Uiso   1.00
C696   C     0.74318   0.06949   0.31548   0.00000  Uiso   1.00
C697   C     0.73052   0.00582   0.32826   0.00000  Uiso   1.00
C698   C     0.67286   0.99803   0.34754   0.00000  Uiso   1.00
C699   C     0.58622   0.95919   0.38028   0.00000  Uiso   1.00
C700   C     0.83771   0.14700   0.31216   0.00000  Uiso   1.00
C701   C     0.90453   0.14850   0.32214   0.00000  Uiso   1.00
C702   C     0.92646   0.20597   0.33864   0.00000  Uiso   1.00
C703   C     0.98659   0.28747   0.36621   0.00000  Uiso   1.00
C704   C     0.72337   0.18860   0.30534   0.00000  Uiso   1.00
C705   C     0.73070   0.17324   0.26792   0.00000  Uiso   1.00
C706   C     0.69902   0.20740   0.24193   0.00000  Uiso   1.00
C707   C     0.71229   0.18564   0.20940   0.00000  Uiso   1.00
C708   C     0.69980   0.12346   0.32176   0.00000  Uiso   1.00
C709   C     0.64215   0.11577   0.34104   0.00000  Uiso   1.00
C710   C     0.62940   0.05211   0.35383   0.00000  Uiso   1.00
C711   C     0.79433   0.20098   0.31843   0.00000  Uiso   1.00
C712   C     0.81616   0.25845   0.33492   0.00000  Uiso   1.00
C713   C     0.88300   0.26005   0.34492   0.00000  Uiso   1.00
H714   H     0.83701   0.04719   0.28891   0.00000  Uiso   1.00
H715   H     0.82096   0.05567   0.22431   0.00000  Uiso   1.00
H716   H     0.76410   0.96406   0.32340   0.00000  Uiso   1.00
H717   H     0.93809   0.10672   0.31728   0.00000  Uiso   1.00
H718   H     0.78402   0.08886   0.15545   0.00000  Uiso   1.00
H719   H     0.66414   0.89570   0.36440   0.00000  Uiso   1.00
H720   H     0.03102   0.19652   0.35150   0.00000  Uiso   1.00
H721   H     0.68959   0.23062   0.31023   0.00000  Uiso   1.00
H722   H     0.66545   0.24918   0.24679   0.00000  Uiso   1.00
H723   H     0.60859   0.15756   0.34589   0.00000  Uiso   1.00
H724   H     0.78258   0.30022   0.33977   0.00000  Uiso   1.00
H725   H     0.65780   0.24592   0.17370   0.00000  Uiso   1.00
H726   H     0.53792   0.05275   0.38266   0.00000  Uiso   1.00
H727   H     0.90480   0.35357   0.36975   0.00000  Uiso   1.00
O728   O     0.70767   0.17627   0.12247   0.00000  Uiso   1.00
O729   O     0.55041   0.92284   0.39661   0.00000  Uiso   1.00
O730   O     0.03174   0.31752   0.37968   0.00000  Uiso   1.00
N731   N     0.75764   0.12329   0.16845   0.00000  Uiso   1.00
N732   N     0.64555   0.94268   0.36380   0.00000  Uiso   1.00
N733   N     0.98855   0.22392   0.35175   0.00000  Uiso   1.00
N734   N     0.68972   0.20780   0.17827   0.00000  Uiso   1.00
N735   N     0.57763   0.02719   0.37363   0.00000  Uiso   1.00
N736   N     0.92063   0.30843   0.36157   0.00000  Uiso   1.00
