data_job_03587
_audit_creation_date              2018-12-19
_audit_creation_method            'Materials Studio'
_symmetry_space_group_name_H-M    'P1'
_symmetry_Int_Tables_number       1
_symmetry_cell_setting            triclinic
loop_
_symmetry_equiv_pos_as_xyz
  x,y,z
_cell_length_a                    36.4839
_cell_length_b                    36.4839
_cell_length_c                    11.9684
_cell_angle_alpha                 90.0000
_cell_angle_beta                  90.0000
_cell_angle_gamma                 90.0000
loop_
_atom_site_label
_atom_site_type_symbol
_atom_site_fract_x
_atom_site_fract_y
_atom_site_fract_z
_atom_site_U_iso_or_equiv
_atom_site_adp_type
_atom_site_occupancy
C1     C     0.20409   0.38812   0.22986   0.00000  Uiso   1.00
C2     C     0.23774   0.36348   0.22143   0.00000  Uiso   1.00
C3     C     0.26698   0.36841   0.14882   0.00000  Uiso   1.00
C4     C     0.29513   0.34285   0.15399   0.00000  Uiso   1.00
C5     C     0.34753   0.30906   0.12944   0.00000  Uiso   1.00
C6     C     0.17104   0.36325   0.21156   0.00000  Uiso   1.00
C7     C     0.14420   0.36798   0.13066   0.00000  Uiso   1.00
C8     C     0.11620   0.34222   0.12753   0.00000  Uiso   1.00
C9     C     0.06504   0.30808   0.08771   0.00000  Uiso   1.00
C10    C     0.20210   0.40053   0.35137   0.00000  Uiso   1.00
C11    C     0.20137   0.43661   0.38802   0.00000  Uiso   1.00
C12    C     0.19952   0.44226   0.50261   0.00000  Uiso   1.00
C13    C     0.19660   0.46600   0.67986   0.00000  Uiso   1.00
C14    C     0.20207   0.33398   0.36818   0.00000  Uiso   1.00
C15    C     0.23664   0.33408   0.29656   0.00000  Uiso   1.00
C16    C     0.26475   0.30851   0.30186   0.00000  Uiso   1.00
C17    C     0.29403   0.31340   0.22926   0.00000  Uiso   1.00
C18    C     0.16994   0.33384   0.28669   0.00000  Uiso   1.00
C19    C     0.14197   0.30808   0.28369   0.00000  Uiso   1.00
C20    C     0.11510   0.31276   0.20280   0.00000  Uiso   1.00
C21    C     0.20101   0.37113   0.42651   0.00000  Uiso   1.00
C22    C     0.19915   0.37671   0.54106   0.00000  Uiso   1.00
C23    C     0.19842   0.41280   0.57788   0.00000  Uiso   1.00
H24    H     0.20493   0.41101   0.17137   0.00000  Uiso   1.00
H25    H     0.26781   0.39117   0.09068   0.00000  Uiso   1.00
H26    H     0.14505   0.39074   0.07253   0.00000  Uiso   1.00
H27    H     0.20222   0.45936   0.32986   0.00000  Uiso   1.00
H28    H     0.33704   0.35619   0.03433   0.00000  Uiso   1.00
H29    H     0.07818   0.35528   0.99609   0.00000  Uiso   1.00
H30    H     0.19873   0.50000   0.53871   0.00000  Uiso   1.00
H31    H     0.20122   0.31109   0.42668   0.00000  Uiso   1.00
H32    H     0.26390   0.28575   0.36000   0.00000  Uiso   1.00
H33    H     0.14114   0.28532   0.34185   0.00000  Uiso   1.00
H34    H     0.19831   0.35395   0.59918   0.00000  Uiso   1.00
H35    H     0.33386   0.27063   0.25292   0.00000  Uiso   1.00
H36    H     0.07500   0.26973   0.21468   0.00000  Uiso   1.00
H37    H     0.19555   0.41444   0.75730   0.00000  Uiso   1.00
O38    O     0.37674   0.29854   0.09513   0.00000  Uiso   1.00
O39    O     0.03713   0.29736   0.04497   0.00000  Uiso   1.00
O40    O     0.19529   0.48722   0.75687   0.00000  Uiso   1.00
N41    N     0.32769   0.33953   0.09494   0.00000  Uiso   1.00
N42    N     0.08568   0.33868   0.05917   0.00000  Uiso   1.00
N43    N     0.19837   0.47398   0.56648   0.00000  Uiso   1.00
N44    N     0.32598   0.29349   0.21256   0.00000  Uiso   1.00
N45    N     0.08397   0.29265   0.17680   0.00000  Uiso   1.00
N46    N     0.19666   0.42794   0.68410   0.00000  Uiso   1.00
C47    C     0.70409   0.88812   0.72986   0.00000  Uiso   1.00
C48    C     0.73774   0.86348   0.72143   0.00000  Uiso   1.00
C49    C     0.76698   0.86841   0.64882   0.00000  Uiso   1.00
C50    C     0.79513   0.84285   0.65399   0.00000  Uiso   1.00
C51    C     0.84753   0.80906   0.62944   0.00000  Uiso   1.00
C52    C     0.67104   0.86325   0.71156   0.00000  Uiso   1.00
C53    C     0.64420   0.86798   0.63066   0.00000  Uiso   1.00
C54    C     0.61620   0.84222   0.62753   0.00000  Uiso   1.00
C55    C     0.56504   0.80808   0.58771   0.00000  Uiso   1.00
C56    C     0.70210   0.90053   0.85137   0.00000  Uiso   1.00
C57    C     0.70137   0.93661   0.88802   0.00000  Uiso   1.00
C58    C     0.69952   0.94226   0.00261   0.00000  Uiso   1.00
C59    C     0.69660   0.96600   0.17986   0.00000  Uiso   1.00
C60    C     0.70207   0.83398   0.86818   0.00000  Uiso   1.00
C61    C     0.73664   0.83408   0.79656   0.00000  Uiso   1.00
C62    C     0.76475   0.80851   0.80186   0.00000  Uiso   1.00
C63    C     0.79403   0.81340   0.72926   0.00000  Uiso   1.00
C64    C     0.66994   0.83384   0.78669   0.00000  Uiso   1.00
C65    C     0.64197   0.80808   0.78369   0.00000  Uiso   1.00
C66    C     0.61510   0.81276   0.70280   0.00000  Uiso   1.00
C67    C     0.70101   0.87113   0.92651   0.00000  Uiso   1.00
C68    C     0.69915   0.87671   0.04106   0.00000  Uiso   1.00
C69    C     0.69842   0.91280   0.07788   0.00000  Uiso   1.00
H70    H     0.70493   0.91101   0.67137   0.00000  Uiso   1.00
H71    H     0.76781   0.89117   0.59068   0.00000  Uiso   1.00
H72    H     0.64505   0.89074   0.57253   0.00000  Uiso   1.00
H73    H     0.70222   0.95936   0.82986   0.00000  Uiso   1.00
H74    H     0.83704   0.85619   0.53433   0.00000  Uiso   1.00
H75    H     0.57818   0.85528   0.49609   0.00000  Uiso   1.00
H76    H     0.69873   0.00000   0.03871   0.00000  Uiso   1.00
H77    H     0.70122   0.81109   0.92668   0.00000  Uiso   1.00
H78    H     0.76390   0.78575   0.86000   0.00000  Uiso   1.00
H79    H     0.64114   0.78532   0.84185   0.00000  Uiso   1.00
H80    H     0.69831   0.85395   0.09918   0.00000  Uiso   1.00
H81    H     0.83386   0.77063   0.75292   0.00000  Uiso   1.00
H82    H     0.57500   0.76973   0.71468   0.00000  Uiso   1.00
H83    H     0.69555   0.91444   0.25730   0.00000  Uiso   1.00
O84    O     0.87674   0.79854   0.59513   0.00000  Uiso   1.00
O85    O     0.53713   0.79736   0.54497   0.00000  Uiso   1.00
O86    O     0.69529   0.98722   0.25687   0.00000  Uiso   1.00
N87    N     0.82769   0.83953   0.59494   0.00000  Uiso   1.00
N88    N     0.58568   0.83868   0.55917   0.00000  Uiso   1.00
N89    N     0.69837   0.97398   0.06648   0.00000  Uiso   1.00
N90    N     0.82598   0.79349   0.71256   0.00000  Uiso   1.00
N91    N     0.58397   0.79265   0.67680   0.00000  Uiso   1.00
N92    N     0.69666   0.92794   0.18410   0.00000  Uiso   1.00
C93    C     0.29591   0.11188   0.72986   0.00000  Uiso   1.00
C94    C     0.26226   0.13652   0.72143   0.00000  Uiso   1.00
C95    C     0.23302   0.13159   0.64882   0.00000  Uiso   1.00
C96    C     0.20487   0.15715   0.65399   0.00000  Uiso   1.00
C97    C     0.15247   0.19094   0.62944   0.00000  Uiso   1.00
C98    C     0.32896   0.13675   0.71156   0.00000  Uiso   1.00
C99    C     0.35580   0.13202   0.63066   0.00000  Uiso   1.00
C100   C     0.38380   0.15778   0.62753   0.00000  Uiso   1.00
C101   C     0.43496   0.19192   0.58771   0.00000  Uiso   1.00
C102   C     0.29790   0.09947   0.85137   0.00000  Uiso   1.00
C103   C     0.29863   0.06339   0.88802   0.00000  Uiso   1.00
C104   C     0.30048   0.05774   0.00261   0.00000  Uiso   1.00
C105   C     0.30340   0.03400   0.17986   0.00000  Uiso   1.00
C106   C     0.29793   0.16602   0.86818   0.00000  Uiso   1.00
C107   C     0.26336   0.16592   0.79656   0.00000  Uiso   1.00
C108   C     0.23525   0.19149   0.80186   0.00000  Uiso   1.00
C109   C     0.20597   0.18660   0.72926   0.00000  Uiso   1.00
C110   C     0.33006   0.16616   0.78669   0.00000  Uiso   1.00
C111   C     0.35803   0.19192   0.78369   0.00000  Uiso   1.00
C112   C     0.38490   0.18724   0.70280   0.00000  Uiso   1.00
C113   C     0.29899   0.12887   0.92651   0.00000  Uiso   1.00
C114   C     0.30085   0.12329   0.04106   0.00000  Uiso   1.00
C115   C     0.30158   0.08720   0.07788   0.00000  Uiso   1.00
H116   H     0.29507   0.08899   0.67137   0.00000  Uiso   1.00
H117   H     0.23219   0.10883   0.59068   0.00000  Uiso   1.00
H118   H     0.35495   0.10926   0.57253   0.00000  Uiso   1.00
H119   H     0.29778   0.04064   0.82986   0.00000  Uiso   1.00
H120   H     0.16296   0.14381   0.53433   0.00000  Uiso   1.00
H121   H     0.42182   0.14472   0.49609   0.00000  Uiso   1.00
H122   H     0.30127  -0.00000   0.03871   0.00000  Uiso   1.00
H123   H     0.29878   0.18891   0.92668   0.00000  Uiso   1.00
H124   H     0.23610   0.21425   0.86000   0.00000  Uiso   1.00
H125   H     0.35886   0.21468   0.84185   0.00000  Uiso   1.00
H126   H     0.30169   0.14605   0.09918   0.00000  Uiso   1.00
H127   H     0.16614   0.22937   0.75292   0.00000  Uiso   1.00
H128   H     0.42500   0.23027   0.71468   0.00000  Uiso   1.00
H129   H     0.30445   0.08556   0.25730   0.00000  Uiso   1.00
O130   O     0.12326   0.20146   0.59513   0.00000  Uiso   1.00
O131   O     0.46287   0.20264   0.54497   0.00000  Uiso   1.00
O132   O     0.30471   0.01278   0.25687   0.00000  Uiso   1.00
N133   N     0.17231   0.16047   0.59494   0.00000  Uiso   1.00
N134   N     0.41432   0.16132   0.55917   0.00000  Uiso   1.00
N135   N     0.30163   0.02602   0.06648   0.00000  Uiso   1.00
N136   N     0.17402   0.20651   0.71256   0.00000  Uiso   1.00
N137   N     0.41603   0.20735   0.67680   0.00000  Uiso   1.00
N138   N     0.30334   0.07206   0.18410   0.00000  Uiso   1.00
C139   C     0.79591   0.61188   0.22986   0.00000  Uiso   1.00
C140   C     0.76226   0.63652   0.22143   0.00000  Uiso   1.00
C141   C     0.73302   0.63159   0.14882   0.00000  Uiso   1.00
C142   C     0.70487   0.65715   0.15399   0.00000  Uiso   1.00
C143   C     0.65247   0.69094   0.12944   0.00000  Uiso   1.00
C144   C     0.82896   0.63675   0.21156   0.00000  Uiso   1.00
C145   C     0.85580   0.63202   0.13066   0.00000  Uiso   1.00
C146   C     0.88380   0.65778   0.12753   0.00000  Uiso   1.00
C147   C     0.93496   0.69192   0.08771   0.00000  Uiso   1.00
C148   C     0.79790   0.59947   0.35137   0.00000  Uiso   1.00
C149   C     0.79863   0.56339   0.38802   0.00000  Uiso   1.00
C150   C     0.80048   0.55774   0.50261   0.00000  Uiso   1.00
C151   C     0.80340   0.53400   0.67986   0.00000  Uiso   1.00
C152   C     0.79793   0.66602   0.36818   0.00000  Uiso   1.00
C153   C     0.76336   0.66592   0.29656   0.00000  Uiso   1.00
C154   C     0.73525   0.69149   0.30186   0.00000  Uiso   1.00
C155   C     0.70597   0.68660   0.22926   0.00000  Uiso   1.00
C156   C     0.83006   0.66616   0.28669   0.00000  Uiso   1.00
C157   C     0.85803   0.69192   0.28369   0.00000  Uiso   1.00
C158   C     0.88490   0.68724   0.20280   0.00000  Uiso   1.00
C159   C     0.79899   0.62887   0.42651   0.00000  Uiso   1.00
C160   C     0.80085   0.62329   0.54106   0.00000  Uiso   1.00
C161   C     0.80158   0.58720   0.57788   0.00000  Uiso   1.00
H162   H     0.79507   0.58899   0.17137   0.00000  Uiso   1.00
H163   H     0.73219   0.60883   0.09068   0.00000  Uiso   1.00
H164   H     0.85495   0.60926   0.07253   0.00000  Uiso   1.00
H165   H     0.79778   0.54064   0.32986   0.00000  Uiso   1.00
H166   H     0.66296   0.64381   0.03433   0.00000  Uiso   1.00
H167   H     0.92182   0.64472   0.99609   0.00000  Uiso   1.00
H168   H     0.80127   0.50000   0.53871   0.00000  Uiso   1.00
H169   H     0.79878   0.68891   0.42668   0.00000  Uiso   1.00
H170   H     0.73610   0.71425   0.36000   0.00000  Uiso   1.00
H171   H     0.85886   0.71468   0.34185   0.00000  Uiso   1.00
H172   H     0.80169   0.64605   0.59918   0.00000  Uiso   1.00
H173   H     0.66614   0.72937   0.25292   0.00000  Uiso   1.00
H174   H     0.92500   0.73027   0.21468   0.00000  Uiso   1.00
H175   H     0.80445   0.58556   0.75730   0.00000  Uiso   1.00
O176   O     0.62326   0.70146   0.09513   0.00000  Uiso   1.00
O177   O     0.96287   0.70264   0.04497   0.00000  Uiso   1.00
O178   O     0.80471   0.51278   0.75687   0.00000  Uiso   1.00
N179   N     0.67231   0.66047   0.09494   0.00000  Uiso   1.00
N180   N     0.91432   0.66132   0.05917   0.00000  Uiso   1.00
N181   N     0.80163   0.52602   0.56648   0.00000  Uiso   1.00
N182   N     0.67402   0.70651   0.21256   0.00000  Uiso   1.00
N183   N     0.91603   0.70735   0.17680   0.00000  Uiso   1.00
N184   N     0.80334   0.57206   0.68410   0.00000  Uiso   1.00
C185   C     0.61188   0.70409   0.47986   0.00000  Uiso   1.00
C186   C     0.63652   0.73774   0.47143   0.00000  Uiso   1.00
C187   C     0.63159   0.76698   0.39882   0.00000  Uiso   1.00
C188   C     0.65715   0.79513   0.40399   0.00000  Uiso   1.00
C189   C     0.69094   0.84753   0.37944   0.00000  Uiso   1.00
C190   C     0.63675   0.67104   0.46156   0.00000  Uiso   1.00
C191   C     0.63202   0.64420   0.38066   0.00000  Uiso   1.00
C192   C     0.65778   0.61620   0.37753   0.00000  Uiso   1.00
C193   C     0.69192   0.56504   0.33771   0.00000  Uiso   1.00
C194   C     0.59947   0.70210   0.60137   0.00000  Uiso   1.00
C195   C     0.56339   0.70137   0.63802   0.00000  Uiso   1.00
C196   C     0.55774   0.69952   0.75261   0.00000  Uiso   1.00
C197   C     0.53400   0.69660   0.92986   0.00000  Uiso   1.00
C198   C     0.66602   0.70207   0.61818   0.00000  Uiso   1.00
C199   C     0.66592   0.73664   0.54656   0.00000  Uiso   1.00
C200   C     0.69149   0.76475   0.55186   0.00000  Uiso   1.00
C201   C     0.68660   0.79403   0.47926   0.00000  Uiso   1.00
C202   C     0.66616   0.66994   0.53669   0.00000  Uiso   1.00
C203   C     0.69192   0.64197   0.53369   0.00000  Uiso   1.00
C204   C     0.68724   0.61510   0.45280   0.00000  Uiso   1.00
C205   C     0.62887   0.70101   0.67651   0.00000  Uiso   1.00
C206   C     0.62329   0.69915   0.79106   0.00000  Uiso   1.00
C207   C     0.58720   0.69842   0.82788   0.00000  Uiso   1.00
H208   H     0.58899   0.70493   0.42137   0.00000  Uiso   1.00
H209   H     0.60883   0.76781   0.34068   0.00000  Uiso   1.00
H210   H     0.60926   0.64505   0.32253   0.00000  Uiso   1.00
H211   H     0.54064   0.70222   0.57986   0.00000  Uiso   1.00
H212   H     0.64381   0.83704   0.28433   0.00000  Uiso   1.00
H213   H     0.64472   0.57818   0.24609   0.00000  Uiso   1.00
H214   H     0.50000   0.69873   0.78871   0.00000  Uiso   1.00
H215   H     0.68891   0.70122   0.67668   0.00000  Uiso   1.00
H216   H     0.71425   0.76390   0.61000   0.00000  Uiso   1.00
H217   H     0.71468   0.64114   0.59185   0.00000  Uiso   1.00
H218   H     0.64605   0.69831   0.84918   0.00000  Uiso   1.00
H219   H     0.72937   0.83386   0.50292   0.00000  Uiso   1.00
H220   H     0.73027   0.57500   0.46468   0.00000  Uiso   1.00
H221   H     0.58556   0.69555   0.00730   0.00000  Uiso   1.00
O222   O     0.70146   0.87674   0.34513   0.00000  Uiso   1.00
O223   O     0.70264   0.53713   0.29497   0.00000  Uiso   1.00
O224   O     0.51278   0.69529   0.00687   0.00000  Uiso   1.00
N225   N     0.66047   0.82769   0.34494   0.00000  Uiso   1.00
N226   N     0.66132   0.58568   0.30917   0.00000  Uiso   1.00
N227   N     0.52602   0.69837   0.81648   0.00000  Uiso   1.00
N228   N     0.70651   0.82598   0.46256   0.00000  Uiso   1.00
N229   N     0.70735   0.58397   0.42680   0.00000  Uiso   1.00
N230   N     0.57206   0.69666   0.93410   0.00000  Uiso   1.00
C231   C     0.11188   0.20409   0.97986   0.00000  Uiso   1.00
C232   C     0.13652   0.23774   0.97143   0.00000  Uiso   1.00
C233   C     0.13159   0.26698   0.89882   0.00000  Uiso   1.00
C234   C     0.15715   0.29513   0.90399   0.00000  Uiso   1.00
C235   C     0.19094   0.34753   0.87944   0.00000  Uiso   1.00
C236   C     0.13675   0.17104   0.96156   0.00000  Uiso   1.00
C237   C     0.13202   0.14420   0.88066   0.00000  Uiso   1.00
C238   C     0.15778   0.11620   0.87753   0.00000  Uiso   1.00
C239   C     0.19192   0.06504   0.83771   0.00000  Uiso   1.00
C240   C     0.09947   0.20210   0.10137   0.00000  Uiso   1.00
C241   C     0.06339   0.20137   0.13802   0.00000  Uiso   1.00
C242   C     0.05774   0.19952   0.25261   0.00000  Uiso   1.00
C243   C     0.03400   0.19660   0.42986   0.00000  Uiso   1.00
C244   C     0.16602   0.20207   0.11818   0.00000  Uiso   1.00
C245   C     0.16592   0.23664   0.04656   0.00000  Uiso   1.00
C246   C     0.19149   0.26475   0.05186   0.00000  Uiso   1.00
C247   C     0.18660   0.29403   0.97926   0.00000  Uiso   1.00
C248   C     0.16616   0.16994   0.03669   0.00000  Uiso   1.00
C249   C     0.19192   0.14197   0.03369   0.00000  Uiso   1.00
C250   C     0.18724   0.11510   0.95280   0.00000  Uiso   1.00
C251   C     0.12887   0.20101   0.17651   0.00000  Uiso   1.00
C252   C     0.12329   0.19915   0.29106   0.00000  Uiso   1.00
C253   C     0.08720   0.19842   0.32788   0.00000  Uiso   1.00
H254   H     0.08899   0.20493   0.92137   0.00000  Uiso   1.00
H255   H     0.10883   0.26781   0.84068   0.00000  Uiso   1.00
H256   H     0.10926   0.14505   0.82253   0.00000  Uiso   1.00
H257   H     0.04064   0.20222   0.07986   0.00000  Uiso   1.00
H258   H     0.14381   0.33704   0.78433   0.00000  Uiso   1.00
H259   H     0.14472   0.07818   0.74609   0.00000  Uiso   1.00
H260   H    -0.00000   0.19873   0.28871   0.00000  Uiso   1.00
H261   H     0.18891   0.20122   0.17668   0.00000  Uiso   1.00
H262   H     0.21425   0.26390   0.11000   0.00000  Uiso   1.00
H263   H     0.21468   0.14114   0.09185   0.00000  Uiso   1.00
H264   H     0.14605   0.19831   0.34918   0.00000  Uiso   1.00
H265   H     0.22937   0.33386   0.00292   0.00000  Uiso   1.00
H266   H     0.23027   0.07500   0.96468   0.00000  Uiso   1.00
H267   H     0.08556   0.19555   0.50730   0.00000  Uiso   1.00
O268   O     0.20146   0.37674   0.84513   0.00000  Uiso   1.00
O269   O     0.20264   0.03713   0.79497   0.00000  Uiso   1.00
O270   O     0.01278   0.19529   0.50687   0.00000  Uiso   1.00
N271   N     0.16047   0.32769   0.84494   0.00000  Uiso   1.00
N272   N     0.16132   0.08568   0.80917   0.00000  Uiso   1.00
N273   N     0.02602   0.19837   0.31648   0.00000  Uiso   1.00
N274   N     0.20651   0.32598   0.96256   0.00000  Uiso   1.00
N275   N     0.20735   0.08397   0.92680   0.00000  Uiso   1.00
N276   N     0.07206   0.19666   0.43410   0.00000  Uiso   1.00
C277   C     0.88812   0.79591   0.97986   0.00000  Uiso   1.00
C278   C     0.86348   0.76226   0.97143   0.00000  Uiso   1.00
C279   C     0.86841   0.73302   0.89882   0.00000  Uiso   1.00
C280   C     0.84285   0.70487   0.90399   0.00000  Uiso   1.00
C281   C     0.80906   0.65247   0.87944   0.00000  Uiso   1.00
C282   C     0.86325   0.82896   0.96156   0.00000  Uiso   1.00
C283   C     0.86798   0.85580   0.88066   0.00000  Uiso   1.00
C284   C     0.84222   0.88380   0.87753   0.00000  Uiso   1.00
C285   C     0.80808   0.93496   0.83771   0.00000  Uiso   1.00
C286   C     0.90053   0.79790   0.10137   0.00000  Uiso   1.00
C287   C     0.93661   0.79863   0.13802   0.00000  Uiso   1.00
C288   C     0.94226   0.80048   0.25261   0.00000  Uiso   1.00
C289   C     0.96600   0.80340   0.42986   0.00000  Uiso   1.00
C290   C     0.83398   0.79793   0.11818   0.00000  Uiso   1.00
C291   C     0.83408   0.76336   0.04656   0.00000  Uiso   1.00
C292   C     0.80851   0.73525   0.05186   0.00000  Uiso   1.00
C293   C     0.81340   0.70597   0.97926   0.00000  Uiso   1.00
C294   C     0.83384   0.83006   0.03669   0.00000  Uiso   1.00
C295   C     0.80808   0.85803   0.03369   0.00000  Uiso   1.00
C296   C     0.81276   0.88490   0.95280   0.00000  Uiso   1.00
C297   C     0.87113   0.79899   0.17651   0.00000  Uiso   1.00
C298   C     0.87671   0.80085   0.29106   0.00000  Uiso   1.00
C299   C     0.91280   0.80158   0.32788   0.00000  Uiso   1.00
H300   H     0.91101   0.79507   0.92137   0.00000  Uiso   1.00
H301   H     0.89117   0.73219   0.84068   0.00000  Uiso   1.00
H302   H     0.89074   0.85495   0.82253   0.00000  Uiso   1.00
H303   H     0.95936   0.79778   0.07986   0.00000  Uiso   1.00
H304   H     0.85619   0.66296   0.78433   0.00000  Uiso   1.00
H305   H     0.85528   0.92182   0.74609   0.00000  Uiso   1.00
H306   H     0.00000   0.80127   0.28871   0.00000  Uiso   1.00
H307   H     0.81109   0.79878   0.17668   0.00000  Uiso   1.00
H308   H     0.78575   0.73610   0.11000   0.00000  Uiso   1.00
H309   H     0.78532   0.85886   0.09185   0.00000  Uiso   1.00
H310   H     0.85395   0.80169   0.34918   0.00000  Uiso   1.00
H311   H     0.77063   0.66614   0.00292   0.00000  Uiso   1.00
H312   H     0.76973   0.92500   0.96468   0.00000  Uiso   1.00
H313   H     0.91444   0.80445   0.50730   0.00000  Uiso   1.00
O314   O     0.79854   0.62326   0.84513   0.00000  Uiso   1.00
O315   O     0.79736   0.96287   0.79497   0.00000  Uiso   1.00
O316   O     0.98722   0.80471   0.50687   0.00000  Uiso   1.00
N317   N     0.83953   0.67231   0.84494   0.00000  Uiso   1.00
N318   N     0.83868   0.91432   0.80917   0.00000  Uiso   1.00
N319   N     0.97398   0.80163   0.31648   0.00000  Uiso   1.00
N320   N     0.79349   0.67402   0.96256   0.00000  Uiso   1.00
N321   N     0.79265   0.91603   0.92680   0.00000  Uiso   1.00
N322   N     0.92794   0.80334   0.43410   0.00000  Uiso   1.00
C323   C     0.38812   0.29591   0.47986   0.00000  Uiso   1.00
C324   C     0.36348   0.26226   0.47143   0.00000  Uiso   1.00
C325   C     0.36841   0.23302   0.39882   0.00000  Uiso   1.00
C326   C     0.34285   0.20487   0.40399   0.00000  Uiso   1.00
C327   C     0.30906   0.15247   0.37944   0.00000  Uiso   1.00
C328   C     0.36325   0.32896   0.46156   0.00000  Uiso   1.00
C329   C     0.36798   0.35580   0.38066   0.00000  Uiso   1.00
C330   C     0.34222   0.38380   0.37753   0.00000  Uiso   1.00
C331   C     0.30808   0.43496   0.33771   0.00000  Uiso   1.00
C332   C     0.40053   0.29790   0.60137   0.00000  Uiso   1.00
C333   C     0.43661   0.29863   0.63802   0.00000  Uiso   1.00
C334   C     0.44226   0.30048   0.75261   0.00000  Uiso   1.00
C335   C     0.46600   0.30340   0.92986   0.00000  Uiso   1.00
C336   C     0.33398   0.29793   0.61818   0.00000  Uiso   1.00
C337   C     0.33408   0.26336   0.54656   0.00000  Uiso   1.00
C338   C     0.30851   0.23525   0.55186   0.00000  Uiso   1.00
C339   C     0.31340   0.20597   0.47926   0.00000  Uiso   1.00
C340   C     0.33384   0.33006   0.53669   0.00000  Uiso   1.00
C341   C     0.30808   0.35803   0.53369   0.00000  Uiso   1.00
C342   C     0.31276   0.38490   0.45280   0.00000  Uiso   1.00
C343   C     0.37113   0.29899   0.67651   0.00000  Uiso   1.00
C344   C     0.37671   0.30085   0.79106   0.00000  Uiso   1.00
C345   C     0.41280   0.30158   0.82788   0.00000  Uiso   1.00
H346   H     0.41101   0.29507   0.42137   0.00000  Uiso   1.00
H347   H     0.39117   0.23219   0.34068   0.00000  Uiso   1.00
H348   H     0.39074   0.35495   0.32253   0.00000  Uiso   1.00
H349   H     0.45936   0.29778   0.57986   0.00000  Uiso   1.00
H350   H     0.35619   0.16296   0.28433   0.00000  Uiso   1.00
H351   H     0.35528   0.42182   0.24609   0.00000  Uiso   1.00
H352   H     0.50000   0.30127   0.78871   0.00000  Uiso   1.00
H353   H     0.31109   0.29878   0.67668   0.00000  Uiso   1.00
H354   H     0.28575   0.23610   0.61000   0.00000  Uiso   1.00
H355   H     0.28532   0.35886   0.59185   0.00000  Uiso   1.00
H356   H     0.35395   0.30169   0.84918   0.00000  Uiso   1.00
H357   H     0.27063   0.16614   0.50292   0.00000  Uiso   1.00
H358   H     0.26973   0.42500   0.46468   0.00000  Uiso   1.00
H359   H     0.41444   0.30445   0.00730   0.00000  Uiso   1.00
O360   O     0.29854   0.12326   0.34513   0.00000  Uiso   1.00
O361   O     0.29736   0.46287   0.29497   0.00000  Uiso   1.00
O362   O     0.48722   0.30471   0.00687   0.00000  Uiso   1.00
N363   N     0.33953   0.17231   0.34494   0.00000  Uiso   1.00
N364   N     0.33868   0.41432   0.30917   0.00000  Uiso   1.00
N365   N     0.47398   0.30163   0.81648   0.00000  Uiso   1.00
N366   N     0.29349   0.17402   0.46256   0.00000  Uiso   1.00
N367   N     0.29265   0.41603   0.42680   0.00000  Uiso   1.00
N368   N     0.42794   0.30334   0.93410   0.00000  Uiso   1.00
C369   C     0.79591   0.11188   0.02014   0.00000  Uiso   1.00
C370   C     0.76226   0.13652   0.02857   0.00000  Uiso   1.00
C371   C     0.73302   0.13159   0.10118   0.00000  Uiso   1.00
C372   C     0.70487   0.15715   0.09601   0.00000  Uiso   1.00
C373   C     0.65247   0.19094   0.12056   0.00000  Uiso   1.00
C374   C     0.82896   0.13675   0.03844   0.00000  Uiso   1.00
C375   C     0.85580   0.13202   0.11934   0.00000  Uiso   1.00
C376   C     0.88380   0.15778   0.12247   0.00000  Uiso   1.00
C377   C     0.93496   0.19192   0.16229   0.00000  Uiso   1.00
C378   C     0.79790   0.09947   0.89863   0.00000  Uiso   1.00
C379   C     0.79863   0.06339   0.86198   0.00000  Uiso   1.00
C380   C     0.80048   0.05774   0.74739   0.00000  Uiso   1.00
C381   C     0.80340   0.03400   0.57014   0.00000  Uiso   1.00
C382   C     0.79793   0.16602   0.88182   0.00000  Uiso   1.00
C383   C     0.76336   0.16592   0.95344   0.00000  Uiso   1.00
C384   C     0.73525   0.19149   0.94814   0.00000  Uiso   1.00
C385   C     0.70597   0.18660   0.02074   0.00000  Uiso   1.00
C386   C     0.83006   0.16616   0.96331   0.00000  Uiso   1.00
C387   C     0.85803   0.19192   0.96631   0.00000  Uiso   1.00
C388   C     0.88490   0.18724   0.04720   0.00000  Uiso   1.00
C389   C     0.79899   0.12887   0.82349   0.00000  Uiso   1.00
C390   C     0.80085   0.12329   0.70894   0.00000  Uiso   1.00
C391   C     0.80158   0.08720   0.67212   0.00000  Uiso   1.00
H392   H     0.79507   0.08899   0.07863   0.00000  Uiso   1.00
H393   H     0.73219   0.10883   0.15932   0.00000  Uiso   1.00
H394   H     0.85495   0.10926   0.17747   0.00000  Uiso   1.00
H395   H     0.79778   0.04064   0.92014   0.00000  Uiso   1.00
H396   H     0.66296   0.14381   0.21567   0.00000  Uiso   1.00
H397   H     0.92182   0.14472   0.25391   0.00000  Uiso   1.00
H398   H     0.80127  -0.00000   0.71129   0.00000  Uiso   1.00
H399   H     0.79878   0.18891   0.82332   0.00000  Uiso   1.00
H400   H     0.73610   0.21425   0.89000   0.00000  Uiso   1.00
H401   H     0.85886   0.21468   0.90815   0.00000  Uiso   1.00
H402   H     0.80169   0.14605   0.65082   0.00000  Uiso   1.00
H403   H     0.66614   0.22937   0.99708   0.00000  Uiso   1.00
H404   H     0.92500   0.23027   0.03532   0.00000  Uiso   1.00
H405   H     0.80445   0.08556   0.49270   0.00000  Uiso   1.00
O406   O     0.62326   0.20146   0.15487   0.00000  Uiso   1.00
O407   O     0.96287   0.20264   0.20503   0.00000  Uiso   1.00
O408   O     0.80471   0.01278   0.49313   0.00000  Uiso   1.00
N409   N     0.67231   0.16047   0.15506   0.00000  Uiso   1.00
N410   N     0.91432   0.16132   0.19083   0.00000  Uiso   1.00
N411   N     0.80163   0.02602   0.68352   0.00000  Uiso   1.00
N412   N     0.67402   0.20651   0.03744   0.00000  Uiso   1.00
N413   N     0.91603   0.20735   0.07320   0.00000  Uiso   1.00
N414   N     0.80334   0.07206   0.56590   0.00000  Uiso   1.00
C415   C     0.29591   0.61188   0.52014   0.00000  Uiso   1.00
C416   C     0.26226   0.63652   0.52857   0.00000  Uiso   1.00
C417   C     0.23302   0.63159   0.60118   0.00000  Uiso   1.00
C418   C     0.20487   0.65715   0.59601   0.00000  Uiso   1.00
C419   C     0.15247   0.69094   0.62056   0.00000  Uiso   1.00
C420   C     0.32896   0.63675   0.53844   0.00000  Uiso   1.00
C421   C     0.35580   0.63202   0.61934   0.00000  Uiso   1.00
C422   C     0.38380   0.65778   0.62247   0.00000  Uiso   1.00
C423   C     0.43496   0.69192   0.66229   0.00000  Uiso   1.00
C424   C     0.29790   0.59947   0.39863   0.00000  Uiso   1.00
C425   C     0.29863   0.56339   0.36198   0.00000  Uiso   1.00
C426   C     0.30048   0.55774   0.24739   0.00000  Uiso   1.00
C427   C     0.30340   0.53400   0.07014   0.00000  Uiso   1.00
C428   C     0.29793   0.66602   0.38182   0.00000  Uiso   1.00
C429   C     0.26336   0.66592   0.45344   0.00000  Uiso   1.00
C430   C     0.23525   0.69149   0.44814   0.00000  Uiso   1.00
C431   C     0.20597   0.68660   0.52074   0.00000  Uiso   1.00
C432   C     0.33006   0.66616   0.46331   0.00000  Uiso   1.00
C433   C     0.35803   0.69192   0.46631   0.00000  Uiso   1.00
C434   C     0.38490   0.68724   0.54720   0.00000  Uiso   1.00
C435   C     0.29899   0.62887   0.32349   0.00000  Uiso   1.00
C436   C     0.30085   0.62329   0.20894   0.00000  Uiso   1.00
C437   C     0.30158   0.58720   0.17212   0.00000  Uiso   1.00
H438   H     0.29507   0.58899   0.57863   0.00000  Uiso   1.00
H439   H     0.23219   0.60883   0.65932   0.00000  Uiso   1.00
H440   H     0.35495   0.60926   0.67747   0.00000  Uiso   1.00
H441   H     0.29778   0.54064   0.42014   0.00000  Uiso   1.00
H442   H     0.16296   0.64381   0.71567   0.00000  Uiso   1.00
H443   H     0.42182   0.64472   0.75391   0.00000  Uiso   1.00
H444   H     0.30127   0.50000   0.21129   0.00000  Uiso   1.00
H445   H     0.29878   0.68891   0.32332   0.00000  Uiso   1.00
H446   H     0.23610   0.71425   0.39000   0.00000  Uiso   1.00
H447   H     0.35886   0.71468   0.40815   0.00000  Uiso   1.00
H448   H     0.30169   0.64605   0.15082   0.00000  Uiso   1.00
H449   H     0.16614   0.72937   0.49708   0.00000  Uiso   1.00
H450   H     0.42500   0.73027   0.53532   0.00000  Uiso   1.00
H451   H     0.30445   0.58556   0.99270   0.00000  Uiso   1.00
O452   O     0.12326   0.70146   0.65487   0.00000  Uiso   1.00
O453   O     0.46287   0.70264   0.70503   0.00000  Uiso   1.00
O454   O     0.30471   0.51278   0.99313   0.00000  Uiso   1.00
N455   N     0.17231   0.66047   0.65506   0.00000  Uiso   1.00
N456   N     0.41432   0.66132   0.69083   0.00000  Uiso   1.00
N457   N     0.30163   0.52602   0.18352   0.00000  Uiso   1.00
N458   N     0.17402   0.70651   0.53744   0.00000  Uiso   1.00
N459   N     0.41603   0.70735   0.57320   0.00000  Uiso   1.00
N460   N     0.30334   0.57206   0.06590   0.00000  Uiso   1.00
C461   C     0.70409   0.38812   0.52014   0.00000  Uiso   1.00
C462   C     0.73774   0.36348   0.52857   0.00000  Uiso   1.00
C463   C     0.76698   0.36841   0.60118   0.00000  Uiso   1.00
C464   C     0.79513   0.34285   0.59601   0.00000  Uiso   1.00
C465   C     0.84753   0.30906   0.62056   0.00000  Uiso   1.00
C466   C     0.67104   0.36325   0.53844   0.00000  Uiso   1.00
C467   C     0.64420   0.36798   0.61934   0.00000  Uiso   1.00
C468   C     0.61620   0.34222   0.62247   0.00000  Uiso   1.00
C469   C     0.56504   0.30808   0.66229   0.00000  Uiso   1.00
C470   C     0.70210   0.40053   0.39863   0.00000  Uiso   1.00
C471   C     0.70137   0.43661   0.36198   0.00000  Uiso   1.00
C472   C     0.69952   0.44226   0.24739   0.00000  Uiso   1.00
C473   C     0.69660   0.46600   0.07014   0.00000  Uiso   1.00
C474   C     0.70207   0.33398   0.38182   0.00000  Uiso   1.00
C475   C     0.73664   0.33408   0.45344   0.00000  Uiso   1.00
C476   C     0.76475   0.30851   0.44814   0.00000  Uiso   1.00
C477   C     0.79403   0.31340   0.52074   0.00000  Uiso   1.00
C478   C     0.66994   0.33384   0.46331   0.00000  Uiso   1.00
C479   C     0.64197   0.30808   0.46631   0.00000  Uiso   1.00
C480   C     0.61510   0.31276   0.54720   0.00000  Uiso   1.00
C481   C     0.70101   0.37113   0.32349   0.00000  Uiso   1.00
C482   C     0.69915   0.37671   0.20894   0.00000  Uiso   1.00
C483   C     0.69842   0.41280   0.17212   0.00000  Uiso   1.00
H484   H     0.70493   0.41101   0.57863   0.00000  Uiso   1.00
H485   H     0.76781   0.39117   0.65932   0.00000  Uiso   1.00
H486   H     0.64505   0.39074   0.67747   0.00000  Uiso   1.00
H487   H     0.70222   0.45936   0.42014   0.00000  Uiso   1.00
H488   H     0.83704   0.35619   0.71567   0.00000  Uiso   1.00
H489   H     0.57818   0.35528   0.75391   0.00000  Uiso   1.00
H490   H     0.69873   0.50000   0.21129   0.00000  Uiso   1.00
H491   H     0.70122   0.31109   0.32332   0.00000  Uiso   1.00
H492   H     0.76390   0.28575   0.39000   0.00000  Uiso   1.00
H493   H     0.64114   0.28532   0.40815   0.00000  Uiso   1.00
H494   H     0.69831   0.35395   0.15082   0.00000  Uiso   1.00
H495   H     0.83386   0.27063   0.49708   0.00000  Uiso   1.00
H496   H     0.57500   0.26973   0.53532   0.00000  Uiso   1.00
H497   H     0.69555   0.41444   0.99270   0.00000  Uiso   1.00
O498   O     0.87674   0.29854   0.65487   0.00000  Uiso   1.00
O499   O     0.53713   0.29736   0.70503   0.00000  Uiso   1.00
O500   O     0.69529   0.48722   0.99313   0.00000  Uiso   1.00
N501   N     0.82769   0.33953   0.65506   0.00000  Uiso   1.00
N502   N     0.58568   0.33868   0.69083   0.00000  Uiso   1.00
N503   N     0.69837   0.47398   0.18352   0.00000  Uiso   1.00
N504   N     0.82598   0.29349   0.53744   0.00000  Uiso   1.00
N505   N     0.58397   0.29265   0.57320   0.00000  Uiso   1.00
N506   N     0.69666   0.42794   0.06590   0.00000  Uiso   1.00
C507   C     0.20409   0.88812   0.02014   0.00000  Uiso   1.00
C508   C     0.23774   0.86348   0.02857   0.00000  Uiso   1.00
C509   C     0.26698   0.86841   0.10118   0.00000  Uiso   1.00
C510   C     0.29513   0.84285   0.09601   0.00000  Uiso   1.00
C511   C     0.34753   0.80906   0.12056   0.00000  Uiso   1.00
C512   C     0.17104   0.86325   0.03844   0.00000  Uiso   1.00
C513   C     0.14420   0.86798   0.11934   0.00000  Uiso   1.00
C514   C     0.11620   0.84222   0.12247   0.00000  Uiso   1.00
C515   C     0.06504   0.80808   0.16229   0.00000  Uiso   1.00
C516   C     0.20210   0.90053   0.89863   0.00000  Uiso   1.00
C517   C     0.20137   0.93661   0.86198   0.00000  Uiso   1.00
C518   C     0.19952   0.94226   0.74739   0.00000  Uiso   1.00
C519   C     0.19660   0.96600   0.57014   0.00000  Uiso   1.00
C520   C     0.20207   0.83398   0.88182   0.00000  Uiso   1.00
C521   C     0.23664   0.83408   0.95344   0.00000  Uiso   1.00
C522   C     0.26475   0.80851   0.94814   0.00000  Uiso   1.00
C523   C     0.29403   0.81340   0.02074   0.00000  Uiso   1.00
C524   C     0.16994   0.83384   0.96331   0.00000  Uiso   1.00
C525   C     0.14197   0.80808   0.96631   0.00000  Uiso   1.00
C526   C     0.11510   0.81276   0.04720   0.00000  Uiso   1.00
C527   C     0.20101   0.87113   0.82349   0.00000  Uiso   1.00
C528   C     0.19915   0.87671   0.70894   0.00000  Uiso   1.00
C529   C     0.19842   0.91280   0.67212   0.00000  Uiso   1.00
H530   H     0.20493   0.91101   0.07863   0.00000  Uiso   1.00
H531   H     0.26781   0.89117   0.15932   0.00000  Uiso   1.00
H532   H     0.14505   0.89074   0.17747   0.00000  Uiso   1.00
H533   H     0.20222   0.95936   0.92014   0.00000  Uiso   1.00
H534   H     0.33704   0.85619   0.21567   0.00000  Uiso   1.00
H535   H     0.07818   0.85528   0.25391   0.00000  Uiso   1.00
H536   H     0.19873   0.00000   0.71129   0.00000  Uiso   1.00
H537   H     0.20122   0.81109   0.82332   0.00000  Uiso   1.00
H538   H     0.26390   0.78575   0.89000   0.00000  Uiso   1.00
H539   H     0.14114   0.78532   0.90815   0.00000  Uiso   1.00
H540   H     0.19831   0.85395   0.65082   0.00000  Uiso   1.00
H541   H     0.33386   0.77063   0.99708   0.00000  Uiso   1.00
H542   H     0.07500   0.76973   0.03532   0.00000  Uiso   1.00
H543   H     0.19555   0.91444   0.49270   0.00000  Uiso   1.00
O544   O     0.37674   0.79854   0.15487   0.00000  Uiso   1.00
O545   O     0.03713   0.79736   0.20503   0.00000  Uiso   1.00
O546   O     0.19529   0.98722   0.49313   0.00000  Uiso   1.00
N547   N     0.32769   0.83953   0.15506   0.00000  Uiso   1.00
N548   N     0.08568   0.83868   0.19083   0.00000  Uiso   1.00
N549   N     0.19837   0.97398   0.68352   0.00000  Uiso   1.00
N550   N     0.32598   0.79349   0.03744   0.00000  Uiso   1.00
N551   N     0.08397   0.79265   0.07320   0.00000  Uiso   1.00
N552   N     0.19666   0.92794   0.56590   0.00000  Uiso   1.00
C553   C     0.38812   0.79591   0.77014   0.00000  Uiso   1.00
C554   C     0.36348   0.76226   0.77857   0.00000  Uiso   1.00
C555   C     0.36841   0.73302   0.85118   0.00000  Uiso   1.00
C556   C     0.34285   0.70487   0.84601   0.00000  Uiso   1.00
C557   C     0.30906   0.65247   0.87056   0.00000  Uiso   1.00
C558   C     0.36325   0.82896   0.78844   0.00000  Uiso   1.00
C559   C     0.36798   0.85580   0.86934   0.00000  Uiso   1.00
C560   C     0.34222   0.88380   0.87247   0.00000  Uiso   1.00
C561   C     0.30808   0.93496   0.91229   0.00000  Uiso   1.00
C562   C     0.40053   0.79790   0.64863   0.00000  Uiso   1.00
C563   C     0.43661   0.79863   0.61198   0.00000  Uiso   1.00
C564   C     0.44226   0.80048   0.49739   0.00000  Uiso   1.00
C565   C     0.46600   0.80340   0.32014   0.00000  Uiso   1.00
C566   C     0.33398   0.79793   0.63182   0.00000  Uiso   1.00
C567   C     0.33408   0.76336   0.70344   0.00000  Uiso   1.00
C568   C     0.30851   0.73525   0.69814   0.00000  Uiso   1.00
C569   C     0.31340   0.70597   0.77074   0.00000  Uiso   1.00
C570   C     0.33384   0.83006   0.71331   0.00000  Uiso   1.00
C571   C     0.30808   0.85803   0.71631   0.00000  Uiso   1.00
C572   C     0.31276   0.88490   0.79720   0.00000  Uiso   1.00
C573   C     0.37113   0.79899   0.57349   0.00000  Uiso   1.00
C574   C     0.37671   0.80085   0.45894   0.00000  Uiso   1.00
C575   C     0.41280   0.80158   0.42212   0.00000  Uiso   1.00
H576   H     0.41101   0.79507   0.82863   0.00000  Uiso   1.00
H577   H     0.39117   0.73219   0.90932   0.00000  Uiso   1.00
H578   H     0.39074   0.85495   0.92747   0.00000  Uiso   1.00
H579   H     0.45936   0.79778   0.67014   0.00000  Uiso   1.00
H580   H     0.35619   0.66296   0.96567   0.00000  Uiso   1.00
H581   H     0.35528   0.92182   0.00391   0.00000  Uiso   1.00
H582   H     0.50000   0.80127   0.46129   0.00000  Uiso   1.00
H583   H     0.31109   0.79878   0.57332   0.00000  Uiso   1.00
H584   H     0.28575   0.73610   0.64000   0.00000  Uiso   1.00
H585   H     0.28532   0.85886   0.65815   0.00000  Uiso   1.00
H586   H     0.35395   0.80169   0.40082   0.00000  Uiso   1.00
H587   H     0.27063   0.66614   0.74708   0.00000  Uiso   1.00
H588   H     0.26973   0.92500   0.78532   0.00000  Uiso   1.00
H589   H     0.41444   0.80445   0.24270   0.00000  Uiso   1.00
O590   O     0.29854   0.62326   0.90487   0.00000  Uiso   1.00
O591   O     0.29736   0.96287   0.95503   0.00000  Uiso   1.00
O592   O     0.48722   0.80471   0.24313   0.00000  Uiso   1.00
N593   N     0.33953   0.67231   0.90506   0.00000  Uiso   1.00
N594   N     0.33868   0.91432   0.94083   0.00000  Uiso   1.00
N595   N     0.47398   0.80163   0.43352   0.00000  Uiso   1.00
N596   N     0.29349   0.67402   0.78744   0.00000  Uiso   1.00
N597   N     0.29265   0.91603   0.82320   0.00000  Uiso   1.00
N598   N     0.42794   0.80334   0.31590   0.00000  Uiso   1.00
C599   C     0.88812   0.29591   0.27014   0.00000  Uiso   1.00
C600   C     0.86348   0.26226   0.27857   0.00000  Uiso   1.00
C601   C     0.86841   0.23302   0.35118   0.00000  Uiso   1.00
C602   C     0.84285   0.20487   0.34601   0.00000  Uiso   1.00
C603   C     0.80906   0.15247   0.37056   0.00000  Uiso   1.00
C604   C     0.86325   0.32896   0.28844   0.00000  Uiso   1.00
C605   C     0.86798   0.35580   0.36934   0.00000  Uiso   1.00
C606   C     0.84222   0.38380   0.37247   0.00000  Uiso   1.00
C607   C     0.80808   0.43496   0.41229   0.00000  Uiso   1.00
C608   C     0.90053   0.29790   0.14863   0.00000  Uiso   1.00
C609   C     0.93661   0.29863   0.11198   0.00000  Uiso   1.00
C610   C     0.94226   0.30048   0.99739   0.00000  Uiso   1.00
C611   C     0.96600   0.30340   0.82014   0.00000  Uiso   1.00
C612   C     0.83398   0.29793   0.13182   0.00000  Uiso   1.00
C613   C     0.83408   0.26336   0.20344   0.00000  Uiso   1.00
C614   C     0.80851   0.23525   0.19814   0.00000  Uiso   1.00
C615   C     0.81340   0.20597   0.27074   0.00000  Uiso   1.00
C616   C     0.83384   0.33006   0.21331   0.00000  Uiso   1.00
C617   C     0.80808   0.35803   0.21631   0.00000  Uiso   1.00
C618   C     0.81276   0.38490   0.29720   0.00000  Uiso   1.00
C619   C     0.87113   0.29899   0.07349   0.00000  Uiso   1.00
C620   C     0.87671   0.30085   0.95894   0.00000  Uiso   1.00
C621   C     0.91280   0.30158   0.92212   0.00000  Uiso   1.00
H622   H     0.91101   0.29507   0.32863   0.00000  Uiso   1.00
H623   H     0.89117   0.23219   0.40932   0.00000  Uiso   1.00
H624   H     0.89074   0.35495   0.42747   0.00000  Uiso   1.00
H625   H     0.95936   0.29778   0.17014   0.00000  Uiso   1.00
H626   H     0.85619   0.16296   0.46567   0.00000  Uiso   1.00
H627   H     0.85528   0.42182   0.50391   0.00000  Uiso   1.00
H628   H     0.00000   0.30127   0.96129   0.00000  Uiso   1.00
H629   H     0.81109   0.29878   0.07332   0.00000  Uiso   1.00
H630   H     0.78575   0.23610   0.14000   0.00000  Uiso   1.00
H631   H     0.78532   0.35886   0.15815   0.00000  Uiso   1.00
H632   H     0.85395   0.30169   0.90082   0.00000  Uiso   1.00
H633   H     0.77063   0.16614   0.24708   0.00000  Uiso   1.00
H634   H     0.76973   0.42500   0.28532   0.00000  Uiso   1.00
H635   H     0.91444   0.30445   0.74270   0.00000  Uiso   1.00
O636   O     0.79854   0.12326   0.40487   0.00000  Uiso   1.00
O637   O     0.79736   0.46287   0.45503   0.00000  Uiso   1.00
O638   O     0.98722   0.30471   0.74313   0.00000  Uiso   1.00
N639   N     0.83953   0.17231   0.40506   0.00000  Uiso   1.00
N640   N     0.83868   0.41432   0.44083   0.00000  Uiso   1.00
N641   N     0.97398   0.30163   0.93352   0.00000  Uiso   1.00
N642   N     0.79349   0.17402   0.28744   0.00000  Uiso   1.00
N643   N     0.79265   0.41603   0.32320   0.00000  Uiso   1.00
N644   N     0.92794   0.30334   0.81590   0.00000  Uiso   1.00
C645   C     0.11188   0.70409   0.27014   0.00000  Uiso   1.00
C646   C     0.13652   0.73774   0.27857   0.00000  Uiso   1.00
C647   C     0.13159   0.76698   0.35118   0.00000  Uiso   1.00
C648   C     0.15715   0.79513   0.34601   0.00000  Uiso   1.00
C649   C     0.19094   0.84753   0.37056   0.00000  Uiso   1.00
C650   C     0.13675   0.67104   0.28844   0.00000  Uiso   1.00
C651   C     0.13202   0.64420   0.36934   0.00000  Uiso   1.00
C652   C     0.15778   0.61620   0.37247   0.00000  Uiso   1.00
C653   C     0.19192   0.56504   0.41229   0.00000  Uiso   1.00
C654   C     0.09947   0.70210   0.14863   0.00000  Uiso   1.00
C655   C     0.06339   0.70137   0.11198   0.00000  Uiso   1.00
C656   C     0.05774   0.69952   0.99739   0.00000  Uiso   1.00
C657   C     0.03400   0.69660   0.82014   0.00000  Uiso   1.00
C658   C     0.16602   0.70207   0.13182   0.00000  Uiso   1.00
C659   C     0.16592   0.73664   0.20344   0.00000  Uiso   1.00
C660   C     0.19149   0.76475   0.19814   0.00000  Uiso   1.00
C661   C     0.18660   0.79403   0.27074   0.00000  Uiso   1.00
C662   C     0.16616   0.66994   0.21331   0.00000  Uiso   1.00
C663   C     0.19192   0.64197   0.21631   0.00000  Uiso   1.00
C664   C     0.18724   0.61510   0.29720   0.00000  Uiso   1.00
C665   C     0.12887   0.70101   0.07349   0.00000  Uiso   1.00
C666   C     0.12329   0.69915   0.95894   0.00000  Uiso   1.00
C667   C     0.08720   0.69842   0.92212   0.00000  Uiso   1.00
H668   H     0.08899   0.70493   0.32863   0.00000  Uiso   1.00
H669   H     0.10883   0.76781   0.40932   0.00000  Uiso   1.00
H670   H     0.10926   0.64505   0.42747   0.00000  Uiso   1.00
H671   H     0.04064   0.70222   0.17014   0.00000  Uiso   1.00
H672   H     0.14381   0.83704   0.46567   0.00000  Uiso   1.00
H673   H     0.14472   0.57818   0.50391   0.00000  Uiso   1.00
H674   H    -0.00000   0.69873   0.96129   0.00000  Uiso   1.00
H675   H     0.18891   0.70122   0.07332   0.00000  Uiso   1.00
H676   H     0.21425   0.76390   0.14000   0.00000  Uiso   1.00
H677   H     0.21468   0.64114   0.15815   0.00000  Uiso   1.00
H678   H     0.14605   0.69831   0.90082   0.00000  Uiso   1.00
H679   H     0.22937   0.83386   0.24708   0.00000  Uiso   1.00
H680   H     0.23027   0.57500   0.28532   0.00000  Uiso   1.00
H681   H     0.08556   0.69555   0.74270   0.00000  Uiso   1.00
O682   O     0.20146   0.87674   0.40487   0.00000  Uiso   1.00
O683   O     0.20264   0.53713   0.45503   0.00000  Uiso   1.00
O684   O     0.01278   0.69529   0.74313   0.00000  Uiso   1.00
N685   N     0.16047   0.82769   0.40506   0.00000  Uiso   1.00
N686   N     0.16132   0.58568   0.44083   0.00000  Uiso   1.00
N687   N     0.02602   0.69837   0.93352   0.00000  Uiso   1.00
N688   N     0.20651   0.82598   0.28744   0.00000  Uiso   1.00
N689   N     0.20735   0.58397   0.32320   0.00000  Uiso   1.00
N690   N     0.07206   0.69666   0.81590   0.00000  Uiso   1.00
C691   C     0.61188   0.20409   0.77014   0.00000  Uiso   1.00
C692   C     0.63652   0.23774   0.77857   0.00000  Uiso   1.00
C693   C     0.63159   0.26698   0.85118   0.00000  Uiso   1.00
C694   C     0.65715   0.29513   0.84601   0.00000  Uiso   1.00
C695   C     0.69094   0.34753   0.87056   0.00000  Uiso   1.00
C696   C     0.63675   0.17104   0.78844   0.00000  Uiso   1.00
C697   C     0.63202   0.14420   0.86934   0.00000  Uiso   1.00
C698   C     0.65778   0.11620   0.87247   0.00000  Uiso   1.00
C699   C     0.69192   0.06504   0.91229   0.00000  Uiso   1.00
C700   C     0.59947   0.20210   0.64863   0.00000  Uiso   1.00
C701   C     0.56339   0.20137   0.61198   0.00000  Uiso   1.00
C702   C     0.55774   0.19952   0.49739   0.00000  Uiso   1.00
C703   C     0.53400   0.19660   0.32014   0.00000  Uiso   1.00
C704   C     0.66602   0.20207   0.63182   0.00000  Uiso   1.00
C705   C     0.66592   0.23664   0.70344   0.00000  Uiso   1.00
C706   C     0.69149   0.26475   0.69814   0.00000  Uiso   1.00
C707   C     0.68660   0.29403   0.77074   0.00000  Uiso   1.00
C708   C     0.66616   0.16994   0.71331   0.00000  Uiso   1.00
C709   C     0.69192   0.14197   0.71631   0.00000  Uiso   1.00
C710   C     0.68724   0.11510   0.79720   0.00000  Uiso   1.00
C711   C     0.62887   0.20101   0.57349   0.00000  Uiso   1.00
C712   C     0.62329   0.19915   0.45894   0.00000  Uiso   1.00
C713   C     0.58720   0.19842   0.42212   0.00000  Uiso   1.00
H714   H     0.58899   0.20493   0.82863   0.00000  Uiso   1.00
H715   H     0.60883   0.26781   0.90932   0.00000  Uiso   1.00
H716   H     0.60926   0.14505   0.92747   0.00000  Uiso   1.00
H717   H     0.54064   0.20222   0.67014   0.00000  Uiso   1.00
H718   H     0.64381   0.33704   0.96567   0.00000  Uiso   1.00
H719   H     0.64472   0.07818   0.00391   0.00000  Uiso   1.00
H720   H     0.50000   0.19873   0.46129   0.00000  Uiso   1.00
H721   H     0.68891   0.20122   0.57332   0.00000  Uiso   1.00
H722   H     0.71425   0.26390   0.64000   0.00000  Uiso   1.00
H723   H     0.71468   0.14114   0.65815   0.00000  Uiso   1.00
H724   H     0.64605   0.19831   0.40082   0.00000  Uiso   1.00
H725   H     0.72937   0.33386   0.74708   0.00000  Uiso   1.00
H726   H     0.73027   0.07500   0.78532   0.00000  Uiso   1.00
H727   H     0.58556   0.19555   0.24270   0.00000  Uiso   1.00
O728   O     0.70146   0.37674   0.90487   0.00000  Uiso   1.00
O729   O     0.70264   0.03713   0.95503   0.00000  Uiso   1.00
O730   O     0.51278   0.19529   0.24313   0.00000  Uiso   1.00
N731   N     0.66047   0.32769   0.90506   0.00000  Uiso   1.00
N732   N     0.66132   0.08568   0.94083   0.00000  Uiso   1.00
N733   N     0.52602   0.19837   0.43352   0.00000  Uiso   1.00
N734   N     0.70651   0.32598   0.78744   0.00000  Uiso   1.00
N735   N     0.70735   0.08397   0.82320   0.00000  Uiso   1.00
N736   N     0.57206   0.19666   0.31590   0.00000  Uiso   1.00
