data_job_01376
_audit_creation_date              2018-12-19
_audit_creation_method            'Materials Studio'
_symmetry_space_group_name_H-M    'P1'
_symmetry_Int_Tables_number       1
_symmetry_cell_setting            triclinic
loop_
_symmetry_equiv_pos_as_xyz
  x,y,z
_cell_length_a                    44.3135
_cell_length_b                    23.1317
_cell_length_c                    42.2056
_cell_angle_alpha                 90.0000
_cell_angle_beta                  162.3568
_cell_angle_gamma                 90.0000
loop_
_atom_site_label
_atom_site_type_symbol
_atom_site_fract_x
_atom_site_fract_y
_atom_site_fract_z
_atom_site_U_iso_or_equiv
_atom_site_adp_type
_atom_site_occupancy
C1     C     0.15182   0.17097   0.55143   0.00000  Uiso   1.00
C2     C     0.05611   0.13888   0.46393   0.00000  Uiso   1.00
C3     C     0.04728   0.07968   0.45964   0.00000  Uiso   1.00
C4     C     0.95327   0.05869   0.37299   0.00000  Uiso   1.00
C5     C     0.81715   0.00323   0.24919   0.00000  Uiso   1.00
C6     C     0.13013   0.20403   0.49924   0.00000  Uiso   1.00
C7     C     0.18356   0.19961   0.52465   0.00000  Uiso   1.00
C8     C     0.15186   0.23348   0.46772   0.00000  Uiso   1.00
C9     C     0.13071   0.27920   0.39879   0.00000  Uiso   1.00
C10    C     0.16555   0.21662   0.59086   0.00000  Uiso   1.00
C11    C     0.24876   0.22280   0.69332   0.00000  Uiso   1.00
C12    C     0.24690   0.26728   0.71354   0.00000  Uiso   1.00
C13    C     0.28073   0.33255   0.78687   0.00000  Uiso   1.00
C14    C     0.00055   0.23897   0.40515   0.00000  Uiso   1.00
C15    C     0.97395   0.17581   0.38448   0.00000  Uiso   1.00
C16    C     0.87992   0.15491   0.29781   0.00000  Uiso   1.00
C17    C     0.87096   0.09569   0.29339   0.00000  Uiso   1.00
C18    C     0.04797   0.24096   0.41979   0.00000  Uiso   1.00
C19    C     0.01620   0.27485   0.36282   0.00000  Uiso   1.00
C20    C     0.06955   0.27048   0.38813   0.00000  Uiso   1.00
C21    C     0.08338   0.25355   0.51141   0.00000  Uiso   1.00
C22    C     0.08140   0.29803   0.53148   0.00000  Uiso   1.00
C23    C     0.16459   0.30428   0.63395   0.00000  Uiso   1.00
H24    H     0.21578   0.14222   0.61328   0.00000  Uiso   1.00
H25    H     0.11088   0.05111   0.52114   0.00000  Uiso   1.00
H26    H     0.24714   0.17103   0.58614   0.00000  Uiso   1.00
H27    H     0.31233   0.19421   0.75478   0.00000  Uiso   1.00
H28    H     0.95834   0.96638   0.38393   0.00000  Uiso   1.00
H29    H     0.24567   0.21926   0.52102   0.00000  Uiso   1.00
H30    H     0.38313   0.26814   0.87663   0.00000  Uiso   1.00
H31    H     0.93658   0.26773   0.34329   0.00000  Uiso   1.00
H32    H     0.81636   0.18350   0.23634   0.00000  Uiso   1.00
H33    H     0.95262   0.30342   0.30134   0.00000  Uiso   1.00
H34    H     0.01780   0.32661   0.46998   0.00000  Uiso   1.00
H35    H     0.71929   0.07383   0.15277   0.00000  Uiso   1.00
H36    H     0.00662   0.32671   0.28986   0.00000  Uiso   1.00
H37    H     0.14408   0.37560   0.64547   0.00000  Uiso   1.00
O38    O     0.76476   0.96243   0.20284   0.00000  Uiso   1.00
O39    O     0.14174   0.29420   0.38272   0.00000  Uiso   1.00
O40    O     0.32208   0.35834   0.84926   0.00000  Uiso   1.00
N41    N     0.91859   0.00323   0.34421   0.00000  Uiso   1.00
N42    N     0.18721   0.23965   0.47237   0.00000  Uiso   1.00
N43    N     0.31574   0.28536   0.80485   0.00000  Uiso   1.00
N44    N     0.78995   0.06105   0.21983   0.00000  Uiso   1.00
N45    N     0.05858   0.29747   0.34799   0.00000  Uiso   1.00
N46    N     0.18711   0.34318   0.68046   0.00000  Uiso   1.00
C47    C     0.20046   0.30175   0.79078   0.00000  Uiso   1.00
C48    C     0.13314   0.35073   0.71220   0.00000  Uiso   1.00
C49    C     0.16446   0.40538   0.73432   0.00000  Uiso   1.00
C50    C     0.09130   0.44409   0.65164   0.00000  Uiso   1.00
C51    C     0.00209   0.52250   0.54502   0.00000  Uiso   1.00
C52    C     0.16220   0.28442   0.78516   0.00000  Uiso   1.00
C53    C     0.21796   0.28330   0.86863   0.00000  Uiso   1.00
C54    C     0.16926   0.26619   0.84736   0.00000  Uiso   1.00
C55    C     0.12519   0.24160   0.85403   0.00000  Uiso   1.00
C56    C     0.17884   0.25063   0.74740   0.00000  Uiso   1.00
C57    C     0.24860   0.22110   0.79912   0.00000  Uiso   1.00
C58    C     0.21391   0.17553   0.74607   0.00000  Uiso   1.00
C59    C     0.19569   0.09849   0.69411   0.00000  Uiso   1.00
C60    C     0.01484   0.27334   0.60461   0.00000  Uiso   1.00
C61    C     0.03232   0.33530   0.61108   0.00000  Uiso   1.00
C62    C     0.95909   0.37394   0.52834   0.00000  Uiso   1.00
C63    C     0.99029   0.42863   0.55034   0.00000  Uiso   1.00
C64    C     0.06138   0.26899   0.68405   0.00000  Uiso   1.00
C65    C     0.01259   0.25186   0.66265   0.00000  Uiso   1.00
C66    C     0.06826   0.25072   0.74606   0.00000  Uiso   1.00
C67    C     0.07802   0.23520   0.64628   0.00000  Uiso   1.00
C68    C     0.04323   0.18966   0.59314   0.00000  Uiso   1.00
C69    C     0.11291   0.16006   0.64477   0.00000  Uiso   1.00
H70    H     0.27896   0.31377   0.86951   0.00000  Uiso   1.00
H71    H     0.24249   0.41731   0.81259   0.00000  Uiso   1.00
H72    H     0.29598   0.29524   0.94687   0.00000  Uiso   1.00
H73    H     0.32661   0.23305   0.87737   0.00000  Uiso   1.00
H74    H     0.15759   0.52530   0.70490   0.00000  Uiso   1.00
H75    H     0.27039   0.26790   0.98805   0.00000  Uiso   1.00
H76    H     0.33498   0.13676   0.84150   0.00000  Uiso   1.00
H77    H     0.93635   0.26132   0.52588   0.00000  Uiso   1.00
H78    H     0.88107   0.36198   0.45010   0.00000  Uiso   1.00
H79    H     0.93457   0.23992   0.58439   0.00000  Uiso   1.00
H80    H     0.96520   0.17773   0.51489   0.00000  Uiso   1.00
H81    H     0.86425   0.48040   0.41069   0.00000  Uiso   1.00
H82    H     0.97706   0.22300   0.69385   0.00000  Uiso   1.00
H83    H     0.04165   0.09186   0.54729   0.00000  Uiso   1.00
O84    O     0.98074   0.57002   0.51415   0.00000  Uiso   1.00
O85    O     0.12874   0.23232   0.88564   0.00000  Uiso   1.00
O86    O     0.21348   0.06026   0.69337   0.00000  Uiso   1.00
N87    N     0.09614   0.50091   0.64605   0.00000  Uiso   1.00
N88    N     0.20160   0.26027   0.91078   0.00000  Uiso   1.00
N89    N     0.26199   0.13765   0.77378   0.00000  Uiso   1.00
N90    N     0.93830   0.47675   0.48774   0.00000  Uiso   1.00
N91    N     0.04376   0.23611   0.75247   0.00000  Uiso   1.00
N92    N     0.10415   0.11349   0.61547   0.00000  Uiso   1.00
C93    C     0.65182   0.67097   0.55143   0.00000  Uiso   1.00
C94    C     0.55611   0.63888   0.46393   0.00000  Uiso   1.00
C95    C     0.54728   0.57968   0.45964   0.00000  Uiso   1.00
C96    C     0.45327   0.55869   0.37299   0.00000  Uiso   1.00
C97    C     0.31715   0.50323   0.24919   0.00000  Uiso   1.00
C98    C     0.63013   0.70403   0.49924   0.00000  Uiso   1.00
C99    C     0.68356   0.69961   0.52465   0.00000  Uiso   1.00
C100   C     0.65186   0.73348   0.46772   0.00000  Uiso   1.00
C101   C     0.63071   0.77920   0.39879   0.00000  Uiso   1.00
C102   C     0.66555   0.71662   0.59086   0.00000  Uiso   1.00
C103   C     0.74876   0.72280   0.69332   0.00000  Uiso   1.00
C104   C     0.74690   0.76728   0.71354   0.00000  Uiso   1.00
C105   C     0.78073   0.83255   0.78687   0.00000  Uiso   1.00
C106   C     0.50055   0.73897   0.40515   0.00000  Uiso   1.00
C107   C     0.47395   0.67581   0.38448   0.00000  Uiso   1.00
C108   C     0.37992   0.65491   0.29781   0.00000  Uiso   1.00
C109   C     0.37096   0.59569   0.29339   0.00000  Uiso   1.00
C110   C     0.54797   0.74096   0.41979   0.00000  Uiso   1.00
C111   C     0.51620   0.77485   0.36282   0.00000  Uiso   1.00
C112   C     0.56955   0.77048   0.38813   0.00000  Uiso   1.00
C113   C     0.58338   0.75355   0.51141   0.00000  Uiso   1.00
C114   C     0.58140   0.79803   0.53148   0.00000  Uiso   1.00
C115   C     0.66459   0.80428   0.63395   0.00000  Uiso   1.00
H116   H     0.71578   0.64222   0.61328   0.00000  Uiso   1.00
H117   H     0.61088   0.55111   0.52114   0.00000  Uiso   1.00
H118   H     0.74714   0.67103   0.58614   0.00000  Uiso   1.00
H119   H     0.81233   0.69421   0.75478   0.00000  Uiso   1.00
H120   H     0.45834   0.46638   0.38393   0.00000  Uiso   1.00
H121   H     0.74567   0.71926   0.52102   0.00000  Uiso   1.00
H122   H     0.88313   0.76814   0.87663   0.00000  Uiso   1.00
H123   H     0.43658   0.76773   0.34329   0.00000  Uiso   1.00
H124   H     0.31636   0.68350   0.23634   0.00000  Uiso   1.00
H125   H     0.45262   0.80342   0.30134   0.00000  Uiso   1.00
H126   H     0.51780   0.82661   0.46998   0.00000  Uiso   1.00
H127   H     0.21929   0.57383   0.15277   0.00000  Uiso   1.00
H128   H     0.50662   0.82671   0.28986   0.00000  Uiso   1.00
H129   H     0.64408   0.87560   0.64547   0.00000  Uiso   1.00
O130   O     0.26476   0.46243   0.20284   0.00000  Uiso   1.00
O131   O     0.64174   0.79420   0.38272   0.00000  Uiso   1.00
O132   O     0.82208   0.85834   0.84926   0.00000  Uiso   1.00
N133   N     0.41859   0.50323   0.34421   0.00000  Uiso   1.00
N134   N     0.68721   0.73965   0.47237   0.00000  Uiso   1.00
N135   N     0.81574   0.78536   0.80485   0.00000  Uiso   1.00
N136   N     0.28995   0.56105   0.21983   0.00000  Uiso   1.00
N137   N     0.55858   0.79747   0.34799   0.00000  Uiso   1.00
N138   N     0.68711   0.84318   0.68046   0.00000  Uiso   1.00
C139   C     0.70046   0.80175   0.79078   0.00000  Uiso   1.00
C140   C     0.63314   0.85073   0.71220   0.00000  Uiso   1.00
C141   C     0.66446   0.90538   0.73432   0.00000  Uiso   1.00
C142   C     0.59130   0.94409   0.65164   0.00000  Uiso   1.00
C143   C     0.50209   0.02250   0.54502   0.00000  Uiso   1.00
C144   C     0.66220   0.78442   0.78516   0.00000  Uiso   1.00
C145   C     0.71796   0.78330   0.86863   0.00000  Uiso   1.00
C146   C     0.66926   0.76619   0.84736   0.00000  Uiso   1.00
C147   C     0.62519   0.74160   0.85403   0.00000  Uiso   1.00
C148   C     0.67884   0.75063   0.74740   0.00000  Uiso   1.00
C149   C     0.74860   0.72110   0.79912   0.00000  Uiso   1.00
C150   C     0.71391   0.67553   0.74607   0.00000  Uiso   1.00
C151   C     0.69569   0.59849   0.69411   0.00000  Uiso   1.00
C152   C     0.51484   0.77334   0.60461   0.00000  Uiso   1.00
C153   C     0.53232   0.83530   0.61108   0.00000  Uiso   1.00
C154   C     0.45909   0.87394   0.52834   0.00000  Uiso   1.00
C155   C     0.49029   0.92863   0.55034   0.00000  Uiso   1.00
C156   C     0.56138   0.76899   0.68405   0.00000  Uiso   1.00
C157   C     0.51259   0.75186   0.66265   0.00000  Uiso   1.00
C158   C     0.56826   0.75072   0.74606   0.00000  Uiso   1.00
C159   C     0.57802   0.73520   0.64628   0.00000  Uiso   1.00
C160   C     0.54323   0.68966   0.59314   0.00000  Uiso   1.00
C161   C     0.61291   0.66006   0.64477   0.00000  Uiso   1.00
H162   H     0.77896   0.81377   0.86951   0.00000  Uiso   1.00
H163   H     0.74249   0.91731   0.81259   0.00000  Uiso   1.00
H164   H     0.79598   0.79524   0.94687   0.00000  Uiso   1.00
H165   H     0.82661   0.73305   0.87737   0.00000  Uiso   1.00
H166   H     0.65759   0.02530   0.70490   0.00000  Uiso   1.00
H167   H     0.77039   0.76790   0.98805   0.00000  Uiso   1.00
H168   H     0.83498   0.63676   0.84150   0.00000  Uiso   1.00
H169   H     0.43635   0.76132   0.52588   0.00000  Uiso   1.00
H170   H     0.38107   0.86198   0.45010   0.00000  Uiso   1.00
H171   H     0.43457   0.73992   0.58439   0.00000  Uiso   1.00
H172   H     0.46520   0.67773   0.51489   0.00000  Uiso   1.00
H173   H     0.36425   0.98040   0.41069   0.00000  Uiso   1.00
H174   H     0.47706   0.72300   0.69385   0.00000  Uiso   1.00
H175   H     0.54165   0.59186   0.54729   0.00000  Uiso   1.00
O176   O     0.48074   0.07002   0.51415   0.00000  Uiso   1.00
O177   O     0.62874   0.73232   0.88564   0.00000  Uiso   1.00
O178   O     0.71348   0.56026   0.69337   0.00000  Uiso   1.00
N179   N     0.59614   0.00091   0.64605   0.00000  Uiso   1.00
N180   N     0.70160   0.76027   0.91078   0.00000  Uiso   1.00
N181   N     0.76199   0.63765   0.77378   0.00000  Uiso   1.00
N182   N     0.43830   0.97675   0.48774   0.00000  Uiso   1.00
N183   N     0.54376   0.73611   0.75247   0.00000  Uiso   1.00
N184   N     0.60415   0.61349   0.61547   0.00000  Uiso   1.00
C185   C     0.84818   0.17097   0.94857   0.00000  Uiso   1.00
C186   C     0.94389   0.13888   0.03607   0.00000  Uiso   1.00
C187   C     0.95272   0.07968   0.04036   0.00000  Uiso   1.00
C188   C     0.04673   0.05869   0.12701   0.00000  Uiso   1.00
C189   C     0.18285   0.00323   0.25081   0.00000  Uiso   1.00
C190   C     0.86987   0.20403   0.00076   0.00000  Uiso   1.00
C191   C     0.81644   0.19961   0.97535   0.00000  Uiso   1.00
C192   C     0.84814   0.23348   0.03228   0.00000  Uiso   1.00
C193   C     0.86929   0.27920   0.10121   0.00000  Uiso   1.00
C194   C     0.83445   0.21662   0.90914   0.00000  Uiso   1.00
C195   C     0.75124   0.22280   0.80668   0.00000  Uiso   1.00
C196   C     0.75310   0.26728   0.78646   0.00000  Uiso   1.00
C197   C     0.71927   0.33255   0.71313   0.00000  Uiso   1.00
C198   C     0.99945   0.23897   0.09485   0.00000  Uiso   1.00
C199   C     0.02605   0.17581   0.11552   0.00000  Uiso   1.00
C200   C     0.12008   0.15491   0.20219   0.00000  Uiso   1.00
C201   C     0.12904   0.09569   0.20661   0.00000  Uiso   1.00
C202   C     0.95203   0.24096   0.08021   0.00000  Uiso   1.00
C203   C     0.98380   0.27485   0.13718   0.00000  Uiso   1.00
C204   C     0.93045   0.27048   0.11187   0.00000  Uiso   1.00
C205   C     0.91662   0.25355   0.98859   0.00000  Uiso   1.00
C206   C     0.91860   0.29803   0.96852   0.00000  Uiso   1.00
C207   C     0.83541   0.30428   0.86605   0.00000  Uiso   1.00
H208   H     0.78422   0.14222   0.88672   0.00000  Uiso   1.00
H209   H     0.88912   0.05111   0.97886   0.00000  Uiso   1.00
H210   H     0.75286   0.17103   0.91386   0.00000  Uiso   1.00
H211   H     0.68767   0.19421   0.74522   0.00000  Uiso   1.00
H212   H     0.04166   0.96638   0.11607   0.00000  Uiso   1.00
H213   H     0.75433   0.21926   0.97898   0.00000  Uiso   1.00
H214   H     0.61687   0.26814   0.62337   0.00000  Uiso   1.00
H215   H     0.06342   0.26773   0.15671   0.00000  Uiso   1.00
H216   H     0.18364   0.18350   0.26366   0.00000  Uiso   1.00
H217   H     0.04738   0.30342   0.19866   0.00000  Uiso   1.00
H218   H     0.98220   0.32661   0.03002   0.00000  Uiso   1.00
H219   H     0.28071   0.07383   0.34723   0.00000  Uiso   1.00
H220   H     0.99338   0.32671   0.21014   0.00000  Uiso   1.00
H221   H     0.85592   0.37560   0.85453   0.00000  Uiso   1.00
O222   O     0.23524   0.96243   0.29716   0.00000  Uiso   1.00
O223   O     0.85826   0.29420   0.11728   0.00000  Uiso   1.00
O224   O     0.67792   0.35834   0.65074   0.00000  Uiso   1.00
N225   N     0.08141   0.00323   0.15579   0.00000  Uiso   1.00
N226   N     0.81279   0.23965   0.02763   0.00000  Uiso   1.00
N227   N     0.68426   0.28536   0.69515   0.00000  Uiso   1.00
N228   N     0.21005   0.06105   0.28017   0.00000  Uiso   1.00
N229   N     0.94142   0.29747   0.15201   0.00000  Uiso   1.00
N230   N     0.81289   0.34318   0.81954   0.00000  Uiso   1.00
C231   C     0.79954   0.30175   0.70922   0.00000  Uiso   1.00
C232   C     0.86686   0.35073   0.78780   0.00000  Uiso   1.00
C233   C     0.83554   0.40538   0.76568   0.00000  Uiso   1.00
C234   C     0.90870   0.44409   0.84836   0.00000  Uiso   1.00
C235   C     0.99791   0.52250   0.95498   0.00000  Uiso   1.00
C236   C     0.83780   0.28442   0.71484   0.00000  Uiso   1.00
C237   C     0.78204   0.28330   0.63137   0.00000  Uiso   1.00
C238   C     0.83074   0.26619   0.65264   0.00000  Uiso   1.00
C239   C     0.87481   0.24160   0.64597   0.00000  Uiso   1.00
C240   C     0.82116   0.25063   0.75260   0.00000  Uiso   1.00
C241   C     0.75140   0.22110   0.70088   0.00000  Uiso   1.00
C242   C     0.78609   0.17553   0.75393   0.00000  Uiso   1.00
C243   C     0.80431   0.09849   0.80589   0.00000  Uiso   1.00
C244   C     0.98516   0.27334   0.89539   0.00000  Uiso   1.00
C245   C     0.96768   0.33530   0.88892   0.00000  Uiso   1.00
C246   C     0.04091   0.37394   0.97166   0.00000  Uiso   1.00
C247   C     0.00971   0.42863   0.94966   0.00000  Uiso   1.00
C248   C     0.93862   0.26899   0.81595   0.00000  Uiso   1.00
C249   C     0.98741   0.25186   0.83735   0.00000  Uiso   1.00
C250   C     0.93174   0.25072   0.75394   0.00000  Uiso   1.00
C251   C     0.92198   0.23520   0.85372   0.00000  Uiso   1.00
C252   C     0.95677   0.18966   0.90686   0.00000  Uiso   1.00
C253   C     0.88709   0.16006   0.85523   0.00000  Uiso   1.00
H254   H     0.72104   0.31377   0.63049   0.00000  Uiso   1.00
H255   H     0.75751   0.41731   0.68741   0.00000  Uiso   1.00
H256   H     0.70402   0.29524   0.55313   0.00000  Uiso   1.00
H257   H     0.67339   0.23305   0.62263   0.00000  Uiso   1.00
H258   H     0.84241   0.52530   0.79510   0.00000  Uiso   1.00
H259   H     0.72961   0.26790   0.51195   0.00000  Uiso   1.00
H260   H     0.66502   0.13676   0.65850   0.00000  Uiso   1.00
H261   H     0.06365   0.26132   0.97412   0.00000  Uiso   1.00
H262   H     0.11893   0.36198   0.04990   0.00000  Uiso   1.00
H263   H     0.06543   0.23992   0.91561   0.00000  Uiso   1.00
H264   H     0.03480   0.17773   0.98511   0.00000  Uiso   1.00
H265   H     0.13575   0.48040   0.08931   0.00000  Uiso   1.00
H266   H     0.02294   0.22300   0.80615   0.00000  Uiso   1.00
H267   H     0.95835   0.09186   0.95271   0.00000  Uiso   1.00
O268   O     0.01926   0.57002   0.98585   0.00000  Uiso   1.00
O269   O     0.87126   0.23232   0.61436   0.00000  Uiso   1.00
O270   O     0.78652   0.06026   0.80663   0.00000  Uiso   1.00
N271   N     0.90386   0.50091   0.85395   0.00000  Uiso   1.00
N272   N     0.79840   0.26027   0.58922   0.00000  Uiso   1.00
N273   N     0.73801   0.13765   0.72622   0.00000  Uiso   1.00
N274   N     0.06170   0.47675   0.01226   0.00000  Uiso   1.00
N275   N     0.95624   0.23611   0.74753   0.00000  Uiso   1.00
N276   N     0.89585   0.11349   0.88453   0.00000  Uiso   1.00
C277   C     0.34818   0.67097   0.94857   0.00000  Uiso   1.00
C278   C     0.44389   0.63888   0.03607   0.00000  Uiso   1.00
C279   C     0.45272   0.57968   0.04036   0.00000  Uiso   1.00
C280   C     0.54673   0.55869   0.12701   0.00000  Uiso   1.00
C281   C     0.68285   0.50323   0.25081   0.00000  Uiso   1.00
C282   C     0.36987   0.70403   0.00076   0.00000  Uiso   1.00
C283   C     0.31644   0.69961   0.97535   0.00000  Uiso   1.00
C284   C     0.34814   0.73348   0.03228   0.00000  Uiso   1.00
C285   C     0.36929   0.77920   0.10121   0.00000  Uiso   1.00
C286   C     0.33445   0.71662   0.90914   0.00000  Uiso   1.00
C287   C     0.25124   0.72280   0.80668   0.00000  Uiso   1.00
C288   C     0.25310   0.76728   0.78646   0.00000  Uiso   1.00
C289   C     0.21927   0.83255   0.71313   0.00000  Uiso   1.00
C290   C     0.49945   0.73897   0.09485   0.00000  Uiso   1.00
C291   C     0.52605   0.67581   0.11552   0.00000  Uiso   1.00
C292   C     0.62008   0.65491   0.20219   0.00000  Uiso   1.00
C293   C     0.62904   0.59569   0.20661   0.00000  Uiso   1.00
C294   C     0.45203   0.74096   0.08021   0.00000  Uiso   1.00
C295   C     0.48380   0.77485   0.13718   0.00000  Uiso   1.00
C296   C     0.43045   0.77048   0.11187   0.00000  Uiso   1.00
C297   C     0.41662   0.75355   0.98859   0.00000  Uiso   1.00
C298   C     0.41860   0.79803   0.96852   0.00000  Uiso   1.00
C299   C     0.33541   0.80428   0.86605   0.00000  Uiso   1.00
H300   H     0.28422   0.64222   0.88672   0.00000  Uiso   1.00
H301   H     0.38912   0.55111   0.97886   0.00000  Uiso   1.00
H302   H     0.25286   0.67103   0.91386   0.00000  Uiso   1.00
H303   H     0.18767   0.69421   0.74522   0.00000  Uiso   1.00
H304   H     0.54166   0.46638   0.11607   0.00000  Uiso   1.00
H305   H     0.25433   0.71926   0.97898   0.00000  Uiso   1.00
H306   H     0.11687   0.76814   0.62337   0.00000  Uiso   1.00
H307   H     0.56342   0.76773   0.15671   0.00000  Uiso   1.00
H308   H     0.68364   0.68350   0.26366   0.00000  Uiso   1.00
H309   H     0.54738   0.80342   0.19866   0.00000  Uiso   1.00
H310   H     0.48220   0.82661   0.03002   0.00000  Uiso   1.00
H311   H     0.78071   0.57383   0.34723   0.00000  Uiso   1.00
H312   H     0.49338   0.82671   0.21014   0.00000  Uiso   1.00
H313   H     0.35592   0.87560   0.85453   0.00000  Uiso   1.00
O314   O     0.73524   0.46243   0.29716   0.00000  Uiso   1.00
O315   O     0.35826   0.79420   0.11728   0.00000  Uiso   1.00
O316   O     0.17792   0.85834   0.65074   0.00000  Uiso   1.00
N317   N     0.58141   0.50323   0.15579   0.00000  Uiso   1.00
N318   N     0.31279   0.73965   0.02763   0.00000  Uiso   1.00
N319   N     0.18426   0.78536   0.69515   0.00000  Uiso   1.00
N320   N     0.71005   0.56105   0.28017   0.00000  Uiso   1.00
N321   N     0.44142   0.79747   0.15201   0.00000  Uiso   1.00
N322   N     0.31289   0.84318   0.81954   0.00000  Uiso   1.00
C323   C     0.29954   0.80175   0.70922   0.00000  Uiso   1.00
C324   C     0.36686   0.85073   0.78780   0.00000  Uiso   1.00
C325   C     0.33554   0.90538   0.76568   0.00000  Uiso   1.00
C326   C     0.40870   0.94409   0.84836   0.00000  Uiso   1.00
C327   C     0.49791   0.02250   0.95498   0.00000  Uiso   1.00
C328   C     0.33780   0.78442   0.71484   0.00000  Uiso   1.00
C329   C     0.28204   0.78330   0.63137   0.00000  Uiso   1.00
C330   C     0.33074   0.76619   0.65264   0.00000  Uiso   1.00
C331   C     0.37481   0.74160   0.64597   0.00000  Uiso   1.00
C332   C     0.32116   0.75063   0.75260   0.00000  Uiso   1.00
C333   C     0.25140   0.72110   0.70088   0.00000  Uiso   1.00
C334   C     0.28609   0.67553   0.75393   0.00000  Uiso   1.00
C335   C     0.30431   0.59849   0.80589   0.00000  Uiso   1.00
C336   C     0.48516   0.77334   0.89539   0.00000  Uiso   1.00
C337   C     0.46768   0.83530   0.88892   0.00000  Uiso   1.00
C338   C     0.54091   0.87394   0.97166   0.00000  Uiso   1.00
C339   C     0.50971   0.92863   0.94966   0.00000  Uiso   1.00
C340   C     0.43862   0.76899   0.81595   0.00000  Uiso   1.00
C341   C     0.48741   0.75186   0.83735   0.00000  Uiso   1.00
C342   C     0.43174   0.75072   0.75394   0.00000  Uiso   1.00
C343   C     0.42198   0.73520   0.85372   0.00000  Uiso   1.00
C344   C     0.45677   0.68966   0.90686   0.00000  Uiso   1.00
C345   C     0.38709   0.66006   0.85523   0.00000  Uiso   1.00
H346   H     0.22104   0.81377   0.63049   0.00000  Uiso   1.00
H347   H     0.25751   0.91731   0.68741   0.00000  Uiso   1.00
H348   H     0.20402   0.79524   0.55313   0.00000  Uiso   1.00
H349   H     0.17339   0.73305   0.62263   0.00000  Uiso   1.00
H350   H     0.34241   0.02530   0.79510   0.00000  Uiso   1.00
H351   H     0.22961   0.76790   0.51195   0.00000  Uiso   1.00
H352   H     0.16502   0.63676   0.65850   0.00000  Uiso   1.00
H353   H     0.56365   0.76132   0.97412   0.00000  Uiso   1.00
H354   H     0.61893   0.86198   0.04990   0.00000  Uiso   1.00
H355   H     0.56543   0.73992   0.91561   0.00000  Uiso   1.00
H356   H     0.53480   0.67773   0.98511   0.00000  Uiso   1.00
H357   H     0.63575   0.98040   0.08931   0.00000  Uiso   1.00
H358   H     0.52294   0.72300   0.80615   0.00000  Uiso   1.00
H359   H     0.45835   0.59186   0.95271   0.00000  Uiso   1.00
O360   O     0.51926   0.07002   0.98585   0.00000  Uiso   1.00
O361   O     0.37126   0.73232   0.61436   0.00000  Uiso   1.00
O362   O     0.28652   0.56026   0.80663   0.00000  Uiso   1.00
N363   N     0.40386   0.00091   0.85395   0.00000  Uiso   1.00
N364   N     0.29840   0.76027   0.58922   0.00000  Uiso   1.00
N365   N     0.23801   0.63765   0.72622   0.00000  Uiso   1.00
N366   N     0.56170   0.97675   0.01226   0.00000  Uiso   1.00
N367   N     0.45624   0.73611   0.74753   0.00000  Uiso   1.00
N368   N     0.39585   0.61349   0.88453   0.00000  Uiso   1.00
C369   C     0.84818   0.82903   0.44857   0.00000  Uiso   1.00
C370   C     0.94389   0.86112   0.53607   0.00000  Uiso   1.00
C371   C     0.95272   0.92032   0.54036   0.00000  Uiso   1.00
C372   C     0.04673   0.94131   0.62701   0.00000  Uiso   1.00
C373   C     0.18285   0.99677   0.75081   0.00000  Uiso   1.00
C374   C     0.86987   0.79597   0.50076   0.00000  Uiso   1.00
C375   C     0.81644   0.80039   0.47535   0.00000  Uiso   1.00
C376   C     0.84814   0.76652   0.53228   0.00000  Uiso   1.00
C377   C     0.86929   0.72080   0.60121   0.00000  Uiso   1.00
C378   C     0.83445   0.78338   0.40914   0.00000  Uiso   1.00
C379   C     0.75124   0.77720   0.30668   0.00000  Uiso   1.00
C380   C     0.75310   0.73272   0.28646   0.00000  Uiso   1.00
C381   C     0.71927   0.66745   0.21313   0.00000  Uiso   1.00
C382   C     0.99945   0.76103   0.59485   0.00000  Uiso   1.00
C383   C     0.02605   0.82419   0.61552   0.00000  Uiso   1.00
C384   C     0.12008   0.84509   0.70219   0.00000  Uiso   1.00
C385   C     0.12904   0.90431   0.70661   0.00000  Uiso   1.00
C386   C     0.95203   0.75904   0.58021   0.00000  Uiso   1.00
C387   C     0.98380   0.72515   0.63718   0.00000  Uiso   1.00
C388   C     0.93045   0.72952   0.61187   0.00000  Uiso   1.00
C389   C     0.91662   0.74645   0.48859   0.00000  Uiso   1.00
C390   C     0.91860   0.70197   0.46852   0.00000  Uiso   1.00
C391   C     0.83541   0.69572   0.36605   0.00000  Uiso   1.00
H392   H     0.78422   0.85778   0.38672   0.00000  Uiso   1.00
H393   H     0.88912   0.94889   0.47886   0.00000  Uiso   1.00
H394   H     0.75286   0.82897   0.41386   0.00000  Uiso   1.00
H395   H     0.68767   0.80579   0.24522   0.00000  Uiso   1.00
H396   H     0.04166   0.03362   0.61607   0.00000  Uiso   1.00
H397   H     0.75433   0.78074   0.47898   0.00000  Uiso   1.00
H398   H     0.61687   0.73186   0.12337   0.00000  Uiso   1.00
H399   H     0.06342   0.73227   0.65671   0.00000  Uiso   1.00
H400   H     0.18364   0.81650   0.76366   0.00000  Uiso   1.00
H401   H     0.04738   0.69658   0.69866   0.00000  Uiso   1.00
H402   H     0.98220   0.67339   0.53002   0.00000  Uiso   1.00
H403   H     0.28071   0.92617   0.84723   0.00000  Uiso   1.00
H404   H     0.99338   0.67329   0.71014   0.00000  Uiso   1.00
H405   H     0.85592   0.62440   0.35453   0.00000  Uiso   1.00
O406   O     0.23524   0.03757   0.79716   0.00000  Uiso   1.00
O407   O     0.85826   0.70580   0.61728   0.00000  Uiso   1.00
O408   O     0.67792   0.64166   0.15074   0.00000  Uiso   1.00
N409   N     0.08141   0.99677   0.65579   0.00000  Uiso   1.00
N410   N     0.81279   0.76035   0.52763   0.00000  Uiso   1.00
N411   N     0.68426   0.71464   0.19515   0.00000  Uiso   1.00
N412   N     0.21005   0.93895   0.78017   0.00000  Uiso   1.00
N413   N     0.94142   0.70253   0.65201   0.00000  Uiso   1.00
N414   N     0.81289   0.65682   0.31954   0.00000  Uiso   1.00
C415   C     0.79954   0.69825   0.20922   0.00000  Uiso   1.00
C416   C     0.86686   0.64927   0.28780   0.00000  Uiso   1.00
C417   C     0.83554   0.59462   0.26568   0.00000  Uiso   1.00
C418   C     0.90870   0.55591   0.34836   0.00000  Uiso   1.00
C419   C     0.99791   0.47750   0.45498   0.00000  Uiso   1.00
C420   C     0.83780   0.71558   0.21484   0.00000  Uiso   1.00
C421   C     0.78204   0.71670   0.13137   0.00000  Uiso   1.00
C422   C     0.83074   0.73381   0.15264   0.00000  Uiso   1.00
C423   C     0.87481   0.75840   0.14597   0.00000  Uiso   1.00
C424   C     0.82116   0.74937   0.25260   0.00000  Uiso   1.00
C425   C     0.75140   0.77890   0.20088   0.00000  Uiso   1.00
C426   C     0.78609   0.82447   0.25393   0.00000  Uiso   1.00
C427   C     0.80431   0.90151   0.30589   0.00000  Uiso   1.00
C428   C     0.98516   0.72666   0.39539   0.00000  Uiso   1.00
C429   C     0.96768   0.66470   0.38892   0.00000  Uiso   1.00
C430   C     0.04091   0.62606   0.47166   0.00000  Uiso   1.00
C431   C     0.00971   0.57137   0.44966   0.00000  Uiso   1.00
C432   C     0.93862   0.73101   0.31595   0.00000  Uiso   1.00
C433   C     0.98741   0.74814   0.33735   0.00000  Uiso   1.00
C434   C     0.93174   0.74928   0.25394   0.00000  Uiso   1.00
C435   C     0.92198   0.76480   0.35372   0.00000  Uiso   1.00
C436   C     0.95677   0.81034   0.40686   0.00000  Uiso   1.00
C437   C     0.88709   0.83994   0.35523   0.00000  Uiso   1.00
H438   H     0.72104   0.68623   0.13049   0.00000  Uiso   1.00
H439   H     0.75751   0.58269   0.18741   0.00000  Uiso   1.00
H440   H     0.70402   0.70476   0.05313   0.00000  Uiso   1.00
H441   H     0.67339   0.76695   0.12263   0.00000  Uiso   1.00
H442   H     0.84241   0.47470   0.29510   0.00000  Uiso   1.00
H443   H     0.72961   0.73210   0.01195   0.00000  Uiso   1.00
H444   H     0.66502   0.86324   0.15850   0.00000  Uiso   1.00
H445   H     0.06365   0.73868   0.47412   0.00000  Uiso   1.00
H446   H     0.11893   0.63802   0.54990   0.00000  Uiso   1.00
H447   H     0.06543   0.76008   0.41561   0.00000  Uiso   1.00
H448   H     0.03480   0.82227   0.48511   0.00000  Uiso   1.00
H449   H     0.13575   0.51960   0.58931   0.00000  Uiso   1.00
H450   H     0.02294   0.77700   0.30615   0.00000  Uiso   1.00
H451   H     0.95835   0.90814   0.45271   0.00000  Uiso   1.00
O452   O     0.01926   0.42998   0.48585   0.00000  Uiso   1.00
O453   O     0.87126   0.76768   0.11436   0.00000  Uiso   1.00
O454   O     0.78652   0.93974   0.30663   0.00000  Uiso   1.00
N455   N     0.90386   0.49909   0.35395   0.00000  Uiso   1.00
N456   N     0.79840   0.73973   0.08922   0.00000  Uiso   1.00
N457   N     0.73801   0.86235   0.22622   0.00000  Uiso   1.00
N458   N     0.06170   0.52325   0.51226   0.00000  Uiso   1.00
N459   N     0.95624   0.76389   0.24753   0.00000  Uiso   1.00
N460   N     0.89585   0.88651   0.38453   0.00000  Uiso   1.00
C461   C     0.34818   0.32903   0.44857   0.00000  Uiso   1.00
C462   C     0.44389   0.36112   0.53607   0.00000  Uiso   1.00
C463   C     0.45272   0.42032   0.54036   0.00000  Uiso   1.00
C464   C     0.54673   0.44131   0.62701   0.00000  Uiso   1.00
C465   C     0.68285   0.49677   0.75081   0.00000  Uiso   1.00
C466   C     0.36987   0.29597   0.50076   0.00000  Uiso   1.00
C467   C     0.31644   0.30039   0.47535   0.00000  Uiso   1.00
C468   C     0.34814   0.26652   0.53228   0.00000  Uiso   1.00
C469   C     0.36929   0.22080   0.60121   0.00000  Uiso   1.00
C470   C     0.33445   0.28338   0.40914   0.00000  Uiso   1.00
C471   C     0.25124   0.27720   0.30668   0.00000  Uiso   1.00
C472   C     0.25310   0.23272   0.28646   0.00000  Uiso   1.00
C473   C     0.21927   0.16745   0.21313   0.00000  Uiso   1.00
C474   C     0.49945   0.26103   0.59485   0.00000  Uiso   1.00
C475   C     0.52605   0.32419   0.61552   0.00000  Uiso   1.00
C476   C     0.62008   0.34509   0.70219   0.00000  Uiso   1.00
C477   C     0.62904   0.40431   0.70661   0.00000  Uiso   1.00
C478   C     0.45203   0.25904   0.58021   0.00000  Uiso   1.00
C479   C     0.48380   0.22515   0.63718   0.00000  Uiso   1.00
C480   C     0.43045   0.22952   0.61187   0.00000  Uiso   1.00
C481   C     0.41662   0.24645   0.48859   0.00000  Uiso   1.00
C482   C     0.41860   0.20197   0.46852   0.00000  Uiso   1.00
C483   C     0.33541   0.19572   0.36605   0.00000  Uiso   1.00
H484   H     0.28422   0.35778   0.38672   0.00000  Uiso   1.00
H485   H     0.38912   0.44889   0.47886   0.00000  Uiso   1.00
H486   H     0.25286   0.32897   0.41386   0.00000  Uiso   1.00
H487   H     0.18767   0.30579   0.24522   0.00000  Uiso   1.00
H488   H     0.54166   0.53362   0.61607   0.00000  Uiso   1.00
H489   H     0.25433   0.28074   0.47898   0.00000  Uiso   1.00
H490   H     0.11687   0.23186   0.12337   0.00000  Uiso   1.00
H491   H     0.56342   0.23227   0.65671   0.00000  Uiso   1.00
H492   H     0.68364   0.31650   0.76366   0.00000  Uiso   1.00
H493   H     0.54738   0.19658   0.69866   0.00000  Uiso   1.00
H494   H     0.48220   0.17339   0.53002   0.00000  Uiso   1.00
H495   H     0.78071   0.42617   0.84723   0.00000  Uiso   1.00
H496   H     0.49338   0.17329   0.71014   0.00000  Uiso   1.00
H497   H     0.35592   0.12440   0.35453   0.00000  Uiso   1.00
O498   O     0.73524   0.53757   0.79716   0.00000  Uiso   1.00
O499   O     0.35826   0.20580   0.61728   0.00000  Uiso   1.00
O500   O     0.17792   0.14166   0.15074   0.00000  Uiso   1.00
N501   N     0.58141   0.49677   0.65579   0.00000  Uiso   1.00
N502   N     0.31279   0.26035   0.52763   0.00000  Uiso   1.00
N503   N     0.18426   0.21464   0.19515   0.00000  Uiso   1.00
N504   N     0.71005   0.43895   0.78017   0.00000  Uiso   1.00
N505   N     0.44142   0.20253   0.65201   0.00000  Uiso   1.00
N506   N     0.31289   0.15682   0.31954   0.00000  Uiso   1.00
C507   C     0.29954   0.19825   0.20922   0.00000  Uiso   1.00
C508   C     0.36686   0.14927   0.28780   0.00000  Uiso   1.00
C509   C     0.33554   0.09462   0.26568   0.00000  Uiso   1.00
C510   C     0.40870   0.05591   0.34836   0.00000  Uiso   1.00
C511   C     0.49791   0.97750   0.45498   0.00000  Uiso   1.00
C512   C     0.33780   0.21558   0.21484   0.00000  Uiso   1.00
C513   C     0.28204   0.21670   0.13137   0.00000  Uiso   1.00
C514   C     0.33074   0.23381   0.15264   0.00000  Uiso   1.00
C515   C     0.37481   0.25840   0.14597   0.00000  Uiso   1.00
C516   C     0.32116   0.24937   0.25260   0.00000  Uiso   1.00
C517   C     0.25140   0.27890   0.20088   0.00000  Uiso   1.00
C518   C     0.28609   0.32447   0.25393   0.00000  Uiso   1.00
C519   C     0.30431   0.40151   0.30589   0.00000  Uiso   1.00
C520   C     0.48516   0.22666   0.39539   0.00000  Uiso   1.00
C521   C     0.46768   0.16470   0.38892   0.00000  Uiso   1.00
C522   C     0.54091   0.12606   0.47166   0.00000  Uiso   1.00
C523   C     0.50971   0.07137   0.44966   0.00000  Uiso   1.00
C524   C     0.43862   0.23101   0.31595   0.00000  Uiso   1.00
C525   C     0.48741   0.24814   0.33735   0.00000  Uiso   1.00
C526   C     0.43174   0.24928   0.25394   0.00000  Uiso   1.00
C527   C     0.42198   0.26480   0.35372   0.00000  Uiso   1.00
C528   C     0.45677   0.31034   0.40686   0.00000  Uiso   1.00
C529   C     0.38709   0.33994   0.35523   0.00000  Uiso   1.00
H530   H     0.22104   0.18623   0.13049   0.00000  Uiso   1.00
H531   H     0.25751   0.08269   0.18741   0.00000  Uiso   1.00
H532   H     0.20402   0.20476   0.05313   0.00000  Uiso   1.00
H533   H     0.17339   0.26695   0.12263   0.00000  Uiso   1.00
H534   H     0.34241   0.97470   0.29510   0.00000  Uiso   1.00
H535   H     0.22961   0.23210   0.01195   0.00000  Uiso   1.00
H536   H     0.16502   0.36324   0.15850   0.00000  Uiso   1.00
H537   H     0.56365   0.23868   0.47412   0.00000  Uiso   1.00
H538   H     0.61893   0.13802   0.54990   0.00000  Uiso   1.00
H539   H     0.56543   0.26008   0.41561   0.00000  Uiso   1.00
H540   H     0.53480   0.32227   0.48511   0.00000  Uiso   1.00
H541   H     0.63575   0.01960   0.58931   0.00000  Uiso   1.00
H542   H     0.52294   0.27700   0.30615   0.00000  Uiso   1.00
H543   H     0.45835   0.40814   0.45271   0.00000  Uiso   1.00
O544   O     0.51926   0.92998   0.48585   0.00000  Uiso   1.00
O545   O     0.37126   0.26768   0.11436   0.00000  Uiso   1.00
O546   O     0.28652   0.43974   0.30663   0.00000  Uiso   1.00
N547   N     0.40386   0.99909   0.35395   0.00000  Uiso   1.00
N548   N     0.29840   0.23973   0.08922   0.00000  Uiso   1.00
N549   N     0.23801   0.36235   0.22622   0.00000  Uiso   1.00
N550   N     0.56170   0.02325   0.51226   0.00000  Uiso   1.00
N551   N     0.45624   0.26389   0.24753   0.00000  Uiso   1.00
N552   N     0.39585   0.38651   0.38453   0.00000  Uiso   1.00
C553   C     0.15182   0.82903   0.05143   0.00000  Uiso   1.00
C554   C     0.05611   0.86112   0.96393   0.00000  Uiso   1.00
C555   C     0.04728   0.92032   0.95964   0.00000  Uiso   1.00
C556   C     0.95327   0.94131   0.87299   0.00000  Uiso   1.00
C557   C     0.81715   0.99677   0.74919   0.00000  Uiso   1.00
C558   C     0.13013   0.79597   0.99924   0.00000  Uiso   1.00
C559   C     0.18356   0.80039   0.02465   0.00000  Uiso   1.00
C560   C     0.15186   0.76652   0.96772   0.00000  Uiso   1.00
C561   C     0.13071   0.72080   0.89879   0.00000  Uiso   1.00
C562   C     0.16555   0.78338   0.09086   0.00000  Uiso   1.00
C563   C     0.24876   0.77720   0.19332   0.00000  Uiso   1.00
C564   C     0.24690   0.73272   0.21354   0.00000  Uiso   1.00
C565   C     0.28073   0.66745   0.28687   0.00000  Uiso   1.00
C566   C     0.00055   0.76103   0.90515   0.00000  Uiso   1.00
C567   C     0.97395   0.82419   0.88448   0.00000  Uiso   1.00
C568   C     0.87992   0.84509   0.79781   0.00000  Uiso   1.00
C569   C     0.87096   0.90431   0.79339   0.00000  Uiso   1.00
C570   C     0.04797   0.75904   0.91979   0.00000  Uiso   1.00
C571   C     0.01620   0.72515   0.86282   0.00000  Uiso   1.00
C572   C     0.06955   0.72952   0.88813   0.00000  Uiso   1.00
C573   C     0.08338   0.74645   0.01141   0.00000  Uiso   1.00
C574   C     0.08140   0.70197   0.03148   0.00000  Uiso   1.00
C575   C     0.16459   0.69572   0.13395   0.00000  Uiso   1.00
H576   H     0.21578   0.85778   0.11328   0.00000  Uiso   1.00
H577   H     0.11088   0.94889   0.02114   0.00000  Uiso   1.00
H578   H     0.24714   0.82897   0.08614   0.00000  Uiso   1.00
H579   H     0.31233   0.80579   0.25478   0.00000  Uiso   1.00
H580   H     0.95834   0.03362   0.88393   0.00000  Uiso   1.00
H581   H     0.24567   0.78074   0.02102   0.00000  Uiso   1.00
H582   H     0.38313   0.73186   0.37663   0.00000  Uiso   1.00
H583   H     0.93658   0.73227   0.84329   0.00000  Uiso   1.00
H584   H     0.81636   0.81650   0.73634   0.00000  Uiso   1.00
H585   H     0.95262   0.69658   0.80134   0.00000  Uiso   1.00
H586   H     0.01780   0.67339   0.96998   0.00000  Uiso   1.00
H587   H     0.71929   0.92617   0.65277   0.00000  Uiso   1.00
H588   H     0.00662   0.67329   0.78986   0.00000  Uiso   1.00
H589   H     0.14408   0.62440   0.14547   0.00000  Uiso   1.00
O590   O     0.76476   0.03757   0.70284   0.00000  Uiso   1.00
O591   O     0.14174   0.70580   0.88272   0.00000  Uiso   1.00
O592   O     0.32208   0.64166   0.34926   0.00000  Uiso   1.00
N593   N     0.91859   0.99677   0.84421   0.00000  Uiso   1.00
N594   N     0.18721   0.76035   0.97237   0.00000  Uiso   1.00
N595   N     0.31574   0.71464   0.30485   0.00000  Uiso   1.00
N596   N     0.78995   0.93895   0.71983   0.00000  Uiso   1.00
N597   N     0.05858   0.70253   0.84799   0.00000  Uiso   1.00
N598   N     0.18711   0.65682   0.18046   0.00000  Uiso   1.00
C599   C     0.20046   0.69825   0.29078   0.00000  Uiso   1.00
C600   C     0.13314   0.64927   0.21220   0.00000  Uiso   1.00
C601   C     0.16446   0.59462   0.23432   0.00000  Uiso   1.00
C602   C     0.09130   0.55591   0.15164   0.00000  Uiso   1.00
C603   C     0.00209   0.47750   0.04502   0.00000  Uiso   1.00
C604   C     0.16220   0.71558   0.28516   0.00000  Uiso   1.00
C605   C     0.21796   0.71670   0.36863   0.00000  Uiso   1.00
C606   C     0.16926   0.73381   0.34736   0.00000  Uiso   1.00
C607   C     0.12519   0.75840   0.35403   0.00000  Uiso   1.00
C608   C     0.17884   0.74937   0.24740   0.00000  Uiso   1.00
C609   C     0.24860   0.77890   0.29912   0.00000  Uiso   1.00
C610   C     0.21391   0.82447   0.24607   0.00000  Uiso   1.00
C611   C     0.19569   0.90151   0.19411   0.00000  Uiso   1.00
C612   C     0.01484   0.72666   0.10461   0.00000  Uiso   1.00
C613   C     0.03232   0.66470   0.11108   0.00000  Uiso   1.00
C614   C     0.95909   0.62606   0.02834   0.00000  Uiso   1.00
C615   C     0.99029   0.57137   0.05034   0.00000  Uiso   1.00
C616   C     0.06138   0.73101   0.18405   0.00000  Uiso   1.00
C617   C     0.01259   0.74814   0.16265   0.00000  Uiso   1.00
C618   C     0.06826   0.74928   0.24606   0.00000  Uiso   1.00
C619   C     0.07802   0.76480   0.14628   0.00000  Uiso   1.00
C620   C     0.04323   0.81034   0.09314   0.00000  Uiso   1.00
C621   C     0.11291   0.83994   0.14477   0.00000  Uiso   1.00
H622   H     0.27896   0.68623   0.36951   0.00000  Uiso   1.00
H623   H     0.24249   0.58269   0.31259   0.00000  Uiso   1.00
H624   H     0.29598   0.70476   0.44687   0.00000  Uiso   1.00
H625   H     0.32661   0.76695   0.37737   0.00000  Uiso   1.00
H626   H     0.15759   0.47470   0.20490   0.00000  Uiso   1.00
H627   H     0.27039   0.73210   0.48805   0.00000  Uiso   1.00
H628   H     0.33498   0.86324   0.34150   0.00000  Uiso   1.00
H629   H     0.93635   0.73868   0.02588   0.00000  Uiso   1.00
H630   H     0.88107   0.63802   0.95010   0.00000  Uiso   1.00
H631   H     0.93457   0.76008   0.08439   0.00000  Uiso   1.00
H632   H     0.96520   0.82227   0.01489   0.00000  Uiso   1.00
H633   H     0.86425   0.51960   0.91069   0.00000  Uiso   1.00
H634   H     0.97706   0.77700   0.19385   0.00000  Uiso   1.00
H635   H     0.04165   0.90814   0.04729   0.00000  Uiso   1.00
O636   O     0.98074   0.42998   0.01415   0.00000  Uiso   1.00
O637   O     0.12874   0.76768   0.38564   0.00000  Uiso   1.00
O638   O     0.21348   0.93974   0.19337   0.00000  Uiso   1.00
N639   N     0.09614   0.49909   0.14605   0.00000  Uiso   1.00
N640   N     0.20160   0.73973   0.41078   0.00000  Uiso   1.00
N641   N     0.26199   0.86235   0.27378   0.00000  Uiso   1.00
N642   N     0.93830   0.52325   0.98774   0.00000  Uiso   1.00
N643   N     0.04376   0.76389   0.25247   0.00000  Uiso   1.00
N644   N     0.10415   0.88651   0.11547   0.00000  Uiso   1.00
C645   C     0.65182   0.32903   0.05143   0.00000  Uiso   1.00
C646   C     0.55611   0.36112   0.96393   0.00000  Uiso   1.00
C647   C     0.54728   0.42032   0.95964   0.00000  Uiso   1.00
C648   C     0.45327   0.44131   0.87299   0.00000  Uiso   1.00
C649   C     0.31715   0.49677   0.74919   0.00000  Uiso   1.00
C650   C     0.63013   0.29597   0.99924   0.00000  Uiso   1.00
C651   C     0.68356   0.30039   0.02465   0.00000  Uiso   1.00
C652   C     0.65186   0.26652   0.96772   0.00000  Uiso   1.00
C653   C     0.63071   0.22080   0.89879   0.00000  Uiso   1.00
C654   C     0.66555   0.28338   0.09086   0.00000  Uiso   1.00
C655   C     0.74876   0.27720   0.19332   0.00000  Uiso   1.00
C656   C     0.74690   0.23272   0.21354   0.00000  Uiso   1.00
C657   C     0.78073   0.16745   0.28687   0.00000  Uiso   1.00
C658   C     0.50055   0.26103   0.90515   0.00000  Uiso   1.00
C659   C     0.47395   0.32419   0.88448   0.00000  Uiso   1.00
C660   C     0.37992   0.34509   0.79781   0.00000  Uiso   1.00
C661   C     0.37096   0.40431   0.79339   0.00000  Uiso   1.00
C662   C     0.54797   0.25904   0.91979   0.00000  Uiso   1.00
C663   C     0.51620   0.22515   0.86282   0.00000  Uiso   1.00
C664   C     0.56955   0.22952   0.88813   0.00000  Uiso   1.00
C665   C     0.58338   0.24645   0.01141   0.00000  Uiso   1.00
C666   C     0.58140   0.20197   0.03148   0.00000  Uiso   1.00
C667   C     0.66459   0.19572   0.13395   0.00000  Uiso   1.00
H668   H     0.71578   0.35778   0.11328   0.00000  Uiso   1.00
H669   H     0.61088   0.44889   0.02114   0.00000  Uiso   1.00
H670   H     0.74714   0.32897   0.08614   0.00000  Uiso   1.00
H671   H     0.81233   0.30579   0.25478   0.00000  Uiso   1.00
H672   H     0.45834   0.53362   0.88393   0.00000  Uiso   1.00
H673   H     0.74567   0.28074   0.02102   0.00000  Uiso   1.00
H674   H     0.88313   0.23186   0.37663   0.00000  Uiso   1.00
H675   H     0.43658   0.23227   0.84329   0.00000  Uiso   1.00
H676   H     0.31636   0.31650   0.73634   0.00000  Uiso   1.00
H677   H     0.45262   0.19658   0.80134   0.00000  Uiso   1.00
H678   H     0.51780   0.17339   0.96998   0.00000  Uiso   1.00
H679   H     0.21929   0.42617   0.65277   0.00000  Uiso   1.00
H680   H     0.50662   0.17329   0.78986   0.00000  Uiso   1.00
H681   H     0.64408   0.12440   0.14547   0.00000  Uiso   1.00
O682   O     0.26476   0.53757   0.70284   0.00000  Uiso   1.00
O683   O     0.64174   0.20580   0.88272   0.00000  Uiso   1.00
O684   O     0.82208   0.14166   0.34926   0.00000  Uiso   1.00
N685   N     0.41859   0.49677   0.84421   0.00000  Uiso   1.00
N686   N     0.68721   0.26035   0.97237   0.00000  Uiso   1.00
N687   N     0.81574   0.21464   0.30485   0.00000  Uiso   1.00
N688   N     0.28995   0.43895   0.71983   0.00000  Uiso   1.00
N689   N     0.55858   0.20253   0.84799   0.00000  Uiso   1.00
N690   N     0.68711   0.15682   0.18046   0.00000  Uiso   1.00
C691   C     0.70046   0.19825   0.29078   0.00000  Uiso   1.00
C692   C     0.63314   0.14927   0.21220   0.00000  Uiso   1.00
C693   C     0.66446   0.09462   0.23432   0.00000  Uiso   1.00
C694   C     0.59130   0.05591   0.15164   0.00000  Uiso   1.00
C695   C     0.50209   0.97750   0.04502   0.00000  Uiso   1.00
C696   C     0.66220   0.21558   0.28516   0.00000  Uiso   1.00
C697   C     0.71796   0.21670   0.36863   0.00000  Uiso   1.00
C698   C     0.66926   0.23381   0.34736   0.00000  Uiso   1.00
C699   C     0.62519   0.25840   0.35403   0.00000  Uiso   1.00
C700   C     0.67884   0.24937   0.24740   0.00000  Uiso   1.00
C701   C     0.74860   0.27890   0.29912   0.00000  Uiso   1.00
C702   C     0.71391   0.32447   0.24607   0.00000  Uiso   1.00
C703   C     0.69569   0.40151   0.19411   0.00000  Uiso   1.00
C704   C     0.51484   0.22666   0.10461   0.00000  Uiso   1.00
C705   C     0.53232   0.16470   0.11108   0.00000  Uiso   1.00
C706   C     0.45909   0.12606   0.02834   0.00000  Uiso   1.00
C707   C     0.49029   0.07137   0.05034   0.00000  Uiso   1.00
C708   C     0.56138   0.23101   0.18405   0.00000  Uiso   1.00
C709   C     0.51259   0.24814   0.16265   0.00000  Uiso   1.00
C710   C     0.56826   0.24928   0.24606   0.00000  Uiso   1.00
C711   C     0.57802   0.26480   0.14628   0.00000  Uiso   1.00
C712   C     0.54323   0.31034   0.09314   0.00000  Uiso   1.00
C713   C     0.61291   0.33994   0.14477   0.00000  Uiso   1.00
H714   H     0.77896   0.18623   0.36951   0.00000  Uiso   1.00
H715   H     0.74249   0.08269   0.31259   0.00000  Uiso   1.00
H716   H     0.79598   0.20476   0.44687   0.00000  Uiso   1.00
H717   H     0.82661   0.26695   0.37737   0.00000  Uiso   1.00
H718   H     0.65759   0.97470   0.20490   0.00000  Uiso   1.00
H719   H     0.77039   0.23210   0.48805   0.00000  Uiso   1.00
H720   H     0.83498   0.36324   0.34150   0.00000  Uiso   1.00
H721   H     0.43635   0.23868   0.02588   0.00000  Uiso   1.00
H722   H     0.38107   0.13802   0.95010   0.00000  Uiso   1.00
H723   H     0.43457   0.26008   0.08439   0.00000  Uiso   1.00
H724   H     0.46520   0.32227   0.01489   0.00000  Uiso   1.00
H725   H     0.36425   0.01960   0.91069   0.00000  Uiso   1.00
H726   H     0.47706   0.27700   0.19385   0.00000  Uiso   1.00
H727   H     0.54165   0.40814   0.04729   0.00000  Uiso   1.00
O728   O     0.48074   0.92998   0.01415   0.00000  Uiso   1.00
O729   O     0.62874   0.26768   0.38564   0.00000  Uiso   1.00
O730   O     0.71348   0.43974   0.19337   0.00000  Uiso   1.00
N731   N     0.59614   0.99909   0.14605   0.00000  Uiso   1.00
N732   N     0.70160   0.23973   0.41078   0.00000  Uiso   1.00
N733   N     0.76199   0.36235   0.27378   0.00000  Uiso   1.00
N734   N     0.43830   0.02325   0.98774   0.00000  Uiso   1.00
N735   N     0.54376   0.26389   0.25247   0.00000  Uiso   1.00
N736   N     0.60415   0.38651   0.11547   0.00000  Uiso   1.00
