data_job_06528
_audit_creation_date              2018-12-19
_audit_creation_method            'Materials Studio'
_symmetry_space_group_name_H-M    'P1'
_symmetry_Int_Tables_number       1
_symmetry_cell_setting            triclinic
loop_
_symmetry_equiv_pos_as_xyz
  x,y,z
_cell_length_a                    36.7391
_cell_length_b                    22.9214
_cell_length_c                    33.4582
_cell_angle_alpha                 90.0000
_cell_angle_beta                  142.7001
_cell_angle_gamma                 90.0000
loop_
_atom_site_label
_atom_site_type_symbol
_atom_site_fract_x
_atom_site_fract_y
_atom_site_fract_z
_atom_site_U_iso_or_equiv
_atom_site_adp_type
_atom_site_occupancy
C1     C     0.78206   0.73550   0.17269   0.00000  Uiso   1.00
C2     C     0.76726   0.79813   0.14795   0.00000  Uiso   1.00
C3     C     0.80157   0.84695   0.18690   0.00000  Uiso   1.00
C4     C     0.78034   0.90040   0.15488   0.00000  Uiso   1.00
C5     C     0.76551   0.99698   0.12689   0.00000  Uiso   1.00
C6     C     0.72782   0.71325   0.14860   0.00000  Uiso   1.00
C7     C     0.72897   0.69069   0.18809   0.00000  Uiso   1.00
C8     C     0.67454   0.67268   0.15661   0.00000  Uiso   1.00
C9     C     0.59847   0.63744   0.12962   0.00000  Uiso   1.00
C10    C     0.78344   0.70068   0.13508   0.00000  Uiso   1.00
C11    C     0.33136   0.16755   0.16320   0.00000  Uiso   1.00
C12    C     0.32376   0.13894   0.12033   0.00000  Uiso   1.00
C13    C     0.33406   0.08419   0.07235   0.00000  Uiso   1.00
C14    C     0.68335   0.74361   0.04655   0.00000  Uiso   1.00
C15    C     0.71364   0.80253   0.07944   0.00000  Uiso   1.00
C16    C     0.69236   0.85592   0.04735   0.00000  Uiso   1.00
C17    C     0.72663   0.90481   0.08624   0.00000  Uiso   1.00
C18    C     0.67420   0.71765   0.08009   0.00000  Uiso   1.00
C19    C     0.61976   0.69966   0.04854   0.00000  Uiso   1.00
C20    C     0.62082   0.67709   0.08797   0.00000  Uiso   1.00
C21    C     0.72983   0.70509   0.06656   0.00000  Uiso   1.00
C22    C     0.22215   0.17652   0.02364   0.00000  Uiso   1.00
C23    C     0.27004   0.14335   0.05169   0.00000  Uiso   1.00
H24    H     0.82380   0.73207   0.22603   0.00000  Uiso   1.00
H25    H     0.84306   0.84353   0.23992   0.00000  Uiso   1.00
H26    H     0.77047   0.68729   0.24111   0.00000  Uiso   1.00
H27    H     0.37285   0.16415   0.21622   0.00000  Uiso   1.00
H28    H     0.84076   0.96903   0.22511   0.00000  Uiso   1.00
H29    H     0.68770   0.63958   0.22761   0.00000  Uiso   1.00
H30    H     0.40358   0.09079   0.17513   0.00000  Uiso   1.00
H31    H     0.64160   0.74704   0.99321   0.00000  Uiso   1.00
H32    H     0.65086   0.85931   0.99433   0.00000  Uiso   1.00
H33    H     0.57827   0.70308   0.99552   0.00000  Uiso   1.00
H34    H     0.18065   0.17994   0.97063   0.00000  Uiso   1.00
H35    H     0.68476   0.98185   0.02578   0.00000  Uiso   1.00
H36    H     0.53171   0.65239   0.02828   0.00000  Uiso   1.00
H37    H     0.24759   0.10360   0.97580   0.00000  Uiso   1.00
O38    O     0.77213   0.04903   0.13039   0.00000  Uiso   1.00
O39    O     0.07133   0.11679   0.13367   0.00000  Uiso   1.00
O40    O     0.35456   0.05278   0.06481   0.00000  Uiso   1.00
N41    N     0.80278   0.95664   0.17805   0.00000  Uiso   1.00
N42    N     0.65968   0.64863   0.18038   0.00000  Uiso   1.00
N43    N     0.36150   0.10300   0.13132   0.00000  Uiso   1.00
N44    N     0.71884   0.96354   0.07079   0.00000  Uiso   1.00
N45    N     0.57574   0.65553   0.07313   0.00000  Uiso   1.00
N46    N     0.27757   0.10989   0.02406   0.00000  Uiso   1.00
C47    C     0.86733   0.35184   0.32357   0.00000  Uiso   1.00
C48    C     0.90025   0.35719   0.39213   0.00000  Uiso   1.00
C49    C     0.94091   0.31716   0.44302   0.00000  Uiso   1.00
C50    C     0.96618   0.33000   0.50199   0.00000  Uiso   1.00
C51    C     0.01953   0.33053   0.60725   0.00000  Uiso   1.00
C52    C     0.80056   0.35574   0.27504   0.00000  Uiso   1.00
C53    C     0.75740   0.31449   0.22748   0.00000  Uiso   1.00
C54    C     0.69874   0.32612   0.18788   0.00000  Uiso   1.00
C55    C     0.59732   0.32441   0.11132   0.00000  Uiso   1.00
C56    C     0.88240   0.40700   0.31331   0.00000  Uiso   1.00
C57    C     0.90803   0.40886   0.29791   0.00000  Uiso   1.00
C58    C     0.41827   0.96366   0.29053   0.00000  Uiso   1.00
C59    C     0.44391   0.04155   0.27340   0.00000  Uiso   1.00
C60    C     0.83992   0.44584   0.33781   0.00000  Uiso   1.00
C61    C     0.88536   0.40825   0.39986   0.00000  Uiso   1.00
C62    C     0.91057   0.42116   0.45877   0.00000  Uiso   1.00
C63    C     0.95126   0.38115   0.50974   0.00000  Uiso   1.00
C64    C     0.78566   0.40679   0.28277   0.00000  Uiso   1.00
C65    C     0.72706   0.41849   0.24323   0.00000  Uiso   1.00
C66    C     0.68382   0.37727   0.19563   0.00000  Uiso   1.00
C67    C     0.86751   0.45806   0.32105   0.00000  Uiso   1.00
C68    C     0.37770   0.01286   0.31368   0.00000  Uiso   1.00
C69    C     0.40335   0.01481   0.29827   0.00000  Uiso   1.00
H70    H     0.87892   0.31209   0.31755   0.00000  Uiso   1.00
H71    H     0.95242   0.27765   0.43701   0.00000  Uiso   1.00
H72    H     0.76893   0.27499   0.22150   0.00000  Uiso   1.00
H73    H     0.91955   0.36934   0.29193   0.00000  Uiso   1.00
H74    H     0.02731   0.26197   0.57286   0.00000  Uiso   1.00
H75    H     0.64043   0.25636   0.11843   0.00000  Uiso   1.00
H76    H     0.45802   0.95534   0.26694   0.00000  Uiso   1.00
H77    H     0.82832   0.48559   0.34383   0.00000  Uiso   1.00
H78    H     0.89904   0.46067   0.46474   0.00000  Uiso   1.00
H79    H     0.71555   0.45800   0.24923   0.00000  Uiso   1.00
H80    H     0.36617   0.05236   0.31966   0.00000  Uiso   1.00
H81    H     0.98399   0.41052   0.59537   0.00000  Uiso   1.00
H82    H     0.59710   0.40491   0.14093   0.00000  Uiso   1.00
H83    H     0.41470   0.10388   0.28945   0.00000  Uiso   1.00
O84    O     0.05307   0.31671   0.66317   0.00000  Uiso   1.00
O85    O     0.54549   0.30936   0.06696   0.00000  Uiso   1.00
O86    O     0.46217   0.07041   0.26182   0.00000  Uiso   1.00
N87    N     0.00742   0.30036   0.56157   0.00000  Uiso   1.00
N88    N     0.64570   0.29511   0.13671   0.00000  Uiso   1.00
N89    N     0.44262   0.98113   0.27554   0.00000  Uiso   1.00
N90    N     0.98411   0.38029   0.57368   0.00000  Uiso   1.00
N91    N     0.62239   0.37504   0.14882   0.00000  Uiso   1.00
N92    N     0.41930   0.06107   0.28766   0.00000  Uiso   1.00
C93    C     0.14154   0.93248   0.88493   0.00000  Uiso   1.00
C94    C     0.11653   0.88031   0.84022   0.00000  Uiso   1.00
C95    C     0.10551   0.87830   0.78980   0.00000  Uiso   1.00
C96    C     0.08257   0.82653   0.75456   0.00000  Uiso   1.00
C97    C     0.04546   0.75282   0.68288   0.00000  Uiso   1.00
C98    C     0.09591   0.94600   0.87779   0.00000  Uiso   1.00
C99    C     0.06757   0.99923   0.85895   0.00000  Uiso   1.00
C100   C     0.02728   0.00277   0.85534   0.00000  Uiso   1.00
C101   C     0.95819   0.03107   0.84203   0.00000  Uiso   1.00
C102   C     0.19767   0.91059   0.95534   0.00000  Uiso   1.00
C103   C     0.25488   0.93405   0.00172   0.00000  Uiso   1.00
C104   C     0.30026   0.90777   0.06341   0.00000  Uiso   1.00
C105   C     0.38917   0.88108   0.17050   0.00000  Uiso   1.00
C106   C     0.62039   0.34412   0.91202   0.00000  Uiso   1.00
C107   C     0.10504   0.83231   0.85494   0.00000  Uiso   1.00
C108   C     0.58212   0.28053   0.81977   0.00000  Uiso   1.00
C109   C     0.07107   0.77844   0.76930   0.00000  Uiso   1.00
C110   C     0.08443   0.89801   0.89250   0.00000  Uiso   1.00
C111   C     0.54417   0.40147   0.88892   0.00000  Uiso   1.00
C112   C     0.01577   0.95469   0.87008   0.00000  Uiso   1.00
C113   C     0.18619   0.86259   0.97005   0.00000  Uiso   1.00
C114   C     0.73149   0.33628   0.03168   0.00000  Uiso   1.00
C115   C     0.78876   0.35969   0.07815   0.00000  Uiso   1.00
H116   H     0.15048   0.96985   0.87347   0.00000  Uiso   1.00
H117   H     0.11440   0.91545   0.77842   0.00000  Uiso   1.00
H118   H     0.07647   0.03637   0.84758   0.00000  Uiso   1.00
H119   H     0.26375   0.97119   0.99031   0.00000  Uiso   1.00
H120   H     0.06932   0.83398   0.67952   0.00000  Uiso   1.00
H121   H     0.98935   0.08895   0.82535   0.00000  Uiso   1.00
H122   H     0.38428   0.95150   0.12634   0.00000  Uiso   1.00
H123   H     0.61145   0.30675   0.92347   0.00000  Uiso   1.00
H124   H     0.57323   0.24339   0.83117   0.00000  Uiso   1.00
H125   H     0.53530   0.36432   0.90031   0.00000  Uiso   1.00
H126   H     0.72258   0.29913   0.04305   0.00000  Uiso   1.00
H127   H     0.53591   0.19433   0.72232   0.00000  Uiso   1.00
H128   H     0.45594   0.44930   0.86815   0.00000  Uiso   1.00
H129   H     0.85086   0.31185   0.16914   0.00000  Uiso   1.00
O130   O     0.02816   0.72543   0.63928   0.00000  Uiso   1.00
O131   O     0.92325   0.05994   0.83061   0.00000  Uiso   1.00
O132   O     0.44139   0.87961   0.22551   0.00000  Uiso   1.00
N133   N     0.06671   0.80980   0.70227   0.00000  Uiso   1.00
N134   N     0.99194   0.04818   0.83860   0.00000  Uiso   1.00
N135   N     0.36116   0.91969   0.12001   0.00000  Uiso   1.00
N136   N     0.54873   0.23466   0.72530   0.00000  Uiso   1.00
N137   N     0.97396   0.97304   0.86163   0.00000  Uiso   1.00
N138   N     0.84318   0.34455   0.14304   0.00000  Uiso   1.00
C139   C     0.28206   0.23550   0.17269   0.00000  Uiso   1.00
C140   C     0.26726   0.29813   0.14795   0.00000  Uiso   1.00
C141   C     0.30157   0.34695   0.18690   0.00000  Uiso   1.00
C142   C     0.28034   0.40040   0.15488   0.00000  Uiso   1.00
C143   C     0.26551   0.49698   0.12689   0.00000  Uiso   1.00
C144   C     0.22782   0.21325   0.14860   0.00000  Uiso   1.00
C145   C     0.22897   0.19069   0.18809   0.00000  Uiso   1.00
C146   C     0.17454   0.17268   0.15661   0.00000  Uiso   1.00
C147   C     0.09847   0.13744   0.12962   0.00000  Uiso   1.00
C148   C     0.28344   0.20068   0.13508   0.00000  Uiso   1.00
C149   C     0.83136   0.66755   0.16320   0.00000  Uiso   1.00
C150   C     0.82376   0.63894   0.12033   0.00000  Uiso   1.00
C151   C     0.83406   0.58419   0.07235   0.00000  Uiso   1.00
C152   C     0.18335   0.24361   0.04655   0.00000  Uiso   1.00
C153   C     0.21364   0.30253   0.07944   0.00000  Uiso   1.00
C154   C     0.19236   0.35592   0.04735   0.00000  Uiso   1.00
C155   C     0.22663   0.40481   0.08624   0.00000  Uiso   1.00
C156   C     0.17420   0.21765   0.08009   0.00000  Uiso   1.00
C157   C     0.11976   0.19966   0.04854   0.00000  Uiso   1.00
C158   C     0.12082   0.17709   0.08797   0.00000  Uiso   1.00
C159   C     0.22983   0.20509   0.06656   0.00000  Uiso   1.00
C160   C     0.72215   0.67652   0.02364   0.00000  Uiso   1.00
C161   C     0.77004   0.64335   0.05169   0.00000  Uiso   1.00
H162   H     0.32380   0.23207   0.22603   0.00000  Uiso   1.00
H163   H     0.34306   0.34353   0.23992   0.00000  Uiso   1.00
H164   H     0.27047   0.18729   0.24111   0.00000  Uiso   1.00
H165   H     0.87285   0.66415   0.21622   0.00000  Uiso   1.00
H166   H     0.34076   0.46903   0.22511   0.00000  Uiso   1.00
H167   H     0.18770   0.13958   0.22761   0.00000  Uiso   1.00
H168   H     0.90358   0.59079   0.17513   0.00000  Uiso   1.00
H169   H     0.14160   0.24704   0.99321   0.00000  Uiso   1.00
H170   H     0.15086   0.35931   0.99433   0.00000  Uiso   1.00
H171   H     0.07827   0.20308   0.99552   0.00000  Uiso   1.00
H172   H     0.68065   0.67994   0.97063   0.00000  Uiso   1.00
H173   H     0.18476   0.48185   0.02578   0.00000  Uiso   1.00
H174   H     0.03171   0.15239   0.02828   0.00000  Uiso   1.00
H175   H     0.74759   0.60360   0.97580   0.00000  Uiso   1.00
O176   O     0.27213   0.54903   0.13039   0.00000  Uiso   1.00
O177   O     0.57133   0.61679   0.13367   0.00000  Uiso   1.00
O178   O     0.85456   0.55278   0.06481   0.00000  Uiso   1.00
N179   N     0.30278   0.45664   0.17805   0.00000  Uiso   1.00
N180   N     0.15968   0.14863   0.18038   0.00000  Uiso   1.00
N181   N     0.86150   0.60300   0.13132   0.00000  Uiso   1.00
N182   N     0.21884   0.46354   0.07079   0.00000  Uiso   1.00
N183   N     0.07574   0.15553   0.07313   0.00000  Uiso   1.00
N184   N     0.77757   0.60989   0.02406   0.00000  Uiso   1.00
C185   C     0.36733   0.85184   0.32357   0.00000  Uiso   1.00
C186   C     0.40025   0.85719   0.39213   0.00000  Uiso   1.00
C187   C     0.44091   0.81716   0.44302   0.00000  Uiso   1.00
C188   C     0.46618   0.83000   0.50199   0.00000  Uiso   1.00
C189   C     0.51953   0.83053   0.60725   0.00000  Uiso   1.00
C190   C     0.30056   0.85574   0.27504   0.00000  Uiso   1.00
C191   C     0.25740   0.81449   0.22748   0.00000  Uiso   1.00
C192   C     0.19874   0.82612   0.18788   0.00000  Uiso   1.00
C193   C     0.09732   0.82441   0.11132   0.00000  Uiso   1.00
C194   C     0.38240   0.90700   0.31331   0.00000  Uiso   1.00
C195   C     0.40803   0.90886   0.29791   0.00000  Uiso   1.00
C196   C     0.91827   0.46366   0.29053   0.00000  Uiso   1.00
C197   C     0.94391   0.54155   0.27340   0.00000  Uiso   1.00
C198   C     0.33992   0.94584   0.33781   0.00000  Uiso   1.00
C199   C     0.38536   0.90825   0.39986   0.00000  Uiso   1.00
C200   C     0.41057   0.92116   0.45877   0.00000  Uiso   1.00
C201   C     0.45126   0.88115   0.50974   0.00000  Uiso   1.00
C202   C     0.28566   0.90679   0.28277   0.00000  Uiso   1.00
C203   C     0.22706   0.91849   0.24323   0.00000  Uiso   1.00
C204   C     0.18382   0.87727   0.19563   0.00000  Uiso   1.00
C205   C     0.36751   0.95806   0.32105   0.00000  Uiso   1.00
C206   C     0.87770   0.51286   0.31368   0.00000  Uiso   1.00
C207   C     0.90335   0.51481   0.29827   0.00000  Uiso   1.00
H208   H     0.37892   0.81209   0.31755   0.00000  Uiso   1.00
H209   H     0.45242   0.77765   0.43701   0.00000  Uiso   1.00
H210   H     0.26893   0.77499   0.22150   0.00000  Uiso   1.00
H211   H     0.41955   0.86934   0.29193   0.00000  Uiso   1.00
H212   H     0.52731   0.76197   0.57286   0.00000  Uiso   1.00
H213   H     0.14043   0.75636   0.11843   0.00000  Uiso   1.00
H214   H     0.95802   0.45534   0.26694   0.00000  Uiso   1.00
H215   H     0.32832   0.98559   0.34383   0.00000  Uiso   1.00
H216   H     0.39904   0.96067   0.46474   0.00000  Uiso   1.00
H217   H     0.21555   0.95800   0.24923   0.00000  Uiso   1.00
H218   H     0.86617   0.55236   0.31966   0.00000  Uiso   1.00
H219   H     0.48399   0.91052   0.59537   0.00000  Uiso   1.00
H220   H     0.09710   0.90491   0.14093   0.00000  Uiso   1.00
H221   H     0.91470   0.60388   0.28945   0.00000  Uiso   1.00
O222   O     0.55307   0.81671   0.66317   0.00000  Uiso   1.00
O223   O     0.04549   0.80936   0.06696   0.00000  Uiso   1.00
O224   O     0.96217   0.57041   0.26182   0.00000  Uiso   1.00
N225   N     0.50742   0.80036   0.56157   0.00000  Uiso   1.00
N226   N     0.14570   0.79511   0.13671   0.00000  Uiso   1.00
N227   N     0.94262   0.48113   0.27554   0.00000  Uiso   1.00
N228   N     0.48411   0.88029   0.57368   0.00000  Uiso   1.00
N229   N     0.12239   0.87504   0.14882   0.00000  Uiso   1.00
N230   N     0.91930   0.56107   0.28766   0.00000  Uiso   1.00
C231   C     0.64154   0.43248   0.88493   0.00000  Uiso   1.00
C232   C     0.61653   0.38031   0.84022   0.00000  Uiso   1.00
C233   C     0.60551   0.37830   0.78980   0.00000  Uiso   1.00
C234   C     0.58257   0.32653   0.75456   0.00000  Uiso   1.00
C235   C     0.54546   0.25282   0.68288   0.00000  Uiso   1.00
C236   C     0.59591   0.44600   0.87779   0.00000  Uiso   1.00
C237   C     0.56757   0.49923   0.85895   0.00000  Uiso   1.00
C238   C     0.52728   0.50277   0.85534   0.00000  Uiso   1.00
C239   C     0.45819   0.53107   0.84203   0.00000  Uiso   1.00
C240   C     0.69767   0.41059   0.95534   0.00000  Uiso   1.00
C241   C     0.75488   0.43405   0.00172   0.00000  Uiso   1.00
C242   C     0.80026   0.40777   0.06341   0.00000  Uiso   1.00
C243   C     0.88917   0.38108   0.17050   0.00000  Uiso   1.00
C244   C     0.12039   0.84412   0.91202   0.00000  Uiso   1.00
C245   C     0.60504   0.33231   0.85494   0.00000  Uiso   1.00
C246   C     0.08212   0.78053   0.81977   0.00000  Uiso   1.00
C247   C     0.57107   0.27844   0.76930   0.00000  Uiso   1.00
C248   C     0.58443   0.39801   0.89250   0.00000  Uiso   1.00
C249   C     0.04417   0.90147   0.88892   0.00000  Uiso   1.00
C250   C     0.51577   0.45469   0.87008   0.00000  Uiso   1.00
C251   C     0.68619   0.36259   0.97005   0.00000  Uiso   1.00
C252   C     0.23149   0.83628   0.03168   0.00000  Uiso   1.00
C253   C     0.28876   0.85969   0.07815   0.00000  Uiso   1.00
H254   H     0.65048   0.46985   0.87347   0.00000  Uiso   1.00
H255   H     0.61440   0.41545   0.77842   0.00000  Uiso   1.00
H256   H     0.57647   0.53637   0.84758   0.00000  Uiso   1.00
H257   H     0.76375   0.47119   0.99031   0.00000  Uiso   1.00
H258   H     0.56932   0.33398   0.67952   0.00000  Uiso   1.00
H259   H     0.48935   0.58895   0.82535   0.00000  Uiso   1.00
H260   H     0.88428   0.45150   0.12634   0.00000  Uiso   1.00
H261   H     0.11145   0.80675   0.92347   0.00000  Uiso   1.00
H262   H     0.07323   0.74339   0.83117   0.00000  Uiso   1.00
H263   H     0.03530   0.86432   0.90031   0.00000  Uiso   1.00
H264   H     0.22258   0.79913   0.04305   0.00000  Uiso   1.00
H265   H     0.03591   0.69433   0.72232   0.00000  Uiso   1.00
H266   H     0.95594   0.94930   0.86815   0.00000  Uiso   1.00
H267   H     0.35086   0.81185   0.16914   0.00000  Uiso   1.00
O268   O     0.52816   0.22543   0.63928   0.00000  Uiso   1.00
O269   O     0.42325   0.55994   0.83061   0.00000  Uiso   1.00
O270   O     0.94139   0.37961   0.22551   0.00000  Uiso   1.00
N271   N     0.56671   0.30980   0.70227   0.00000  Uiso   1.00
N272   N     0.49194   0.54818   0.83860   0.00000  Uiso   1.00
N273   N     0.86116   0.41969   0.12001   0.00000  Uiso   1.00
N274   N     0.04873   0.73466   0.72530   0.00000  Uiso   1.00
N275   N     0.47396   0.47304   0.86163   0.00000  Uiso   1.00
N276   N     0.34318   0.84455   0.14304   0.00000  Uiso   1.00
C277   C     0.21794   0.73550   0.32731   0.00000  Uiso   1.00
C278   C     0.23274   0.79813   0.35205   0.00000  Uiso   1.00
C279   C     0.19843   0.84695   0.31310   0.00000  Uiso   1.00
C280   C     0.21966   0.90040   0.34512   0.00000  Uiso   1.00
C281   C     0.23449   0.99698   0.37311   0.00000  Uiso   1.00
C282   C     0.27218   0.71325   0.35140   0.00000  Uiso   1.00
C283   C     0.27103   0.69069   0.31191   0.00000  Uiso   1.00
C284   C     0.32546   0.67268   0.34339   0.00000  Uiso   1.00
C285   C     0.40153   0.63744   0.37038   0.00000  Uiso   1.00
C286   C     0.21656   0.70068   0.36492   0.00000  Uiso   1.00
C287   C     0.66864   0.16755   0.33680   0.00000  Uiso   1.00
C288   C     0.67624   0.13894   0.37967   0.00000  Uiso   1.00
C289   C     0.66594   0.08419   0.42765   0.00000  Uiso   1.00
C290   C     0.31665   0.74361   0.45345   0.00000  Uiso   1.00
C291   C     0.28636   0.80253   0.42056   0.00000  Uiso   1.00
C292   C     0.30764   0.85592   0.45265   0.00000  Uiso   1.00
C293   C     0.27337   0.90481   0.41376   0.00000  Uiso   1.00
C294   C     0.32580   0.71765   0.41991   0.00000  Uiso   1.00
C295   C     0.38024   0.69966   0.45146   0.00000  Uiso   1.00
C296   C     0.37918   0.67709   0.41203   0.00000  Uiso   1.00
C297   C     0.27017   0.70509   0.43344   0.00000  Uiso   1.00
C298   C     0.77785   0.17652   0.47636   0.00000  Uiso   1.00
C299   C     0.72996   0.14335   0.44831   0.00000  Uiso   1.00
H300   H     0.17620   0.73207   0.27397   0.00000  Uiso   1.00
H301   H     0.15694   0.84353   0.26008   0.00000  Uiso   1.00
H302   H     0.22953   0.68729   0.25889   0.00000  Uiso   1.00
H303   H     0.62715   0.16415   0.28378   0.00000  Uiso   1.00
H304   H     0.15924   0.96903   0.27489   0.00000  Uiso   1.00
H305   H     0.31230   0.63958   0.27239   0.00000  Uiso   1.00
H306   H     0.59642   0.09079   0.32487   0.00000  Uiso   1.00
H307   H     0.35840   0.74704   0.50679   0.00000  Uiso   1.00
H308   H     0.34914   0.85931   0.50567   0.00000  Uiso   1.00
H309   H     0.42173   0.70308   0.50448   0.00000  Uiso   1.00
H310   H     0.81935   0.17994   0.52937   0.00000  Uiso   1.00
H311   H     0.31524   0.98185   0.47422   0.00000  Uiso   1.00
H312   H     0.46829   0.65239   0.47172   0.00000  Uiso   1.00
H313   H     0.75241   0.10360   0.52420   0.00000  Uiso   1.00
O314   O     0.22787   0.04903   0.36961   0.00000  Uiso   1.00
O315   O     0.92867   0.11679   0.36633   0.00000  Uiso   1.00
O316   O     0.64544   0.05278   0.43519   0.00000  Uiso   1.00
N317   N     0.19722   0.95664   0.32195   0.00000  Uiso   1.00
N318   N     0.34032   0.64863   0.31962   0.00000  Uiso   1.00
N319   N     0.63850   0.10300   0.36868   0.00000  Uiso   1.00
N320   N     0.28116   0.96354   0.42921   0.00000  Uiso   1.00
N321   N     0.42426   0.65553   0.42687   0.00000  Uiso   1.00
N322   N     0.72243   0.10989   0.47594   0.00000  Uiso   1.00
C323   C     0.13267   0.35184   0.17643   0.00000  Uiso   1.00
C324   C     0.09975   0.35719   0.10787   0.00000  Uiso   1.00
C325   C     0.05909   0.31716   0.05698   0.00000  Uiso   1.00
C326   C     0.03382   0.33000   0.99801   0.00000  Uiso   1.00
C327   C     0.98047   0.33053   0.89275   0.00000  Uiso   1.00
C328   C     0.19944   0.35574   0.22496   0.00000  Uiso   1.00
C329   C     0.24260   0.31449   0.27252   0.00000  Uiso   1.00
C330   C     0.30126   0.32612   0.31212   0.00000  Uiso   1.00
C331   C     0.40268   0.32441   0.38868   0.00000  Uiso   1.00
C332   C     0.11760   0.40700   0.18669   0.00000  Uiso   1.00
C333   C     0.09197   0.40886   0.20209   0.00000  Uiso   1.00
C334   C     0.58173   0.96366   0.20947   0.00000  Uiso   1.00
C335   C     0.55609   0.04155   0.22660   0.00000  Uiso   1.00
C336   C     0.16008   0.44584   0.16219   0.00000  Uiso   1.00
C337   C     0.11464   0.40825   0.10014   0.00000  Uiso   1.00
C338   C     0.08943   0.42116   0.04123   0.00000  Uiso   1.00
C339   C     0.04874   0.38115   0.99026   0.00000  Uiso   1.00
C340   C     0.21434   0.40679   0.21723   0.00000  Uiso   1.00
C341   C     0.27294   0.41849   0.25677   0.00000  Uiso   1.00
C342   C     0.31618   0.37727   0.30437   0.00000  Uiso   1.00
C343   C     0.13249   0.45806   0.17895   0.00000  Uiso   1.00
C344   C     0.62230   0.01286   0.18632   0.00000  Uiso   1.00
C345   C     0.59665   0.01481   0.20173   0.00000  Uiso   1.00
H346   H     0.12108   0.31209   0.18245   0.00000  Uiso   1.00
H347   H     0.04758   0.27765   0.06299   0.00000  Uiso   1.00
H348   H     0.23107   0.27499   0.27850   0.00000  Uiso   1.00
H349   H     0.08045   0.36934   0.20807   0.00000  Uiso   1.00
H350   H     0.97269   0.26197   0.92714   0.00000  Uiso   1.00
H351   H     0.35957   0.25636   0.38157   0.00000  Uiso   1.00
H352   H     0.54198   0.95534   0.23306   0.00000  Uiso   1.00
H353   H     0.17168   0.48559   0.15617   0.00000  Uiso   1.00
H354   H     0.10096   0.46067   0.03526   0.00000  Uiso   1.00
H355   H     0.28445   0.45800   0.25077   0.00000  Uiso   1.00
H356   H     0.63383   0.05236   0.18034   0.00000  Uiso   1.00
H357   H     0.01601   0.41052   0.90463   0.00000  Uiso   1.00
H358   H     0.40290   0.40491   0.35907   0.00000  Uiso   1.00
H359   H     0.58530   0.10388   0.21055   0.00000  Uiso   1.00
O360   O     0.94693   0.31671   0.83683   0.00000  Uiso   1.00
O361   O     0.45451   0.30936   0.43304   0.00000  Uiso   1.00
O362   O     0.53783   0.07041   0.23818   0.00000  Uiso   1.00
N363   N     0.99258   0.30036   0.93843   0.00000  Uiso   1.00
N364   N     0.35430   0.29511   0.36329   0.00000  Uiso   1.00
N365   N     0.55738   0.98113   0.22446   0.00000  Uiso   1.00
N366   N     0.01589   0.38029   0.92632   0.00000  Uiso   1.00
N367   N     0.37761   0.37504   0.35118   0.00000  Uiso   1.00
N368   N     0.58070   0.06107   0.21234   0.00000  Uiso   1.00
C369   C     0.85846   0.93248   0.61507   0.00000  Uiso   1.00
C370   C     0.88347   0.88031   0.65978   0.00000  Uiso   1.00
C371   C     0.89449   0.87830   0.71020   0.00000  Uiso   1.00
C372   C     0.91743   0.82653   0.74544   0.00000  Uiso   1.00
C373   C     0.95454   0.75282   0.81712   0.00000  Uiso   1.00
C374   C     0.90409   0.94600   0.62221   0.00000  Uiso   1.00
C375   C     0.93243   0.99923   0.64105   0.00000  Uiso   1.00
C376   C     0.97272   0.00277   0.64466   0.00000  Uiso   1.00
C377   C     0.04181   0.03107   0.65797   0.00000  Uiso   1.00
C378   C     0.80233   0.91059   0.54466   0.00000  Uiso   1.00
C379   C     0.74512   0.93405   0.49828   0.00000  Uiso   1.00
C380   C     0.69974   0.90777   0.43659   0.00000  Uiso   1.00
C381   C     0.61083   0.88108   0.32950   0.00000  Uiso   1.00
C382   C     0.37961   0.34412   0.58798   0.00000  Uiso   1.00
C383   C     0.89496   0.83231   0.64506   0.00000  Uiso   1.00
C384   C     0.41788   0.28053   0.68023   0.00000  Uiso   1.00
C385   C     0.92893   0.77844   0.73070   0.00000  Uiso   1.00
C386   C     0.91557   0.89801   0.60750   0.00000  Uiso   1.00
C387   C     0.45583   0.40147   0.61108   0.00000  Uiso   1.00
C388   C     0.98423   0.95469   0.62992   0.00000  Uiso   1.00
C389   C     0.81381   0.86259   0.52995   0.00000  Uiso   1.00
C390   C     0.26851   0.33628   0.46832   0.00000  Uiso   1.00
C391   C     0.21124   0.35969   0.42185   0.00000  Uiso   1.00
H392   H     0.84952   0.96985   0.62653   0.00000  Uiso   1.00
H393   H     0.88560   0.91545   0.72158   0.00000  Uiso   1.00
H394   H     0.92353   0.03637   0.65242   0.00000  Uiso   1.00
H395   H     0.73625   0.97119   0.50969   0.00000  Uiso   1.00
H396   H     0.93068   0.83398   0.82048   0.00000  Uiso   1.00
H397   H     0.01065   0.08895   0.67465   0.00000  Uiso   1.00
H398   H     0.61572   0.95150   0.37366   0.00000  Uiso   1.00
H399   H     0.38855   0.30675   0.57653   0.00000  Uiso   1.00
H400   H     0.42677   0.24339   0.66883   0.00000  Uiso   1.00
H401   H     0.46470   0.36432   0.59969   0.00000  Uiso   1.00
H402   H     0.27742   0.29913   0.45695   0.00000  Uiso   1.00
H403   H     0.46409   0.19433   0.77768   0.00000  Uiso   1.00
H404   H     0.54406   0.44930   0.63185   0.00000  Uiso   1.00
H405   H     0.14914   0.31185   0.33086   0.00000  Uiso   1.00
O406   O     0.97184   0.72543   0.86072   0.00000  Uiso   1.00
O407   O     0.07675   0.05994   0.66939   0.00000  Uiso   1.00
O408   O     0.55861   0.87961   0.27449   0.00000  Uiso   1.00
N409   N     0.93329   0.80980   0.79773   0.00000  Uiso   1.00
N410   N     0.00806   0.04818   0.66140   0.00000  Uiso   1.00
N411   N     0.63884   0.91969   0.37999   0.00000  Uiso   1.00
N412   N     0.45127   0.23466   0.77470   0.00000  Uiso   1.00
N413   N     0.02604   0.97304   0.63837   0.00000  Uiso   1.00
N414   N     0.15682   0.34455   0.35696   0.00000  Uiso   1.00
C415   C     0.71794   0.23550   0.32731   0.00000  Uiso   1.00
C416   C     0.73274   0.29813   0.35205   0.00000  Uiso   1.00
C417   C     0.69843   0.34695   0.31310   0.00000  Uiso   1.00
C418   C     0.71966   0.40040   0.34512   0.00000  Uiso   1.00
C419   C     0.73449   0.49698   0.37311   0.00000  Uiso   1.00
C420   C     0.77218   0.21325   0.35140   0.00000  Uiso   1.00
C421   C     0.77103   0.19069   0.31191   0.00000  Uiso   1.00
C422   C     0.82546   0.17268   0.34339   0.00000  Uiso   1.00
C423   C     0.90153   0.13744   0.37038   0.00000  Uiso   1.00
C424   C     0.71656   0.20068   0.36492   0.00000  Uiso   1.00
C425   C     0.16864   0.66755   0.33680   0.00000  Uiso   1.00
C426   C     0.17624   0.63894   0.37967   0.00000  Uiso   1.00
C427   C     0.16594   0.58419   0.42765   0.00000  Uiso   1.00
C428   C     0.81665   0.24361   0.45345   0.00000  Uiso   1.00
C429   C     0.78636   0.30253   0.42056   0.00000  Uiso   1.00
C430   C     0.80764   0.35592   0.45265   0.00000  Uiso   1.00
C431   C     0.77337   0.40481   0.41376   0.00000  Uiso   1.00
C432   C     0.82580   0.21765   0.41991   0.00000  Uiso   1.00
C433   C     0.88024   0.19966   0.45146   0.00000  Uiso   1.00
C434   C     0.87918   0.17709   0.41203   0.00000  Uiso   1.00
C435   C     0.77017   0.20509   0.43344   0.00000  Uiso   1.00
C436   C     0.27785   0.67652   0.47636   0.00000  Uiso   1.00
C437   C     0.22996   0.64335   0.44831   0.00000  Uiso   1.00
H438   H     0.67620   0.23207   0.27397   0.00000  Uiso   1.00
H439   H     0.65694   0.34353   0.26008   0.00000  Uiso   1.00
H440   H     0.72953   0.18729   0.25889   0.00000  Uiso   1.00
H441   H     0.12715   0.66415   0.28378   0.00000  Uiso   1.00
H442   H     0.65924   0.46903   0.27489   0.00000  Uiso   1.00
H443   H     0.81230   0.13958   0.27239   0.00000  Uiso   1.00
H444   H     0.09642   0.59079   0.32487   0.00000  Uiso   1.00
H445   H     0.85840   0.24704   0.50679   0.00000  Uiso   1.00
H446   H     0.84914   0.35931   0.50567   0.00000  Uiso   1.00
H447   H     0.92173   0.20308   0.50448   0.00000  Uiso   1.00
H448   H     0.31935   0.67994   0.52937   0.00000  Uiso   1.00
H449   H     0.81524   0.48185   0.47422   0.00000  Uiso   1.00
H450   H     0.96829   0.15239   0.47172   0.00000  Uiso   1.00
H451   H     0.25241   0.60360   0.52420   0.00000  Uiso   1.00
O452   O     0.72787   0.54903   0.36961   0.00000  Uiso   1.00
O453   O     0.42867   0.61679   0.36633   0.00000  Uiso   1.00
O454   O     0.14544   0.55278   0.43519   0.00000  Uiso   1.00
N455   N     0.69722   0.45664   0.32195   0.00000  Uiso   1.00
N456   N     0.84032   0.14863   0.31962   0.00000  Uiso   1.00
N457   N     0.13850   0.60300   0.36868   0.00000  Uiso   1.00
N458   N     0.78116   0.46354   0.42921   0.00000  Uiso   1.00
N459   N     0.92426   0.15553   0.42687   0.00000  Uiso   1.00
N460   N     0.22243   0.60989   0.47594   0.00000  Uiso   1.00
C461   C     0.63267   0.85184   0.17643   0.00000  Uiso   1.00
C462   C     0.59975   0.85719   0.10787   0.00000  Uiso   1.00
C463   C     0.55909   0.81716   0.05698   0.00000  Uiso   1.00
C464   C     0.53382   0.83000   0.99801   0.00000  Uiso   1.00
C465   C     0.48047   0.83053   0.89275   0.00000  Uiso   1.00
C466   C     0.69944   0.85574   0.22496   0.00000  Uiso   1.00
C467   C     0.74260   0.81449   0.27252   0.00000  Uiso   1.00
C468   C     0.80126   0.82612   0.31212   0.00000  Uiso   1.00
C469   C     0.90268   0.82441   0.38868   0.00000  Uiso   1.00
C470   C     0.61760   0.90700   0.18669   0.00000  Uiso   1.00
C471   C     0.59197   0.90886   0.20209   0.00000  Uiso   1.00
C472   C     0.08173   0.46366   0.20947   0.00000  Uiso   1.00
C473   C     0.05609   0.54155   0.22660   0.00000  Uiso   1.00
C474   C     0.66008   0.94584   0.16219   0.00000  Uiso   1.00
C475   C     0.61464   0.90825   0.10014   0.00000  Uiso   1.00
C476   C     0.58943   0.92116   0.04123   0.00000  Uiso   1.00
C477   C     0.54874   0.88115   0.99026   0.00000  Uiso   1.00
C478   C     0.71434   0.90679   0.21723   0.00000  Uiso   1.00
C479   C     0.77294   0.91849   0.25677   0.00000  Uiso   1.00
C480   C     0.81618   0.87727   0.30437   0.00000  Uiso   1.00
C481   C     0.63249   0.95806   0.17895   0.00000  Uiso   1.00
C482   C     0.12230   0.51286   0.18632   0.00000  Uiso   1.00
C483   C     0.09665   0.51481   0.20173   0.00000  Uiso   1.00
H484   H     0.62108   0.81209   0.18245   0.00000  Uiso   1.00
H485   H     0.54758   0.77765   0.06299   0.00000  Uiso   1.00
H486   H     0.73107   0.77499   0.27850   0.00000  Uiso   1.00
H487   H     0.58045   0.86934   0.20807   0.00000  Uiso   1.00
H488   H     0.47269   0.76197   0.92714   0.00000  Uiso   1.00
H489   H     0.85957   0.75636   0.38157   0.00000  Uiso   1.00
H490   H     0.04198   0.45534   0.23306   0.00000  Uiso   1.00
H491   H     0.67168   0.98559   0.15617   0.00000  Uiso   1.00
H492   H     0.60096   0.96067   0.03526   0.00000  Uiso   1.00
H493   H     0.78445   0.95800   0.25077   0.00000  Uiso   1.00
H494   H     0.13383   0.55236   0.18034   0.00000  Uiso   1.00
H495   H     0.51601   0.91052   0.90463   0.00000  Uiso   1.00
H496   H     0.90290   0.90491   0.35907   0.00000  Uiso   1.00
H497   H     0.08530   0.60388   0.21055   0.00000  Uiso   1.00
O498   O     0.44693   0.81671   0.83683   0.00000  Uiso   1.00
O499   O     0.95451   0.80936   0.43304   0.00000  Uiso   1.00
O500   O     0.03783   0.57041   0.23818   0.00000  Uiso   1.00
N501   N     0.49258   0.80036   0.93843   0.00000  Uiso   1.00
N502   N     0.85430   0.79511   0.36329   0.00000  Uiso   1.00
N503   N     0.05738   0.48113   0.22446   0.00000  Uiso   1.00
N504   N     0.51589   0.88029   0.92632   0.00000  Uiso   1.00
N505   N     0.87761   0.87504   0.35118   0.00000  Uiso   1.00
N506   N     0.08070   0.56107   0.21234   0.00000  Uiso   1.00
C507   C     0.35846   0.43248   0.61507   0.00000  Uiso   1.00
C508   C     0.38347   0.38031   0.65978   0.00000  Uiso   1.00
C509   C     0.39449   0.37830   0.71020   0.00000  Uiso   1.00
C510   C     0.41743   0.32653   0.74544   0.00000  Uiso   1.00
C511   C     0.45454   0.25282   0.81712   0.00000  Uiso   1.00
C512   C     0.40409   0.44600   0.62221   0.00000  Uiso   1.00
C513   C     0.43243   0.49923   0.64105   0.00000  Uiso   1.00
C514   C     0.47272   0.50277   0.64466   0.00000  Uiso   1.00
C515   C     0.54181   0.53107   0.65797   0.00000  Uiso   1.00
C516   C     0.30233   0.41059   0.54466   0.00000  Uiso   1.00
C517   C     0.24512   0.43405   0.49828   0.00000  Uiso   1.00
C518   C     0.19974   0.40777   0.43659   0.00000  Uiso   1.00
C519   C     0.11083   0.38108   0.32950   0.00000  Uiso   1.00
C520   C     0.87961   0.84412   0.58798   0.00000  Uiso   1.00
C521   C     0.39496   0.33231   0.64506   0.00000  Uiso   1.00
C522   C     0.91788   0.78053   0.68023   0.00000  Uiso   1.00
C523   C     0.42893   0.27844   0.73070   0.00000  Uiso   1.00
C524   C     0.41557   0.39801   0.60750   0.00000  Uiso   1.00
C525   C     0.95583   0.90147   0.61108   0.00000  Uiso   1.00
C526   C     0.48423   0.45469   0.62992   0.00000  Uiso   1.00
C527   C     0.31381   0.36259   0.52995   0.00000  Uiso   1.00
C528   C     0.76851   0.83628   0.46832   0.00000  Uiso   1.00
C529   C     0.71124   0.85969   0.42185   0.00000  Uiso   1.00
H530   H     0.34952   0.46985   0.62653   0.00000  Uiso   1.00
H531   H     0.38560   0.41545   0.72158   0.00000  Uiso   1.00
H532   H     0.42353   0.53637   0.65242   0.00000  Uiso   1.00
H533   H     0.23625   0.47119   0.50969   0.00000  Uiso   1.00
H534   H     0.43068   0.33398   0.82048   0.00000  Uiso   1.00
H535   H     0.51065   0.58895   0.67465   0.00000  Uiso   1.00
H536   H     0.11572   0.45150   0.37366   0.00000  Uiso   1.00
H537   H     0.88855   0.80675   0.57653   0.00000  Uiso   1.00
H538   H     0.92677   0.74339   0.66883   0.00000  Uiso   1.00
H539   H     0.96470   0.86432   0.59969   0.00000  Uiso   1.00
H540   H     0.77742   0.79913   0.45695   0.00000  Uiso   1.00
H541   H     0.96409   0.69433   0.77768   0.00000  Uiso   1.00
H542   H     0.04406   0.94930   0.63185   0.00000  Uiso   1.00
H543   H     0.64914   0.81185   0.33086   0.00000  Uiso   1.00
O544   O     0.47184   0.22543   0.86072   0.00000  Uiso   1.00
O545   O     0.57675   0.55994   0.66939   0.00000  Uiso   1.00
O546   O     0.05861   0.37961   0.27449   0.00000  Uiso   1.00
N547   N     0.43329   0.30980   0.79773   0.00000  Uiso   1.00
N548   N     0.50806   0.54818   0.66140   0.00000  Uiso   1.00
N549   N     0.13884   0.41969   0.37999   0.00000  Uiso   1.00
N550   N     0.95127   0.73466   0.77470   0.00000  Uiso   1.00
N551   N     0.52604   0.47304   0.63837   0.00000  Uiso   1.00
N552   N     0.65682   0.84455   0.35696   0.00000  Uiso   1.00
C553   C     0.21794   0.26450   0.82731   0.00000  Uiso   1.00
C554   C     0.23274   0.20187   0.85205   0.00000  Uiso   1.00
C555   C     0.19843   0.15305   0.81310   0.00000  Uiso   1.00
C556   C     0.21966   0.09960   0.84512   0.00000  Uiso   1.00
C557   C     0.23449   0.00302   0.87311   0.00000  Uiso   1.00
C558   C     0.27218   0.28675   0.85140   0.00000  Uiso   1.00
C559   C     0.27103   0.30931   0.81191   0.00000  Uiso   1.00
C560   C     0.32546   0.32732   0.84339   0.00000  Uiso   1.00
C561   C     0.40153   0.36256   0.87038   0.00000  Uiso   1.00
C562   C     0.21656   0.29932   0.86492   0.00000  Uiso   1.00
C563   C     0.66864   0.83245   0.83680   0.00000  Uiso   1.00
C564   C     0.67624   0.86106   0.87967   0.00000  Uiso   1.00
C565   C     0.66594   0.91581   0.92765   0.00000  Uiso   1.00
C566   C     0.31665   0.25639   0.95345   0.00000  Uiso   1.00
C567   C     0.28636   0.19747   0.92056   0.00000  Uiso   1.00
C568   C     0.30764   0.14408   0.95265   0.00000  Uiso   1.00
C569   C     0.27337   0.09519   0.91376   0.00000  Uiso   1.00
C570   C     0.32580   0.28235   0.91991   0.00000  Uiso   1.00
C571   C     0.38024   0.30034   0.95146   0.00000  Uiso   1.00
C572   C     0.37918   0.32291   0.91203   0.00000  Uiso   1.00
C573   C     0.27017   0.29491   0.93344   0.00000  Uiso   1.00
C574   C     0.77785   0.82348   0.97636   0.00000  Uiso   1.00
C575   C     0.72996   0.85665   0.94831   0.00000  Uiso   1.00
H576   H     0.17620   0.26793   0.77397   0.00000  Uiso   1.00
H577   H     0.15694   0.15647   0.76008   0.00000  Uiso   1.00
H578   H     0.22953   0.31271   0.75889   0.00000  Uiso   1.00
H579   H     0.62715   0.83585   0.78378   0.00000  Uiso   1.00
H580   H     0.15924   0.03097   0.77489   0.00000  Uiso   1.00
H581   H     0.31230   0.36042   0.77239   0.00000  Uiso   1.00
H582   H     0.59642   0.90921   0.82487   0.00000  Uiso   1.00
H583   H     0.35840   0.25296   0.00679   0.00000  Uiso   1.00
H584   H     0.34914   0.14069   0.00567   0.00000  Uiso   1.00
H585   H     0.42173   0.29692   0.00448   0.00000  Uiso   1.00
H586   H     0.81935   0.82006   0.02937   0.00000  Uiso   1.00
H587   H     0.31524   0.01815   0.97422   0.00000  Uiso   1.00
H588   H     0.46829   0.34761   0.97172   0.00000  Uiso   1.00
H589   H     0.75241   0.89640   0.02420   0.00000  Uiso   1.00
O590   O     0.22787   0.95097   0.86961   0.00000  Uiso   1.00
O591   O     0.92867   0.88321   0.86633   0.00000  Uiso   1.00
O592   O     0.64544   0.94722   0.93519   0.00000  Uiso   1.00
N593   N     0.19722   0.04336   0.82195   0.00000  Uiso   1.00
N594   N     0.34032   0.35137   0.81962   0.00000  Uiso   1.00
N595   N     0.63850   0.89700   0.86868   0.00000  Uiso   1.00
N596   N     0.28116   0.03646   0.92921   0.00000  Uiso   1.00
N597   N     0.42426   0.34447   0.92687   0.00000  Uiso   1.00
N598   N     0.72243   0.89011   0.97594   0.00000  Uiso   1.00
C599   C     0.13267   0.64816   0.67643   0.00000  Uiso   1.00
C600   C     0.09975   0.64281   0.60787   0.00000  Uiso   1.00
C601   C     0.05909   0.68284   0.55698   0.00000  Uiso   1.00
C602   C     0.03382   0.67000   0.49801   0.00000  Uiso   1.00
C603   C     0.98047   0.66947   0.39275   0.00000  Uiso   1.00
C604   C     0.19944   0.64426   0.72496   0.00000  Uiso   1.00
C605   C     0.24260   0.68551   0.77252   0.00000  Uiso   1.00
C606   C     0.30126   0.67388   0.81212   0.00000  Uiso   1.00
C607   C     0.40268   0.67559   0.88868   0.00000  Uiso   1.00
C608   C     0.11760   0.59300   0.68669   0.00000  Uiso   1.00
C609   C     0.09197   0.59114   0.70209   0.00000  Uiso   1.00
C610   C     0.58173   0.03634   0.70947   0.00000  Uiso   1.00
C611   C     0.55609   0.95845   0.72660   0.00000  Uiso   1.00
C612   C     0.16008   0.55416   0.66219   0.00000  Uiso   1.00
C613   C     0.11464   0.59175   0.60014   0.00000  Uiso   1.00
C614   C     0.08943   0.57884   0.54123   0.00000  Uiso   1.00
C615   C     0.04874   0.61885   0.49026   0.00000  Uiso   1.00
C616   C     0.21434   0.59321   0.71723   0.00000  Uiso   1.00
C617   C     0.27294   0.58151   0.75677   0.00000  Uiso   1.00
C618   C     0.31618   0.62273   0.80437   0.00000  Uiso   1.00
C619   C     0.13249   0.54194   0.67895   0.00000  Uiso   1.00
C620   C     0.62230   0.98714   0.68632   0.00000  Uiso   1.00
C621   C     0.59665   0.98519   0.70173   0.00000  Uiso   1.00
H622   H     0.12108   0.68791   0.68245   0.00000  Uiso   1.00
H623   H     0.04758   0.72235   0.56299   0.00000  Uiso   1.00
H624   H     0.23107   0.72501   0.77850   0.00000  Uiso   1.00
H625   H     0.08045   0.63066   0.70807   0.00000  Uiso   1.00
H626   H     0.97269   0.73803   0.42714   0.00000  Uiso   1.00
H627   H     0.35957   0.74364   0.88157   0.00000  Uiso   1.00
H628   H     0.54198   0.04466   0.73306   0.00000  Uiso   1.00
H629   H     0.17168   0.51441   0.65617   0.00000  Uiso   1.00
H630   H     0.10096   0.53933   0.53526   0.00000  Uiso   1.00
H631   H     0.28445   0.54200   0.75077   0.00000  Uiso   1.00
H632   H     0.63383   0.94764   0.68034   0.00000  Uiso   1.00
H633   H     0.01601   0.58948   0.40463   0.00000  Uiso   1.00
H634   H     0.40290   0.59509   0.85907   0.00000  Uiso   1.00
H635   H     0.58530   0.89612   0.71055   0.00000  Uiso   1.00
O636   O     0.94693   0.68329   0.33683   0.00000  Uiso   1.00
O637   O     0.45451   0.69064   0.93304   0.00000  Uiso   1.00
O638   O     0.53783   0.92959   0.73818   0.00000  Uiso   1.00
N639   N     0.99258   0.69964   0.43843   0.00000  Uiso   1.00
N640   N     0.35430   0.70489   0.86329   0.00000  Uiso   1.00
N641   N     0.55738   0.01887   0.72446   0.00000  Uiso   1.00
N642   N     0.01589   0.61971   0.42632   0.00000  Uiso   1.00
N643   N     0.37761   0.62496   0.85118   0.00000  Uiso   1.00
N644   N     0.58070   0.93893   0.71234   0.00000  Uiso   1.00
C645   C     0.85846   0.06752   0.11507   0.00000  Uiso   1.00
C646   C     0.88347   0.11969   0.15978   0.00000  Uiso   1.00
C647   C     0.89449   0.12170   0.21020   0.00000  Uiso   1.00
C648   C     0.91743   0.17347   0.24544   0.00000  Uiso   1.00
C649   C     0.95454   0.24718   0.31712   0.00000  Uiso   1.00
C650   C     0.90409   0.05400   0.12221   0.00000  Uiso   1.00
C651   C     0.93243   0.00077   0.14105   0.00000  Uiso   1.00
C652   C     0.97272   0.99723   0.14466   0.00000  Uiso   1.00
C653   C     0.04181   0.96893   0.15797   0.00000  Uiso   1.00
C654   C     0.80233   0.08941   0.04466   0.00000  Uiso   1.00
C655   C     0.74512   0.06595   0.99828   0.00000  Uiso   1.00
C656   C     0.69974   0.09223   0.93659   0.00000  Uiso   1.00
C657   C     0.61083   0.11892   0.82950   0.00000  Uiso   1.00
C658   C     0.37961   0.65588   0.08798   0.00000  Uiso   1.00
C659   C     0.89496   0.16769   0.14506   0.00000  Uiso   1.00
C660   C     0.41788   0.71947   0.18023   0.00000  Uiso   1.00
C661   C     0.92893   0.22156   0.23070   0.00000  Uiso   1.00
C662   C     0.91557   0.10199   0.10750   0.00000  Uiso   1.00
C663   C     0.45583   0.59853   0.11108   0.00000  Uiso   1.00
C664   C     0.98423   0.04531   0.12992   0.00000  Uiso   1.00
C665   C     0.81381   0.13741   0.02995   0.00000  Uiso   1.00
C666   C     0.26851   0.66372   0.96832   0.00000  Uiso   1.00
C667   C     0.21124   0.64031   0.92185   0.00000  Uiso   1.00
H668   H     0.84952   0.03015   0.12653   0.00000  Uiso   1.00
H669   H     0.88560   0.08455   0.22158   0.00000  Uiso   1.00
H670   H     0.92353   0.96363   0.15242   0.00000  Uiso   1.00
H671   H     0.73625   0.02881   0.00969   0.00000  Uiso   1.00
H672   H     0.93068   0.16602   0.32048   0.00000  Uiso   1.00
H673   H     0.01065   0.91105   0.17465   0.00000  Uiso   1.00
H674   H     0.61572   0.04850   0.87366   0.00000  Uiso   1.00
H675   H     0.38855   0.69325   0.07653   0.00000  Uiso   1.00
H676   H     0.42677   0.75661   0.16883   0.00000  Uiso   1.00
H677   H     0.46470   0.63568   0.09969   0.00000  Uiso   1.00
H678   H     0.27742   0.70087   0.95695   0.00000  Uiso   1.00
H679   H     0.46409   0.80567   0.27768   0.00000  Uiso   1.00
H680   H     0.54406   0.55070   0.13185   0.00000  Uiso   1.00
H681   H     0.14914   0.68815   0.83086   0.00000  Uiso   1.00
O682   O     0.97184   0.27457   0.36072   0.00000  Uiso   1.00
O683   O     0.07675   0.94006   0.16939   0.00000  Uiso   1.00
O684   O     0.55861   0.12039   0.77449   0.00000  Uiso   1.00
N685   N     0.93329   0.19020   0.29773   0.00000  Uiso   1.00
N686   N     0.00806   0.95182   0.16140   0.00000  Uiso   1.00
N687   N     0.63884   0.08031   0.87999   0.00000  Uiso   1.00
N688   N     0.45127   0.76534   0.27470   0.00000  Uiso   1.00
N689   N     0.02604   0.02696   0.13837   0.00000  Uiso   1.00
N690   N     0.15682   0.65545   0.85696   0.00000  Uiso   1.00
C691   C     0.71794   0.76450   0.82731   0.00000  Uiso   1.00
C692   C     0.73274   0.70187   0.85205   0.00000  Uiso   1.00
C693   C     0.69843   0.65305   0.81310   0.00000  Uiso   1.00
C694   C     0.71966   0.59960   0.84512   0.00000  Uiso   1.00
C695   C     0.73449   0.50302   0.87311   0.00000  Uiso   1.00
C696   C     0.77218   0.78675   0.85140   0.00000  Uiso   1.00
C697   C     0.77103   0.80931   0.81191   0.00000  Uiso   1.00
C698   C     0.82546   0.82732   0.84339   0.00000  Uiso   1.00
C699   C     0.90153   0.86256   0.87038   0.00000  Uiso   1.00
C700   C     0.71656   0.79932   0.86492   0.00000  Uiso   1.00
C701   C     0.16864   0.33245   0.83680   0.00000  Uiso   1.00
C702   C     0.17624   0.36106   0.87967   0.00000  Uiso   1.00
C703   C     0.16594   0.41581   0.92765   0.00000  Uiso   1.00
C704   C     0.81665   0.75639   0.95345   0.00000  Uiso   1.00
C705   C     0.78636   0.69747   0.92056   0.00000  Uiso   1.00
C706   C     0.80764   0.64408   0.95265   0.00000  Uiso   1.00
C707   C     0.77337   0.59519   0.91376   0.00000  Uiso   1.00
C708   C     0.82580   0.78235   0.91991   0.00000  Uiso   1.00
C709   C     0.88024   0.80034   0.95146   0.00000  Uiso   1.00
C710   C     0.87918   0.82291   0.91203   0.00000  Uiso   1.00
C711   C     0.77017   0.79491   0.93344   0.00000  Uiso   1.00
C712   C     0.27785   0.32348   0.97636   0.00000  Uiso   1.00
C713   C     0.22996   0.35665   0.94831   0.00000  Uiso   1.00
H714   H     0.67620   0.76793   0.77397   0.00000  Uiso   1.00
H715   H     0.65694   0.65647   0.76008   0.00000  Uiso   1.00
H716   H     0.72953   0.81271   0.75889   0.00000  Uiso   1.00
H717   H     0.12715   0.33585   0.78378   0.00000  Uiso   1.00
H718   H     0.65924   0.53097   0.77489   0.00000  Uiso   1.00
H719   H     0.81230   0.86042   0.77239   0.00000  Uiso   1.00
H720   H     0.09642   0.40921   0.82487   0.00000  Uiso   1.00
H721   H     0.85840   0.75296   0.00679   0.00000  Uiso   1.00
H722   H     0.84914   0.64069   0.00567   0.00000  Uiso   1.00
H723   H     0.92173   0.79692   0.00448   0.00000  Uiso   1.00
H724   H     0.31935   0.32006   0.02937   0.00000  Uiso   1.00
H725   H     0.81524   0.51815   0.97422   0.00000  Uiso   1.00
H726   H     0.96829   0.84761   0.97172   0.00000  Uiso   1.00
H727   H     0.25241   0.39640   0.02420   0.00000  Uiso   1.00
O728   O     0.72787   0.45097   0.86961   0.00000  Uiso   1.00
O729   O     0.42867   0.38321   0.86633   0.00000  Uiso   1.00
O730   O     0.14544   0.44722   0.93519   0.00000  Uiso   1.00
N731   N     0.69722   0.54336   0.82195   0.00000  Uiso   1.00
N732   N     0.84032   0.85137   0.81962   0.00000  Uiso   1.00
N733   N     0.13850   0.39700   0.86868   0.00000  Uiso   1.00
N734   N     0.78116   0.53646   0.92921   0.00000  Uiso   1.00
N735   N     0.92426   0.84447   0.92687   0.00000  Uiso   1.00
N736   N     0.22243   0.39011   0.97594   0.00000  Uiso   1.00
C737   C     0.63267   0.14816   0.67643   0.00000  Uiso   1.00
C738   C     0.59975   0.14281   0.60787   0.00000  Uiso   1.00
C739   C     0.55909   0.18284   0.55698   0.00000  Uiso   1.00
C740   C     0.53382   0.17000   0.49801   0.00000  Uiso   1.00
C741   C     0.48047   0.16947   0.39275   0.00000  Uiso   1.00
C742   C     0.69944   0.14426   0.72496   0.00000  Uiso   1.00
C743   C     0.74260   0.18551   0.77252   0.00000  Uiso   1.00
C744   C     0.80126   0.17388   0.81212   0.00000  Uiso   1.00
C745   C     0.90268   0.17559   0.88868   0.00000  Uiso   1.00
C746   C     0.61760   0.09300   0.68669   0.00000  Uiso   1.00
C747   C     0.59197   0.09114   0.70209   0.00000  Uiso   1.00
C748   C     0.08173   0.53634   0.70947   0.00000  Uiso   1.00
C749   C     0.05609   0.45845   0.72660   0.00000  Uiso   1.00
C750   C     0.66008   0.05416   0.66219   0.00000  Uiso   1.00
C751   C     0.61464   0.09175   0.60014   0.00000  Uiso   1.00
C752   C     0.58943   0.07884   0.54123   0.00000  Uiso   1.00
C753   C     0.54874   0.11885   0.49026   0.00000  Uiso   1.00
C754   C     0.71434   0.09321   0.71723   0.00000  Uiso   1.00
C755   C     0.77294   0.08151   0.75677   0.00000  Uiso   1.00
C756   C     0.81618   0.12273   0.80437   0.00000  Uiso   1.00
C757   C     0.63249   0.04194   0.67895   0.00000  Uiso   1.00
C758   C     0.12230   0.48714   0.68632   0.00000  Uiso   1.00
C759   C     0.09665   0.48519   0.70173   0.00000  Uiso   1.00
H760   H     0.62108   0.18791   0.68245   0.00000  Uiso   1.00
H761   H     0.54758   0.22235   0.56299   0.00000  Uiso   1.00
H762   H     0.73107   0.22501   0.77850   0.00000  Uiso   1.00
H763   H     0.58045   0.13066   0.70807   0.00000  Uiso   1.00
H764   H     0.47269   0.23803   0.42714   0.00000  Uiso   1.00
H765   H     0.85957   0.24364   0.88157   0.00000  Uiso   1.00
H766   H     0.04198   0.54466   0.73306   0.00000  Uiso   1.00
H767   H     0.67168   0.01441   0.65617   0.00000  Uiso   1.00
H768   H     0.60096   0.03933   0.53526   0.00000  Uiso   1.00
H769   H     0.78445   0.04200   0.75077   0.00000  Uiso   1.00
H770   H     0.13383   0.44764   0.68034   0.00000  Uiso   1.00
H771   H     0.51601   0.08948   0.40463   0.00000  Uiso   1.00
H772   H     0.90290   0.09509   0.85907   0.00000  Uiso   1.00
H773   H     0.08530   0.39612   0.71055   0.00000  Uiso   1.00
O774   O     0.44693   0.18329   0.33683   0.00000  Uiso   1.00
O775   O     0.95451   0.19064   0.93304   0.00000  Uiso   1.00
O776   O     0.03783   0.42959   0.73818   0.00000  Uiso   1.00
N777   N     0.49258   0.19964   0.43843   0.00000  Uiso   1.00
N778   N     0.85430   0.20489   0.86329   0.00000  Uiso   1.00
N779   N     0.05738   0.51887   0.72446   0.00000  Uiso   1.00
N780   N     0.51589   0.11971   0.42632   0.00000  Uiso   1.00
N781   N     0.87761   0.12496   0.85118   0.00000  Uiso   1.00
N782   N     0.08070   0.43893   0.71234   0.00000  Uiso   1.00
C783   C     0.35846   0.56752   0.11507   0.00000  Uiso   1.00
C784   C     0.38347   0.61969   0.15978   0.00000  Uiso   1.00
C785   C     0.39449   0.62170   0.21020   0.00000  Uiso   1.00
C786   C     0.41743   0.67347   0.24544   0.00000  Uiso   1.00
C787   C     0.45454   0.74718   0.31712   0.00000  Uiso   1.00
C788   C     0.40409   0.55400   0.12221   0.00000  Uiso   1.00
C789   C     0.43243   0.50077   0.14105   0.00000  Uiso   1.00
C790   C     0.47272   0.49723   0.14466   0.00000  Uiso   1.00
C791   C     0.54181   0.46893   0.15797   0.00000  Uiso   1.00
C792   C     0.30233   0.58941   0.04466   0.00000  Uiso   1.00
C793   C     0.24512   0.56595   0.99828   0.00000  Uiso   1.00
C794   C     0.19974   0.59223   0.93659   0.00000  Uiso   1.00
C795   C     0.11083   0.61892   0.82950   0.00000  Uiso   1.00
C796   C     0.87961   0.15588   0.08798   0.00000  Uiso   1.00
C797   C     0.39496   0.66769   0.14506   0.00000  Uiso   1.00
C798   C     0.91788   0.21947   0.18023   0.00000  Uiso   1.00
C799   C     0.42893   0.72156   0.23070   0.00000  Uiso   1.00
C800   C     0.41557   0.60199   0.10750   0.00000  Uiso   1.00
C801   C     0.95583   0.09853   0.11108   0.00000  Uiso   1.00
C802   C     0.48423   0.54531   0.12992   0.00000  Uiso   1.00
C803   C     0.31381   0.63741   0.02995   0.00000  Uiso   1.00
C804   C     0.76851   0.16372   0.96832   0.00000  Uiso   1.00
C805   C     0.71124   0.14031   0.92185   0.00000  Uiso   1.00
H806   H     0.34952   0.53015   0.12653   0.00000  Uiso   1.00
H807   H     0.38560   0.58455   0.22158   0.00000  Uiso   1.00
H808   H     0.42353   0.46363   0.15242   0.00000  Uiso   1.00
H809   H     0.23625   0.52881   0.00969   0.00000  Uiso   1.00
H810   H     0.43068   0.66602   0.32048   0.00000  Uiso   1.00
H811   H     0.51065   0.41105   0.17465   0.00000  Uiso   1.00
H812   H     0.11572   0.54850   0.87366   0.00000  Uiso   1.00
H813   H     0.88855   0.19325   0.07653   0.00000  Uiso   1.00
H814   H     0.92677   0.25661   0.16883   0.00000  Uiso   1.00
H815   H     0.96470   0.13568   0.09969   0.00000  Uiso   1.00
H816   H     0.77742   0.20087   0.95695   0.00000  Uiso   1.00
H817   H     0.96409   0.30567   0.27768   0.00000  Uiso   1.00
H818   H     0.04406   0.05070   0.13185   0.00000  Uiso   1.00
H819   H     0.64914   0.18815   0.83086   0.00000  Uiso   1.00
O820   O     0.47184   0.77457   0.36072   0.00000  Uiso   1.00
O821   O     0.57675   0.44006   0.16939   0.00000  Uiso   1.00
O822   O     0.05861   0.62039   0.77449   0.00000  Uiso   1.00
N823   N     0.43329   0.69020   0.29773   0.00000  Uiso   1.00
N824   N     0.50806   0.45182   0.16140   0.00000  Uiso   1.00
N825   N     0.13884   0.58031   0.87999   0.00000  Uiso   1.00
N826   N     0.95127   0.26534   0.27470   0.00000  Uiso   1.00
N827   N     0.52604   0.52696   0.13837   0.00000  Uiso   1.00
N828   N     0.65682   0.15545   0.85696   0.00000  Uiso   1.00
C829   C     0.78206   0.26450   0.67269   0.00000  Uiso   1.00
C830   C     0.76726   0.20187   0.64795   0.00000  Uiso   1.00
C831   C     0.80157   0.15305   0.68690   0.00000  Uiso   1.00
C832   C     0.78034   0.09960   0.65488   0.00000  Uiso   1.00
C833   C     0.76551   0.00302   0.62689   0.00000  Uiso   1.00
C834   C     0.72782   0.28675   0.64860   0.00000  Uiso   1.00
C835   C     0.72897   0.30931   0.68809   0.00000  Uiso   1.00
C836   C     0.67454   0.32732   0.65661   0.00000  Uiso   1.00
C837   C     0.59847   0.36256   0.62962   0.00000  Uiso   1.00
C838   C     0.78344   0.29932   0.63508   0.00000  Uiso   1.00
C839   C     0.33136   0.83245   0.66320   0.00000  Uiso   1.00
C840   C     0.32376   0.86106   0.62033   0.00000  Uiso   1.00
C841   C     0.33406   0.91581   0.57235   0.00000  Uiso   1.00
C842   C     0.68335   0.25639   0.54655   0.00000  Uiso   1.00
C843   C     0.71364   0.19747   0.57944   0.00000  Uiso   1.00
C844   C     0.69236   0.14408   0.54735   0.00000  Uiso   1.00
C845   C     0.72663   0.09519   0.58624   0.00000  Uiso   1.00
C846   C     0.67420   0.28235   0.58009   0.00000  Uiso   1.00
C847   C     0.61976   0.30034   0.54854   0.00000  Uiso   1.00
C848   C     0.62082   0.32291   0.58797   0.00000  Uiso   1.00
C849   C     0.72983   0.29491   0.56656   0.00000  Uiso   1.00
C850   C     0.22215   0.82348   0.52364   0.00000  Uiso   1.00
C851   C     0.27004   0.85665   0.55169   0.00000  Uiso   1.00
H852   H     0.82380   0.26793   0.72603   0.00000  Uiso   1.00
H853   H     0.84306   0.15647   0.73992   0.00000  Uiso   1.00
H854   H     0.77047   0.31271   0.74111   0.00000  Uiso   1.00
H855   H     0.37285   0.83585   0.71622   0.00000  Uiso   1.00
H856   H     0.84076   0.03097   0.72511   0.00000  Uiso   1.00
H857   H     0.68770   0.36042   0.72761   0.00000  Uiso   1.00
H858   H     0.40358   0.90921   0.67513   0.00000  Uiso   1.00
H859   H     0.64160   0.25296   0.49321   0.00000  Uiso   1.00
H860   H     0.65086   0.14069   0.49433   0.00000  Uiso   1.00
H861   H     0.57827   0.29692   0.49552   0.00000  Uiso   1.00
H862   H     0.18065   0.82006   0.47063   0.00000  Uiso   1.00
H863   H     0.68476   0.01815   0.52578   0.00000  Uiso   1.00
H864   H     0.53171   0.34761   0.52828   0.00000  Uiso   1.00
H865   H     0.24759   0.89640   0.47580   0.00000  Uiso   1.00
O866   O     0.77213   0.95097   0.63039   0.00000  Uiso   1.00
O867   O     0.07133   0.88321   0.63367   0.00000  Uiso   1.00
O868   O     0.35456   0.94722   0.56481   0.00000  Uiso   1.00
N869   N     0.80278   0.04336   0.67805   0.00000  Uiso   1.00
N870   N     0.65968   0.35137   0.68038   0.00000  Uiso   1.00
N871   N     0.36150   0.89700   0.63132   0.00000  Uiso   1.00
N872   N     0.71884   0.03646   0.57079   0.00000  Uiso   1.00
N873   N     0.57574   0.34447   0.57313   0.00000  Uiso   1.00
N874   N     0.27757   0.89011   0.52406   0.00000  Uiso   1.00
C875   C     0.86733   0.64816   0.82357   0.00000  Uiso   1.00
C876   C     0.90025   0.64281   0.89213   0.00000  Uiso   1.00
C877   C     0.94091   0.68284   0.94302   0.00000  Uiso   1.00
C878   C     0.96618   0.67000   0.00199   0.00000  Uiso   1.00
C879   C     0.01953   0.66947   0.10725   0.00000  Uiso   1.00
C880   C     0.80056   0.64426   0.77504   0.00000  Uiso   1.00
C881   C     0.75740   0.68551   0.72748   0.00000  Uiso   1.00
C882   C     0.69874   0.67388   0.68788   0.00000  Uiso   1.00
C883   C     0.59732   0.67559   0.61132   0.00000  Uiso   1.00
C884   C     0.88240   0.59300   0.81331   0.00000  Uiso   1.00
C885   C     0.90803   0.59114   0.79791   0.00000  Uiso   1.00
C886   C     0.41827   0.03634   0.79053   0.00000  Uiso   1.00
C887   C     0.44391   0.95845   0.77340   0.00000  Uiso   1.00
C888   C     0.83992   0.55416   0.83781   0.00000  Uiso   1.00
C889   C     0.88536   0.59175   0.89986   0.00000  Uiso   1.00
C890   C     0.91057   0.57884   0.95877   0.00000  Uiso   1.00
C891   C     0.95126   0.61885   0.00974   0.00000  Uiso   1.00
C892   C     0.78566   0.59321   0.78277   0.00000  Uiso   1.00
C893   C     0.72706   0.58151   0.74323   0.00000  Uiso   1.00
C894   C     0.68382   0.62273   0.69563   0.00000  Uiso   1.00
C895   C     0.86751   0.54194   0.82105   0.00000  Uiso   1.00
C896   C     0.37770   0.98714   0.81368   0.00000  Uiso   1.00
C897   C     0.40335   0.98519   0.79827   0.00000  Uiso   1.00
H898   H     0.87892   0.68791   0.81755   0.00000  Uiso   1.00
H899   H     0.95242   0.72235   0.93701   0.00000  Uiso   1.00
H900   H     0.76893   0.72501   0.72150   0.00000  Uiso   1.00
H901   H     0.91955   0.63066   0.79193   0.00000  Uiso   1.00
H902   H     0.02731   0.73803   0.07286   0.00000  Uiso   1.00
H903   H     0.64043   0.74364   0.61843   0.00000  Uiso   1.00
H904   H     0.45802   0.04466   0.76694   0.00000  Uiso   1.00
H905   H     0.82832   0.51441   0.84383   0.00000  Uiso   1.00
H906   H     0.89904   0.53933   0.96474   0.00000  Uiso   1.00
H907   H     0.71555   0.54200   0.74923   0.00000  Uiso   1.00
H908   H     0.36617   0.94764   0.81966   0.00000  Uiso   1.00
H909   H     0.98399   0.58948   0.09537   0.00000  Uiso   1.00
H910   H     0.59710   0.59509   0.64093   0.00000  Uiso   1.00
H911   H     0.41470   0.89612   0.78945   0.00000  Uiso   1.00
O912   O     0.05307   0.68329   0.16317   0.00000  Uiso   1.00
O913   O     0.54549   0.69064   0.56696   0.00000  Uiso   1.00
O914   O     0.46217   0.92959   0.76182   0.00000  Uiso   1.00
N915   N     0.00742   0.69964   0.06157   0.00000  Uiso   1.00
N916   N     0.64570   0.70489   0.63671   0.00000  Uiso   1.00
N917   N     0.44262   0.01887   0.77554   0.00000  Uiso   1.00
N918   N     0.98411   0.61971   0.07368   0.00000  Uiso   1.00
N919   N     0.62239   0.62496   0.64882   0.00000  Uiso   1.00
N920   N     0.41930   0.93893   0.78766   0.00000  Uiso   1.00
C921   C     0.14154   0.06752   0.38493   0.00000  Uiso   1.00
C922   C     0.11653   0.11969   0.34022   0.00000  Uiso   1.00
C923   C     0.10551   0.12170   0.28980   0.00000  Uiso   1.00
C924   C     0.08257   0.17347   0.25456   0.00000  Uiso   1.00
C925   C     0.04546   0.24718   0.18288   0.00000  Uiso   1.00
C926   C     0.09591   0.05400   0.37779   0.00000  Uiso   1.00
C927   C     0.06757   0.00077   0.35895   0.00000  Uiso   1.00
C928   C     0.02728   0.99723   0.35534   0.00000  Uiso   1.00
C929   C     0.95819   0.96893   0.34203   0.00000  Uiso   1.00
C930   C     0.19767   0.08941   0.45534   0.00000  Uiso   1.00
C931   C     0.25488   0.06595   0.50172   0.00000  Uiso   1.00
C932   C     0.30026   0.09223   0.56341   0.00000  Uiso   1.00
C933   C     0.38917   0.11892   0.67050   0.00000  Uiso   1.00
C934   C     0.62039   0.65588   0.41202   0.00000  Uiso   1.00
C935   C     0.10504   0.16769   0.35494   0.00000  Uiso   1.00
C936   C     0.58212   0.71947   0.31977   0.00000  Uiso   1.00
C937   C     0.07107   0.22156   0.26930   0.00000  Uiso   1.00
C938   C     0.08443   0.10199   0.39250   0.00000  Uiso   1.00
C939   C     0.54417   0.59853   0.38892   0.00000  Uiso   1.00
C940   C     0.01577   0.04531   0.37008   0.00000  Uiso   1.00
C941   C     0.18619   0.13741   0.47005   0.00000  Uiso   1.00
C942   C     0.73149   0.66372   0.53168   0.00000  Uiso   1.00
C943   C     0.78876   0.64031   0.57815   0.00000  Uiso   1.00
H944   H     0.15048   0.03015   0.37347   0.00000  Uiso   1.00
H945   H     0.11440   0.08455   0.27842   0.00000  Uiso   1.00
H946   H     0.07647   0.96363   0.34758   0.00000  Uiso   1.00
H947   H     0.26375   0.02881   0.49031   0.00000  Uiso   1.00
H948   H     0.06932   0.16602   0.17952   0.00000  Uiso   1.00
H949   H     0.98935   0.91105   0.32535   0.00000  Uiso   1.00
H950   H     0.38428   0.04850   0.62634   0.00000  Uiso   1.00
H951   H     0.61145   0.69325   0.42347   0.00000  Uiso   1.00
H952   H     0.57323   0.75661   0.33117   0.00000  Uiso   1.00
H953   H     0.53530   0.63568   0.40031   0.00000  Uiso   1.00
H954   H     0.72258   0.70087   0.54305   0.00000  Uiso   1.00
H955   H     0.53591   0.80567   0.22232   0.00000  Uiso   1.00
H956   H     0.45594   0.55070   0.36815   0.00000  Uiso   1.00
H957   H     0.85086   0.68815   0.66914   0.00000  Uiso   1.00
O958   O     0.02816   0.27457   0.13928   0.00000  Uiso   1.00
O959   O     0.92325   0.94006   0.33061   0.00000  Uiso   1.00
O960   O     0.44139   0.12039   0.72551   0.00000  Uiso   1.00
N961   N     0.06671   0.19020   0.20227   0.00000  Uiso   1.00
N962   N     0.99194   0.95182   0.33860   0.00000  Uiso   1.00
N963   N     0.36116   0.08031   0.62001   0.00000  Uiso   1.00
N964   N     0.54873   0.76534   0.22530   0.00000  Uiso   1.00
N965   N     0.97396   0.02696   0.36163   0.00000  Uiso   1.00
N966   N     0.84318   0.65545   0.64304   0.00000  Uiso   1.00
C967   C     0.28206   0.76450   0.67269   0.00000  Uiso   1.00
C968   C     0.26726   0.70187   0.64795   0.00000  Uiso   1.00
C969   C     0.30157   0.65305   0.68690   0.00000  Uiso   1.00
C970   C     0.28034   0.59960   0.65488   0.00000  Uiso   1.00
C971   C     0.26551   0.50302   0.62689   0.00000  Uiso   1.00
C972   C     0.22782   0.78675   0.64860   0.00000  Uiso   1.00
C973   C     0.22897   0.80931   0.68809   0.00000  Uiso   1.00
C974   C     0.17454   0.82732   0.65661   0.00000  Uiso   1.00
C975   C     0.09847   0.86256   0.62962   0.00000  Uiso   1.00
C976   C     0.28344   0.79932   0.63508   0.00000  Uiso   1.00
C977   C     0.83136   0.33245   0.66320   0.00000  Uiso   1.00
C978   C     0.82376   0.36106   0.62033   0.00000  Uiso   1.00
C979   C     0.83406   0.41581   0.57235   0.00000  Uiso   1.00
C980   C     0.18335   0.75639   0.54655   0.00000  Uiso   1.00
C981   C     0.21364   0.69747   0.57944   0.00000  Uiso   1.00
C982   C     0.19236   0.64408   0.54735   0.00000  Uiso   1.00
C983   C     0.22663   0.59519   0.58624   0.00000  Uiso   1.00
C984   C     0.17420   0.78235   0.58009   0.00000  Uiso   1.00
C985   C     0.11976   0.80034   0.54854   0.00000  Uiso   1.00
C986   C     0.12082   0.82291   0.58797   0.00000  Uiso   1.00
C987   C     0.22983   0.79491   0.56656   0.00000  Uiso   1.00
C988   C     0.72215   0.32348   0.52364   0.00000  Uiso   1.00
C989   C     0.77004   0.35665   0.55169   0.00000  Uiso   1.00
H990   H     0.32380   0.76793   0.72603   0.00000  Uiso   1.00
H991   H     0.34306   0.65647   0.73992   0.00000  Uiso   1.00
H992   H     0.27047   0.81271   0.74111   0.00000  Uiso   1.00
H993   H     0.87285   0.33585   0.71622   0.00000  Uiso   1.00
H994   H     0.34076   0.53097   0.72511   0.00000  Uiso   1.00
H995   H     0.18770   0.86042   0.72761   0.00000  Uiso   1.00
H996   H     0.90358   0.40921   0.67513   0.00000  Uiso   1.00
H997   H     0.14160   0.75296   0.49321   0.00000  Uiso   1.00
H998   H     0.15086   0.64069   0.49433   0.00000  Uiso   1.00
H999   H     0.07827   0.79692   0.49552   0.00000  Uiso   1.00
H1000  H     0.68065   0.32006   0.47063   0.00000  Uiso   1.00
H1001  H     0.18476   0.51815   0.52578   0.00000  Uiso   1.00
H1002  H     0.03171   0.84761   0.52828   0.00000  Uiso   1.00
H1003  H     0.74759   0.39640   0.47580   0.00000  Uiso   1.00
O1004  O     0.27213   0.45097   0.63039   0.00000  Uiso   1.00
O1005  O     0.57133   0.38321   0.63367   0.00000  Uiso   1.00
O1006  O     0.85456   0.44722   0.56481   0.00000  Uiso   1.00
N1007  N     0.30278   0.54336   0.67805   0.00000  Uiso   1.00
N1008  N     0.15968   0.85137   0.68038   0.00000  Uiso   1.00
N1009  N     0.86150   0.39700   0.63132   0.00000  Uiso   1.00
N1010  N     0.21884   0.53646   0.57079   0.00000  Uiso   1.00
N1011  N     0.07574   0.84447   0.57313   0.00000  Uiso   1.00
N1012  N     0.77757   0.39011   0.52406   0.00000  Uiso   1.00
C1013  C     0.36733   0.14816   0.82357   0.00000  Uiso   1.00
C1014  C     0.40025   0.14281   0.89213   0.00000  Uiso   1.00
C1015  C     0.44091   0.18284   0.94302   0.00000  Uiso   1.00
C1016  C     0.46618   0.17000   0.00199   0.00000  Uiso   1.00
C1017  C     0.51953   0.16947   0.10725   0.00000  Uiso   1.00
C1018  C     0.30056   0.14426   0.77504   0.00000  Uiso   1.00
C1019  C     0.25740   0.18551   0.72748   0.00000  Uiso   1.00
C1020  C     0.19874   0.17388   0.68788   0.00000  Uiso   1.00
C1021  C     0.09732   0.17559   0.61132   0.00000  Uiso   1.00
C1022  C     0.38240   0.09300   0.81331   0.00000  Uiso   1.00
C1023  C     0.40803   0.09114   0.79791   0.00000  Uiso   1.00
C1024  C     0.91827   0.53634   0.79053   0.00000  Uiso   1.00
C1025  C     0.94391   0.45845   0.77340   0.00000  Uiso   1.00
C1026  C     0.33992   0.05416   0.83781   0.00000  Uiso   1.00
C1027  C     0.38536   0.09175   0.89986   0.00000  Uiso   1.00
C1028  C     0.41057   0.07884   0.95877   0.00000  Uiso   1.00
C1029  C     0.45126   0.11885   0.00974   0.00000  Uiso   1.00
C1030  C     0.28566   0.09321   0.78277   0.00000  Uiso   1.00
C1031  C     0.22706   0.08151   0.74323   0.00000  Uiso   1.00
C1032  C     0.18382   0.12273   0.69563   0.00000  Uiso   1.00
C1033  C     0.36751   0.04194   0.82105   0.00000  Uiso   1.00
C1034  C     0.87770   0.48714   0.81368   0.00000  Uiso   1.00
C1035  C     0.90335   0.48519   0.79827   0.00000  Uiso   1.00
H1036  H     0.37892   0.18791   0.81755   0.00000  Uiso   1.00
H1037  H     0.45242   0.22235   0.93701   0.00000  Uiso   1.00
H1038  H     0.26893   0.22501   0.72150   0.00000  Uiso   1.00
H1039  H     0.41955   0.13066   0.79193   0.00000  Uiso   1.00
H1040  H     0.52731   0.23803   0.07286   0.00000  Uiso   1.00
H1041  H     0.14043   0.24364   0.61843   0.00000  Uiso   1.00
H1042  H     0.95802   0.54466   0.76694   0.00000  Uiso   1.00
H1043  H     0.32832   0.01441   0.84383   0.00000  Uiso   1.00
H1044  H     0.39904   0.03933   0.96474   0.00000  Uiso   1.00
H1045  H     0.21555   0.04200   0.74923   0.00000  Uiso   1.00
H1046  H     0.86617   0.44764   0.81966   0.00000  Uiso   1.00
H1047  H     0.48399   0.08948   0.09537   0.00000  Uiso   1.00
H1048  H     0.09710   0.09509   0.64093   0.00000  Uiso   1.00
H1049  H     0.91470   0.39612   0.78945   0.00000  Uiso   1.00
O1050  O     0.55307   0.18329   0.16317   0.00000  Uiso   1.00
O1051  O     0.04549   0.19064   0.56696   0.00000  Uiso   1.00
O1052  O     0.96217   0.42959   0.76182   0.00000  Uiso   1.00
N1053  N     0.50742   0.19964   0.06157   0.00000  Uiso   1.00
N1054  N     0.14570   0.20489   0.63671   0.00000  Uiso   1.00
N1055  N     0.94262   0.51887   0.77554   0.00000  Uiso   1.00
N1056  N     0.48411   0.11971   0.07368   0.00000  Uiso   1.00
N1057  N     0.12239   0.12496   0.64882   0.00000  Uiso   1.00
N1058  N     0.91930   0.43893   0.78766   0.00000  Uiso   1.00
C1059  C     0.64154   0.56752   0.38493   0.00000  Uiso   1.00
C1060  C     0.61653   0.61969   0.34022   0.00000  Uiso   1.00
C1061  C     0.60551   0.62170   0.28980   0.00000  Uiso   1.00
C1062  C     0.58257   0.67347   0.25456   0.00000  Uiso   1.00
C1063  C     0.54546   0.74718   0.18288   0.00000  Uiso   1.00
C1064  C     0.59591   0.55400   0.37779   0.00000  Uiso   1.00
C1065  C     0.56757   0.50077   0.35895   0.00000  Uiso   1.00
C1066  C     0.52728   0.49723   0.35534   0.00000  Uiso   1.00
C1067  C     0.45819   0.46893   0.34203   0.00000  Uiso   1.00
C1068  C     0.69767   0.58941   0.45534   0.00000  Uiso   1.00
C1069  C     0.75488   0.56595   0.50172   0.00000  Uiso   1.00
C1070  C     0.80026   0.59223   0.56341   0.00000  Uiso   1.00
C1071  C     0.88917   0.61892   0.67050   0.00000  Uiso   1.00
C1072  C     0.12039   0.15588   0.41202   0.00000  Uiso   1.00
C1073  C     0.60504   0.66769   0.35494   0.00000  Uiso   1.00
C1074  C     0.08212   0.21947   0.31977   0.00000  Uiso   1.00
C1075  C     0.57107   0.72156   0.26930   0.00000  Uiso   1.00
C1076  C     0.58443   0.60199   0.39250   0.00000  Uiso   1.00
C1077  C     0.04417   0.09853   0.38892   0.00000  Uiso   1.00
C1078  C     0.51577   0.54531   0.37008   0.00000  Uiso   1.00
C1079  C     0.68619   0.63741   0.47005   0.00000  Uiso   1.00
C1080  C     0.23149   0.16372   0.53168   0.00000  Uiso   1.00
C1081  C     0.28876   0.14031   0.57815   0.00000  Uiso   1.00
H1082  H     0.65048   0.53015   0.37347   0.00000  Uiso   1.00
H1083  H     0.61440   0.58455   0.27842   0.00000  Uiso   1.00
H1084  H     0.57647   0.46363   0.34758   0.00000  Uiso   1.00
H1085  H     0.76375   0.52881   0.49031   0.00000  Uiso   1.00
H1086  H     0.56932   0.66602   0.17952   0.00000  Uiso   1.00
H1087  H     0.48935   0.41105   0.32535   0.00000  Uiso   1.00
H1088  H     0.88428   0.54850   0.62634   0.00000  Uiso   1.00
H1089  H     0.11145   0.19325   0.42347   0.00000  Uiso   1.00
H1090  H     0.07323   0.25661   0.33117   0.00000  Uiso   1.00
H1091  H     0.03530   0.13568   0.40031   0.00000  Uiso   1.00
H1092  H     0.22258   0.20087   0.54305   0.00000  Uiso   1.00
H1093  H     0.03591   0.30567   0.22232   0.00000  Uiso   1.00
H1094  H     0.95594   0.05070   0.36815   0.00000  Uiso   1.00
H1095  H     0.35086   0.18815   0.66914   0.00000  Uiso   1.00
O1096  O     0.52816   0.77457   0.13928   0.00000  Uiso   1.00
O1097  O     0.42325   0.44006   0.33061   0.00000  Uiso   1.00
O1098  O     0.94139   0.62039   0.72551   0.00000  Uiso   1.00
N1099  N     0.56671   0.69020   0.20227   0.00000  Uiso   1.00
N1100  N     0.49194   0.45182   0.33860   0.00000  Uiso   1.00
N1101  N     0.86116   0.58031   0.62001   0.00000  Uiso   1.00
N1102  N     0.04873   0.26534   0.22530   0.00000  Uiso   1.00
N1103  N     0.47396   0.52696   0.36163   0.00000  Uiso   1.00
N1104  N     0.34318   0.15545   0.64304   0.00000  Uiso   1.00
