data_job_01900
_audit_creation_date              2018-12-19
_audit_creation_method            'Materials Studio'
_symmetry_space_group_name_H-M    'P1'
_symmetry_Int_Tables_number       1
_symmetry_cell_setting            triclinic
loop_
_symmetry_equiv_pos_as_xyz
  x,y,z
_cell_length_a                    23.2648
_cell_length_b                    23.2648
_cell_length_c                    23.8505
_cell_angle_alpha                 90.0000
_cell_angle_beta                  90.0000
_cell_angle_gamma                 90.0000
loop_
_atom_site_label
_atom_site_type_symbol
_atom_site_fract_x
_atom_site_fract_y
_atom_site_fract_z
_atom_site_U_iso_or_equiv
_atom_site_adp_type
_atom_site_occupancy
C1     C     0.90584   0.34936   0.08978   0.00000  Uiso   1.00
C2     C     0.86658   0.38703   0.05413   0.00000  Uiso   1.00
C3     C     0.88416   0.42331   0.01124   0.00000  Uiso   1.00
C4     C     0.84163   0.45417   0.98365   0.00000  Uiso   1.00
C5     C     0.78950   0.51349   0.92606   0.00000  Uiso   1.00
C6     C     0.89432   0.36628   0.15052   0.00000  Uiso   1.00
C7     C     0.93524   0.38510   0.18868   0.00000  Uiso   1.00
C8     C     0.91606   0.39848   0.24224   0.00000  Uiso   1.00
C9     C     0.90701   0.42554   0.33431   0.00000  Uiso   1.00
C10    C     0.88342   0.28812   0.08338   0.00000  Uiso   1.00
C11    C     0.91516   0.24121   0.06511   0.00000  Uiso   1.00
C12    C     0.88680   0.18879   0.06215   0.00000  Uiso   1.00
C13    C     0.86082   0.09449   0.04998   0.00000  Uiso   1.00
C14    C     0.79903   0.33965   0.11705   0.00000  Uiso   1.00
C15    C     0.80857   0.38176   0.06894   0.00000  Uiso   1.00
C16    C     0.76600   0.41257   0.04140   0.00000  Uiso   1.00
C17    C     0.78351   0.44888   0.99848   0.00000  Uiso   1.00
C18    C     0.83632   0.36100   0.16533   0.00000  Uiso   1.00
C19    C     0.81707   0.37436   0.21885   0.00000  Uiso   1.00
C20    C     0.85794   0.39320   0.25708   0.00000  Uiso   1.00
C21    C     0.82541   0.28284   0.09819   0.00000  Uiso   1.00
C22    C     0.79700   0.23048   0.09527   0.00000  Uiso   1.00
C23    C     0.82869   0.18350   0.07699   0.00000  Uiso   1.00
H24    H     0.95100   0.35346   0.07826   0.00000  Uiso   1.00
H25    H     0.92906   0.42738   0.99980   0.00000  Uiso   1.00
H26    H     0.98013   0.38917   0.17721   0.00000  Uiso   1.00
H27    H     0.96005   0.24531   0.05365   0.00000  Uiso   1.00
H28    H     0.87915   0.50702   0.91936   0.00000  Uiso   1.00
H29    H     0.98683   0.42644   0.29345   0.00000  Uiso   1.00
H30    H     0.94451   0.12308   0.03290   0.00000  Uiso   1.00
H31    H     0.75387   0.33554   0.12858   0.00000  Uiso   1.00
H32    H     0.72111   0.40848   0.05287   0.00000  Uiso   1.00
H33    H     0.77218   0.37027   0.23029   0.00000  Uiso   1.00
H34    H     0.75210   0.22641   0.10673   0.00000  Uiso   1.00
H35    H     0.71037   0.49168   0.96244   0.00000  Uiso   1.00
H36    H     0.81806   0.41110   0.33653   0.00000  Uiso   1.00
H37    H     0.77573   0.10774   0.07598   0.00000  Uiso   1.00
O38    O     0.77677   0.54767   0.89020   0.00000  Uiso   1.00
O39    O     0.91805   0.44193   0.38100   0.00000  Uiso   1.00
O40    O     0.86251   0.04394   0.03917   0.00000  Uiso   1.00
N41    N     0.84393   0.49339   0.93988   0.00000  Uiso   1.00
N42    N     0.94460   0.41806   0.28963   0.00000  Uiso   1.00
N43    N     0.90503   0.13444   0.04605   0.00000  Uiso   1.00
N44    N     0.75311   0.48514   0.96306   0.00000  Uiso   1.00
N45    N     0.85378   0.40981   0.31281   0.00000  Uiso   1.00
N46    N     0.81421   0.12619   0.06924   0.00000  Uiso   1.00
C47    C     0.09416   0.65064   0.08978   0.00000  Uiso   1.00
C48    C     0.13342   0.61297   0.05413   0.00000  Uiso   1.00
C49    C     0.11584   0.57669   0.01124   0.00000  Uiso   1.00
C50    C     0.15837   0.54583   0.98365   0.00000  Uiso   1.00
C51    C     0.21050   0.48651   0.92606   0.00000  Uiso   1.00
C52    C     0.10568   0.63372   0.15052   0.00000  Uiso   1.00
C53    C     0.06476   0.61490   0.18868   0.00000  Uiso   1.00
C54    C     0.08394   0.60152   0.24224   0.00000  Uiso   1.00
C55    C     0.09299   0.57446   0.33431   0.00000  Uiso   1.00
C56    C     0.11658   0.71188   0.08338   0.00000  Uiso   1.00
C57    C     0.08484   0.75879   0.06511   0.00000  Uiso   1.00
C58    C     0.11320   0.81121   0.06215   0.00000  Uiso   1.00
C59    C     0.13918   0.90551   0.04998   0.00000  Uiso   1.00
C60    C     0.20097   0.66035   0.11705   0.00000  Uiso   1.00
C61    C     0.19143   0.61824   0.06894   0.00000  Uiso   1.00
C62    C     0.23400   0.58743   0.04140   0.00000  Uiso   1.00
C63    C     0.21649   0.55112   0.99848   0.00000  Uiso   1.00
C64    C     0.16368   0.63900   0.16533   0.00000  Uiso   1.00
C65    C     0.18293   0.62564   0.21885   0.00000  Uiso   1.00
C66    C     0.14206   0.60680   0.25708   0.00000  Uiso   1.00
C67    C     0.17459   0.71716   0.09819   0.00000  Uiso   1.00
C68    C     0.20300   0.76952   0.09527   0.00000  Uiso   1.00
C69    C     0.17131   0.81650   0.07699   0.00000  Uiso   1.00
H70    H     0.04900   0.64654   0.07826   0.00000  Uiso   1.00
H71    H     0.07094   0.57262   0.99980   0.00000  Uiso   1.00
H72    H     0.01987   0.61083   0.17721   0.00000  Uiso   1.00
H73    H     0.03995   0.75469   0.05365   0.00000  Uiso   1.00
H74    H     0.12085   0.49298   0.91936   0.00000  Uiso   1.00
H75    H     0.01317   0.57356   0.29345   0.00000  Uiso   1.00
H76    H     0.05549   0.87692   0.03290   0.00000  Uiso   1.00
H77    H     0.24613   0.66446   0.12858   0.00000  Uiso   1.00
H78    H     0.27889   0.59152   0.05287   0.00000  Uiso   1.00
H79    H     0.22782   0.62973   0.23029   0.00000  Uiso   1.00
H80    H     0.24790   0.77359   0.10673   0.00000  Uiso   1.00
H81    H     0.28963   0.50832   0.96244   0.00000  Uiso   1.00
H82    H     0.18194   0.58890   0.33653   0.00000  Uiso   1.00
H83    H     0.22427   0.89226   0.07598   0.00000  Uiso   1.00
O84    O     0.22323   0.45233   0.89020   0.00000  Uiso   1.00
O85    O     0.08195   0.55807   0.38100   0.00000  Uiso   1.00
O86    O     0.13749   0.95606   0.03917   0.00000  Uiso   1.00
N87    N     0.15607   0.50661   0.93988   0.00000  Uiso   1.00
N88    N     0.05540   0.58194   0.28963   0.00000  Uiso   1.00
N89    N     0.09497   0.86556   0.04605   0.00000  Uiso   1.00
N90    N     0.24689   0.51486   0.96306   0.00000  Uiso   1.00
N91    N     0.14622   0.59019   0.31281   0.00000  Uiso   1.00
N92    N     0.18579   0.87381   0.06924   0.00000  Uiso   1.00
C93    C     0.15064   0.40584   0.08978   0.00000  Uiso   1.00
C94    C     0.11297   0.36658   0.05413   0.00000  Uiso   1.00
C95    C     0.07669   0.38416   0.01124   0.00000  Uiso   1.00
C96    C     0.04583   0.34163   0.98365   0.00000  Uiso   1.00
C97    C     0.98651   0.28950   0.92606   0.00000  Uiso   1.00
C98    C     0.13372   0.39432   0.15052   0.00000  Uiso   1.00
C99    C     0.11490   0.43524   0.18868   0.00000  Uiso   1.00
C100   C     0.10152   0.41606   0.24224   0.00000  Uiso   1.00
C101   C     0.07446   0.40701   0.33431   0.00000  Uiso   1.00
C102   C     0.21188   0.38342   0.08338   0.00000  Uiso   1.00
C103   C     0.25879   0.41516   0.06511   0.00000  Uiso   1.00
C104   C     0.31121   0.38680   0.06215   0.00000  Uiso   1.00
C105   C     0.40551   0.36082   0.04998   0.00000  Uiso   1.00
C106   C     0.16035   0.29903   0.11705   0.00000  Uiso   1.00
C107   C     0.11824   0.30857   0.06894   0.00000  Uiso   1.00
C108   C     0.08743   0.26600   0.04140   0.00000  Uiso   1.00
C109   C     0.05112   0.28351   0.99848   0.00000  Uiso   1.00
C110   C     0.13900   0.33632   0.16533   0.00000  Uiso   1.00
C111   C     0.12564   0.31707   0.21885   0.00000  Uiso   1.00
C112   C     0.10680   0.35794   0.25708   0.00000  Uiso   1.00
C113   C     0.21716   0.32541   0.09819   0.00000  Uiso   1.00
C114   C     0.26952   0.29700   0.09527   0.00000  Uiso   1.00
C115   C     0.31650   0.32869   0.07699   0.00000  Uiso   1.00
H116   H     0.14654   0.45100   0.07826   0.00000  Uiso   1.00
H117   H     0.07262   0.42906   0.99980   0.00000  Uiso   1.00
H118   H     0.11083   0.48013   0.17721   0.00000  Uiso   1.00
H119   H     0.25469   0.46005   0.05365   0.00000  Uiso   1.00
H120   H     0.99298   0.37915   0.91936   0.00000  Uiso   1.00
H121   H     0.07356   0.48683   0.29345   0.00000  Uiso   1.00
H122   H     0.37692   0.44451   0.03290   0.00000  Uiso   1.00
H123   H     0.16446   0.25387   0.12858   0.00000  Uiso   1.00
H124   H     0.09152   0.22111   0.05287   0.00000  Uiso   1.00
H125   H     0.12973   0.27218   0.23029   0.00000  Uiso   1.00
H126   H     0.27359   0.25210   0.10673   0.00000  Uiso   1.00
H127   H     0.00832   0.21037   0.96244   0.00000  Uiso   1.00
H128   H     0.08890   0.31806   0.33653   0.00000  Uiso   1.00
H129   H     0.39226   0.27573   0.07598   0.00000  Uiso   1.00
O130   O     0.95233   0.27677   0.89020   0.00000  Uiso   1.00
O131   O     0.05807   0.41805   0.38100   0.00000  Uiso   1.00
O132   O     0.45606   0.36251   0.03917   0.00000  Uiso   1.00
N133   N     0.00661   0.34393   0.93988   0.00000  Uiso   1.00
N134   N     0.08194   0.44460   0.28963   0.00000  Uiso   1.00
N135   N     0.36556   0.40503   0.04605   0.00000  Uiso   1.00
N136   N     0.01486   0.25311   0.96306   0.00000  Uiso   1.00
N137   N     0.09019   0.35378   0.31281   0.00000  Uiso   1.00
N138   N     0.37381   0.31421   0.06924   0.00000  Uiso   1.00
C139   C     0.84936   0.59416   0.08978   0.00000  Uiso   1.00
C140   C     0.88703   0.63342   0.05413   0.00000  Uiso   1.00
C141   C     0.92331   0.61584   0.01124   0.00000  Uiso   1.00
C142   C     0.95417   0.65837   0.98365   0.00000  Uiso   1.00
C143   C     0.01349   0.71050   0.92606   0.00000  Uiso   1.00
C144   C     0.86628   0.60568   0.15052   0.00000  Uiso   1.00
C145   C     0.88510   0.56476   0.18868   0.00000  Uiso   1.00
C146   C     0.89848   0.58394   0.24224   0.00000  Uiso   1.00
C147   C     0.92554   0.59299   0.33431   0.00000  Uiso   1.00
C148   C     0.78812   0.61658   0.08338   0.00000  Uiso   1.00
C149   C     0.74121   0.58484   0.06511   0.00000  Uiso   1.00
C150   C     0.68879   0.61320   0.06215   0.00000  Uiso   1.00
C151   C     0.59449   0.63918   0.04998   0.00000  Uiso   1.00
C152   C     0.83965   0.70097   0.11705   0.00000  Uiso   1.00
C153   C     0.88176   0.69143   0.06894   0.00000  Uiso   1.00
C154   C     0.91257   0.73400   0.04140   0.00000  Uiso   1.00
C155   C     0.94888   0.71649   0.99848   0.00000  Uiso   1.00
C156   C     0.86100   0.66368   0.16533   0.00000  Uiso   1.00
C157   C     0.87436   0.68293   0.21885   0.00000  Uiso   1.00
C158   C     0.89320   0.64206   0.25708   0.00000  Uiso   1.00
C159   C     0.78284   0.67459   0.09819   0.00000  Uiso   1.00
C160   C     0.73048   0.70300   0.09527   0.00000  Uiso   1.00
C161   C     0.68350   0.67131   0.07699   0.00000  Uiso   1.00
H162   H     0.85346   0.54900   0.07826   0.00000  Uiso   1.00
H163   H     0.92738   0.57094   0.99980   0.00000  Uiso   1.00
H164   H     0.88917   0.51987   0.17721   0.00000  Uiso   1.00
H165   H     0.74531   0.53995   0.05365   0.00000  Uiso   1.00
H166   H     0.00702   0.62085   0.91936   0.00000  Uiso   1.00
H167   H     0.92644   0.51317   0.29345   0.00000  Uiso   1.00
H168   H     0.62308   0.55549   0.03290   0.00000  Uiso   1.00
H169   H     0.83554   0.74613   0.12858   0.00000  Uiso   1.00
H170   H     0.90848   0.77889   0.05287   0.00000  Uiso   1.00
H171   H     0.87027   0.72782   0.23029   0.00000  Uiso   1.00
H172   H     0.72641   0.74790   0.10673   0.00000  Uiso   1.00
H173   H     0.99168   0.78963   0.96244   0.00000  Uiso   1.00
H174   H     0.91110   0.68194   0.33653   0.00000  Uiso   1.00
H175   H     0.60774   0.72427   0.07598   0.00000  Uiso   1.00
O176   O     0.04767   0.72323   0.89020   0.00000  Uiso   1.00
O177   O     0.94193   0.58195   0.38100   0.00000  Uiso   1.00
O178   O     0.54394   0.63749   0.03917   0.00000  Uiso   1.00
N179   N     0.99339   0.65607   0.93988   0.00000  Uiso   1.00
N180   N     0.91806   0.55540   0.28963   0.00000  Uiso   1.00
N181   N     0.63444   0.59497   0.04605   0.00000  Uiso   1.00
N182   N     0.98514   0.74689   0.96306   0.00000  Uiso   1.00
N183   N     0.90981   0.64622   0.31281   0.00000  Uiso   1.00
N184   N     0.62619   0.68579   0.06924   0.00000  Uiso   1.00
C185   C     0.59416   0.84936   0.41022   0.00000  Uiso   1.00
C186   C     0.63342   0.88703   0.44587   0.00000  Uiso   1.00
C187   C     0.61584   0.92331   0.48876   0.00000  Uiso   1.00
C188   C     0.65837   0.95417   0.51635   0.00000  Uiso   1.00
C189   C     0.71050   0.01349   0.57394   0.00000  Uiso   1.00
C190   C     0.60568   0.86628   0.34948   0.00000  Uiso   1.00
C191   C     0.56476   0.88510   0.31132   0.00000  Uiso   1.00
C192   C     0.58394   0.89848   0.25776   0.00000  Uiso   1.00
C193   C     0.59299   0.92554   0.16569   0.00000  Uiso   1.00
C194   C     0.61658   0.78812   0.41662   0.00000  Uiso   1.00
C195   C     0.58484   0.74121   0.43489   0.00000  Uiso   1.00
C196   C     0.61320   0.68879   0.43785   0.00000  Uiso   1.00
C197   C     0.63918   0.59449   0.45002   0.00000  Uiso   1.00
C198   C     0.70097   0.83965   0.38295   0.00000  Uiso   1.00
C199   C     0.69143   0.88176   0.43106   0.00000  Uiso   1.00
C200   C     0.73400   0.91257   0.45860   0.00000  Uiso   1.00
C201   C     0.71649   0.94888   0.50152   0.00000  Uiso   1.00
C202   C     0.66368   0.86100   0.33467   0.00000  Uiso   1.00
C203   C     0.68293   0.87436   0.28115   0.00000  Uiso   1.00
C204   C     0.64206   0.89320   0.24292   0.00000  Uiso   1.00
C205   C     0.67459   0.78284   0.40181   0.00000  Uiso   1.00
C206   C     0.70300   0.73048   0.40473   0.00000  Uiso   1.00
C207   C     0.67131   0.68350   0.42301   0.00000  Uiso   1.00
H208   H     0.54900   0.85346   0.42174   0.00000  Uiso   1.00
H209   H     0.57094   0.92738   0.50020   0.00000  Uiso   1.00
H210   H     0.51987   0.88917   0.32279   0.00000  Uiso   1.00
H211   H     0.53995   0.74531   0.44635   0.00000  Uiso   1.00
H212   H     0.62085   0.00702   0.58064   0.00000  Uiso   1.00
H213   H     0.51317   0.92644   0.20655   0.00000  Uiso   1.00
H214   H     0.55549   0.62308   0.46710   0.00000  Uiso   1.00
H215   H     0.74613   0.83554   0.37142   0.00000  Uiso   1.00
H216   H     0.77889   0.90848   0.44713   0.00000  Uiso   1.00
H217   H     0.72782   0.87027   0.26971   0.00000  Uiso   1.00
H218   H     0.74790   0.72641   0.39327   0.00000  Uiso   1.00
H219   H     0.78963   0.99168   0.53756   0.00000  Uiso   1.00
H220   H     0.68194   0.91110   0.16347   0.00000  Uiso   1.00
H221   H     0.72427   0.60774   0.42402   0.00000  Uiso   1.00
O222   O     0.72323   0.04767   0.60980   0.00000  Uiso   1.00
O223   O     0.58195   0.94193   0.11900   0.00000  Uiso   1.00
O224   O     0.63749   0.54394   0.46083   0.00000  Uiso   1.00
N225   N     0.65607   0.99339   0.56012   0.00000  Uiso   1.00
N226   N     0.55540   0.91806   0.21037   0.00000  Uiso   1.00
N227   N     0.59497   0.63444   0.45395   0.00000  Uiso   1.00
N228   N     0.74689   0.98514   0.53694   0.00000  Uiso   1.00
N229   N     0.64622   0.90981   0.18719   0.00000  Uiso   1.00
N230   N     0.68579   0.62619   0.43076   0.00000  Uiso   1.00
C231   C     0.40584   0.15064   0.41022   0.00000  Uiso   1.00
C232   C     0.36658   0.11297   0.44587   0.00000  Uiso   1.00
C233   C     0.38416   0.07669   0.48876   0.00000  Uiso   1.00
C234   C     0.34163   0.04583   0.51635   0.00000  Uiso   1.00
C235   C     0.28950   0.98651   0.57394   0.00000  Uiso   1.00
C236   C     0.39432   0.13372   0.34948   0.00000  Uiso   1.00
C237   C     0.43524   0.11490   0.31132   0.00000  Uiso   1.00
C238   C     0.41606   0.10152   0.25776   0.00000  Uiso   1.00
C239   C     0.40701   0.07446   0.16569   0.00000  Uiso   1.00
C240   C     0.38342   0.21188   0.41662   0.00000  Uiso   1.00
C241   C     0.41516   0.25879   0.43489   0.00000  Uiso   1.00
C242   C     0.38680   0.31121   0.43785   0.00000  Uiso   1.00
C243   C     0.36082   0.40551   0.45002   0.00000  Uiso   1.00
C244   C     0.29903   0.16035   0.38295   0.00000  Uiso   1.00
C245   C     0.30857   0.11824   0.43106   0.00000  Uiso   1.00
C246   C     0.26600   0.08743   0.45860   0.00000  Uiso   1.00
C247   C     0.28351   0.05112   0.50152   0.00000  Uiso   1.00
C248   C     0.33632   0.13900   0.33467   0.00000  Uiso   1.00
C249   C     0.31707   0.12564   0.28115   0.00000  Uiso   1.00
C250   C     0.35794   0.10680   0.24292   0.00000  Uiso   1.00
C251   C     0.32541   0.21716   0.40181   0.00000  Uiso   1.00
C252   C     0.29700   0.26952   0.40473   0.00000  Uiso   1.00
C253   C     0.32869   0.31650   0.42301   0.00000  Uiso   1.00
H254   H     0.45100   0.14654   0.42174   0.00000  Uiso   1.00
H255   H     0.42906   0.07262   0.50020   0.00000  Uiso   1.00
H256   H     0.48013   0.11083   0.32279   0.00000  Uiso   1.00
H257   H     0.46005   0.25469   0.44635   0.00000  Uiso   1.00
H258   H     0.37915   0.99298   0.58064   0.00000  Uiso   1.00
H259   H     0.48683   0.07356   0.20655   0.00000  Uiso   1.00
H260   H     0.44451   0.37692   0.46710   0.00000  Uiso   1.00
H261   H     0.25387   0.16446   0.37142   0.00000  Uiso   1.00
H262   H     0.22111   0.09152   0.44713   0.00000  Uiso   1.00
H263   H     0.27218   0.12973   0.26971   0.00000  Uiso   1.00
H264   H     0.25210   0.27359   0.39327   0.00000  Uiso   1.00
H265   H     0.21037   0.00832   0.53756   0.00000  Uiso   1.00
H266   H     0.31806   0.08890   0.16347   0.00000  Uiso   1.00
H267   H     0.27573   0.39226   0.42402   0.00000  Uiso   1.00
O268   O     0.27677   0.95233   0.60980   0.00000  Uiso   1.00
O269   O     0.41805   0.05807   0.11900   0.00000  Uiso   1.00
O270   O     0.36251   0.45606   0.46083   0.00000  Uiso   1.00
N271   N     0.34393   0.00661   0.56012   0.00000  Uiso   1.00
N272   N     0.44460   0.08194   0.21037   0.00000  Uiso   1.00
N273   N     0.40503   0.36556   0.45395   0.00000  Uiso   1.00
N274   N     0.25311   0.01486   0.53694   0.00000  Uiso   1.00
N275   N     0.35378   0.09019   0.18719   0.00000  Uiso   1.00
N276   N     0.31421   0.37381   0.43076   0.00000  Uiso   1.00
C277   C     0.34936   0.90584   0.41022   0.00000  Uiso   1.00
C278   C     0.38703   0.86658   0.44587   0.00000  Uiso   1.00
C279   C     0.42331   0.88416   0.48876   0.00000  Uiso   1.00
C280   C     0.45417   0.84163   0.51635   0.00000  Uiso   1.00
C281   C     0.51349   0.78950   0.57394   0.00000  Uiso   1.00
C282   C     0.36628   0.89432   0.34948   0.00000  Uiso   1.00
C283   C     0.38510   0.93524   0.31132   0.00000  Uiso   1.00
C284   C     0.39848   0.91606   0.25776   0.00000  Uiso   1.00
C285   C     0.42554   0.90701   0.16569   0.00000  Uiso   1.00
C286   C     0.28812   0.88342   0.41662   0.00000  Uiso   1.00
C287   C     0.24121   0.91516   0.43489   0.00000  Uiso   1.00
C288   C     0.18879   0.88680   0.43785   0.00000  Uiso   1.00
C289   C     0.09449   0.86082   0.45002   0.00000  Uiso   1.00
C290   C     0.33965   0.79903   0.38295   0.00000  Uiso   1.00
C291   C     0.38176   0.80857   0.43106   0.00000  Uiso   1.00
C292   C     0.41257   0.76600   0.45860   0.00000  Uiso   1.00
C293   C     0.44888   0.78351   0.50152   0.00000  Uiso   1.00
C294   C     0.36100   0.83632   0.33467   0.00000  Uiso   1.00
C295   C     0.37436   0.81707   0.28115   0.00000  Uiso   1.00
C296   C     0.39320   0.85794   0.24292   0.00000  Uiso   1.00
C297   C     0.28284   0.82541   0.40181   0.00000  Uiso   1.00
C298   C     0.23048   0.79700   0.40473   0.00000  Uiso   1.00
C299   C     0.18350   0.82869   0.42301   0.00000  Uiso   1.00
H300   H     0.35346   0.95100   0.42174   0.00000  Uiso   1.00
H301   H     0.42738   0.92906   0.50020   0.00000  Uiso   1.00
H302   H     0.38917   0.98013   0.32279   0.00000  Uiso   1.00
H303   H     0.24531   0.96005   0.44635   0.00000  Uiso   1.00
H304   H     0.50702   0.87915   0.58064   0.00000  Uiso   1.00
H305   H     0.42644   0.98683   0.20655   0.00000  Uiso   1.00
H306   H     0.12308   0.94451   0.46710   0.00000  Uiso   1.00
H307   H     0.33554   0.75387   0.37142   0.00000  Uiso   1.00
H308   H     0.40848   0.72111   0.44713   0.00000  Uiso   1.00
H309   H     0.37027   0.77218   0.26971   0.00000  Uiso   1.00
H310   H     0.22641   0.75210   0.39327   0.00000  Uiso   1.00
H311   H     0.49168   0.71037   0.53756   0.00000  Uiso   1.00
H312   H     0.41110   0.81806   0.16347   0.00000  Uiso   1.00
H313   H     0.10774   0.77573   0.42402   0.00000  Uiso   1.00
O314   O     0.54767   0.77677   0.60980   0.00000  Uiso   1.00
O315   O     0.44193   0.91805   0.11900   0.00000  Uiso   1.00
O316   O     0.04394   0.86251   0.46083   0.00000  Uiso   1.00
N317   N     0.49339   0.84393   0.56012   0.00000  Uiso   1.00
N318   N     0.41806   0.94460   0.21037   0.00000  Uiso   1.00
N319   N     0.13444   0.90503   0.45395   0.00000  Uiso   1.00
N320   N     0.48514   0.75311   0.53694   0.00000  Uiso   1.00
N321   N     0.40981   0.85378   0.18719   0.00000  Uiso   1.00
N322   N     0.12619   0.81421   0.43076   0.00000  Uiso   1.00
C323   C     0.65064   0.09416   0.41022   0.00000  Uiso   1.00
C324   C     0.61297   0.13342   0.44587   0.00000  Uiso   1.00
C325   C     0.57669   0.11584   0.48876   0.00000  Uiso   1.00
C326   C     0.54583   0.15837   0.51635   0.00000  Uiso   1.00
C327   C     0.48651   0.21050   0.57394   0.00000  Uiso   1.00
C328   C     0.63372   0.10568   0.34948   0.00000  Uiso   1.00
C329   C     0.61490   0.06476   0.31132   0.00000  Uiso   1.00
C330   C     0.60152   0.08394   0.25776   0.00000  Uiso   1.00
C331   C     0.57446   0.09299   0.16569   0.00000  Uiso   1.00
C332   C     0.71188   0.11658   0.41662   0.00000  Uiso   1.00
C333   C     0.75879   0.08484   0.43489   0.00000  Uiso   1.00
C334   C     0.81121   0.11320   0.43785   0.00000  Uiso   1.00
C335   C     0.90551   0.13918   0.45002   0.00000  Uiso   1.00
C336   C     0.66035   0.20097   0.38295   0.00000  Uiso   1.00
C337   C     0.61824   0.19143   0.43106   0.00000  Uiso   1.00
C338   C     0.58743   0.23400   0.45860   0.00000  Uiso   1.00
C339   C     0.55112   0.21649   0.50152   0.00000  Uiso   1.00
C340   C     0.63900   0.16368   0.33467   0.00000  Uiso   1.00
C341   C     0.62564   0.18293   0.28115   0.00000  Uiso   1.00
C342   C     0.60680   0.14206   0.24292   0.00000  Uiso   1.00
C343   C     0.71716   0.17459   0.40181   0.00000  Uiso   1.00
C344   C     0.76952   0.20300   0.40473   0.00000  Uiso   1.00
C345   C     0.81650   0.17131   0.42301   0.00000  Uiso   1.00
H346   H     0.64654   0.04900   0.42174   0.00000  Uiso   1.00
H347   H     0.57262   0.07094   0.50020   0.00000  Uiso   1.00
H348   H     0.61083   0.01987   0.32279   0.00000  Uiso   1.00
H349   H     0.75469   0.03995   0.44635   0.00000  Uiso   1.00
H350   H     0.49298   0.12085   0.58064   0.00000  Uiso   1.00
H351   H     0.57356   0.01317   0.20655   0.00000  Uiso   1.00
H352   H     0.87692   0.05549   0.46710   0.00000  Uiso   1.00
H353   H     0.66446   0.24613   0.37142   0.00000  Uiso   1.00
H354   H     0.59152   0.27889   0.44713   0.00000  Uiso   1.00
H355   H     0.62973   0.22782   0.26971   0.00000  Uiso   1.00
H356   H     0.77359   0.24790   0.39327   0.00000  Uiso   1.00
H357   H     0.50832   0.28963   0.53756   0.00000  Uiso   1.00
H358   H     0.58890   0.18194   0.16347   0.00000  Uiso   1.00
H359   H     0.89226   0.22427   0.42402   0.00000  Uiso   1.00
O360   O     0.45233   0.22323   0.60980   0.00000  Uiso   1.00
O361   O     0.55807   0.08195   0.11900   0.00000  Uiso   1.00
O362   O     0.95606   0.13749   0.46083   0.00000  Uiso   1.00
N363   N     0.50661   0.15607   0.56012   0.00000  Uiso   1.00
N364   N     0.58194   0.05540   0.21037   0.00000  Uiso   1.00
N365   N     0.86556   0.09497   0.45395   0.00000  Uiso   1.00
N366   N     0.51486   0.24689   0.53694   0.00000  Uiso   1.00
N367   N     0.59019   0.14622   0.18719   0.00000  Uiso   1.00
N368   N     0.87381   0.18579   0.43076   0.00000  Uiso   1.00
C369   C     0.59416   0.15064   0.91022   0.00000  Uiso   1.00
C370   C     0.63342   0.11297   0.94587   0.00000  Uiso   1.00
C371   C     0.61584   0.07669   0.98876   0.00000  Uiso   1.00
C372   C     0.65837   0.04583   0.01635   0.00000  Uiso   1.00
C373   C     0.71050   0.98651   0.07394   0.00000  Uiso   1.00
C374   C     0.60568   0.13372   0.84948   0.00000  Uiso   1.00
C375   C     0.56476   0.11490   0.81132   0.00000  Uiso   1.00
C376   C     0.58394   0.10152   0.75776   0.00000  Uiso   1.00
C377   C     0.59299   0.07446   0.66569   0.00000  Uiso   1.00
C378   C     0.61658   0.21188   0.91662   0.00000  Uiso   1.00
C379   C     0.58484   0.25879   0.93489   0.00000  Uiso   1.00
C380   C     0.61320   0.31121   0.93785   0.00000  Uiso   1.00
C381   C     0.63918   0.40551   0.95002   0.00000  Uiso   1.00
C382   C     0.70097   0.16035   0.88295   0.00000  Uiso   1.00
C383   C     0.69143   0.11824   0.93106   0.00000  Uiso   1.00
C384   C     0.73400   0.08743   0.95860   0.00000  Uiso   1.00
C385   C     0.71649   0.05112   0.00152   0.00000  Uiso   1.00
C386   C     0.66368   0.13900   0.83467   0.00000  Uiso   1.00
C387   C     0.68293   0.12564   0.78115   0.00000  Uiso   1.00
C388   C     0.64206   0.10680   0.74292   0.00000  Uiso   1.00
C389   C     0.67459   0.21716   0.90181   0.00000  Uiso   1.00
C390   C     0.70300   0.26952   0.90473   0.00000  Uiso   1.00
C391   C     0.67131   0.31650   0.92301   0.00000  Uiso   1.00
H392   H     0.54900   0.14654   0.92174   0.00000  Uiso   1.00
H393   H     0.57094   0.07262   0.00020   0.00000  Uiso   1.00
H394   H     0.51987   0.11083   0.82279   0.00000  Uiso   1.00
H395   H     0.53995   0.25469   0.94635   0.00000  Uiso   1.00
H396   H     0.62085   0.99298   0.08064   0.00000  Uiso   1.00
H397   H     0.51317   0.07356   0.70655   0.00000  Uiso   1.00
H398   H     0.55549   0.37692   0.96710   0.00000  Uiso   1.00
H399   H     0.74613   0.16446   0.87142   0.00000  Uiso   1.00
H400   H     0.77889   0.09152   0.94713   0.00000  Uiso   1.00
H401   H     0.72782   0.12973   0.76971   0.00000  Uiso   1.00
H402   H     0.74790   0.27359   0.89327   0.00000  Uiso   1.00
H403   H     0.78963   0.00832   0.03756   0.00000  Uiso   1.00
H404   H     0.68194   0.08890   0.66347   0.00000  Uiso   1.00
H405   H     0.72427   0.39226   0.92402   0.00000  Uiso   1.00
O406   O     0.72323   0.95233   0.10980   0.00000  Uiso   1.00
O407   O     0.58195   0.05807   0.61900   0.00000  Uiso   1.00
O408   O     0.63749   0.45606   0.96083   0.00000  Uiso   1.00
N409   N     0.65607   0.00661   0.06012   0.00000  Uiso   1.00
N410   N     0.55540   0.08194   0.71037   0.00000  Uiso   1.00
N411   N     0.59497   0.36556   0.95395   0.00000  Uiso   1.00
N412   N     0.74689   0.01486   0.03694   0.00000  Uiso   1.00
N413   N     0.64622   0.09019   0.68719   0.00000  Uiso   1.00
N414   N     0.68579   0.37381   0.93076   0.00000  Uiso   1.00
C415   C     0.40584   0.84936   0.91022   0.00000  Uiso   1.00
C416   C     0.36658   0.88703   0.94587   0.00000  Uiso   1.00
C417   C     0.38416   0.92331   0.98876   0.00000  Uiso   1.00
C418   C     0.34163   0.95417   0.01635   0.00000  Uiso   1.00
C419   C     0.28950   0.01349   0.07394   0.00000  Uiso   1.00
C420   C     0.39432   0.86628   0.84948   0.00000  Uiso   1.00
C421   C     0.43524   0.88510   0.81132   0.00000  Uiso   1.00
C422   C     0.41606   0.89848   0.75776   0.00000  Uiso   1.00
C423   C     0.40701   0.92554   0.66569   0.00000  Uiso   1.00
C424   C     0.38342   0.78812   0.91662   0.00000  Uiso   1.00
C425   C     0.41516   0.74121   0.93489   0.00000  Uiso   1.00
C426   C     0.38680   0.68879   0.93785   0.00000  Uiso   1.00
C427   C     0.36082   0.59449   0.95002   0.00000  Uiso   1.00
C428   C     0.29903   0.83965   0.88295   0.00000  Uiso   1.00
C429   C     0.30857   0.88176   0.93106   0.00000  Uiso   1.00
C430   C     0.26600   0.91257   0.95860   0.00000  Uiso   1.00
C431   C     0.28351   0.94888   0.00152   0.00000  Uiso   1.00
C432   C     0.33632   0.86100   0.83467   0.00000  Uiso   1.00
C433   C     0.31707   0.87436   0.78115   0.00000  Uiso   1.00
C434   C     0.35794   0.89320   0.74292   0.00000  Uiso   1.00
C435   C     0.32541   0.78284   0.90181   0.00000  Uiso   1.00
C436   C     0.29700   0.73048   0.90473   0.00000  Uiso   1.00
C437   C     0.32869   0.68350   0.92301   0.00000  Uiso   1.00
H438   H     0.45100   0.85346   0.92174   0.00000  Uiso   1.00
H439   H     0.42906   0.92738   0.00020   0.00000  Uiso   1.00
H440   H     0.48013   0.88917   0.82279   0.00000  Uiso   1.00
H441   H     0.46005   0.74531   0.94635   0.00000  Uiso   1.00
H442   H     0.37915   0.00702   0.08064   0.00000  Uiso   1.00
H443   H     0.48683   0.92644   0.70655   0.00000  Uiso   1.00
H444   H     0.44451   0.62308   0.96710   0.00000  Uiso   1.00
H445   H     0.25387   0.83554   0.87142   0.00000  Uiso   1.00
H446   H     0.22111   0.90848   0.94713   0.00000  Uiso   1.00
H447   H     0.27218   0.87027   0.76971   0.00000  Uiso   1.00
H448   H     0.25210   0.72641   0.89327   0.00000  Uiso   1.00
H449   H     0.21037   0.99168   0.03756   0.00000  Uiso   1.00
H450   H     0.31806   0.91110   0.66347   0.00000  Uiso   1.00
H451   H     0.27573   0.60774   0.92402   0.00000  Uiso   1.00
O452   O     0.27677   0.04767   0.10980   0.00000  Uiso   1.00
O453   O     0.41805   0.94193   0.61900   0.00000  Uiso   1.00
O454   O     0.36251   0.54394   0.96083   0.00000  Uiso   1.00
N455   N     0.34393   0.99339   0.06012   0.00000  Uiso   1.00
N456   N     0.44460   0.91806   0.71037   0.00000  Uiso   1.00
N457   N     0.40503   0.63444   0.95395   0.00000  Uiso   1.00
N458   N     0.25311   0.98514   0.03694   0.00000  Uiso   1.00
N459   N     0.35378   0.90981   0.68719   0.00000  Uiso   1.00
N460   N     0.31421   0.62619   0.93076   0.00000  Uiso   1.00
C461   C     0.34936   0.09416   0.91022   0.00000  Uiso   1.00
C462   C     0.38703   0.13342   0.94587   0.00000  Uiso   1.00
C463   C     0.42331   0.11584   0.98876   0.00000  Uiso   1.00
C464   C     0.45417   0.15837   0.01635   0.00000  Uiso   1.00
C465   C     0.51349   0.21050   0.07394   0.00000  Uiso   1.00
C466   C     0.36628   0.10568   0.84948   0.00000  Uiso   1.00
C467   C     0.38510   0.06476   0.81132   0.00000  Uiso   1.00
C468   C     0.39848   0.08394   0.75776   0.00000  Uiso   1.00
C469   C     0.42554   0.09299   0.66569   0.00000  Uiso   1.00
C470   C     0.28812   0.11658   0.91662   0.00000  Uiso   1.00
C471   C     0.24121   0.08484   0.93489   0.00000  Uiso   1.00
C472   C     0.18879   0.11320   0.93785   0.00000  Uiso   1.00
C473   C     0.09449   0.13918   0.95002   0.00000  Uiso   1.00
C474   C     0.33965   0.20097   0.88295   0.00000  Uiso   1.00
C475   C     0.38176   0.19143   0.93106   0.00000  Uiso   1.00
C476   C     0.41257   0.23400   0.95860   0.00000  Uiso   1.00
C477   C     0.44888   0.21649   0.00152   0.00000  Uiso   1.00
C478   C     0.36100   0.16368   0.83467   0.00000  Uiso   1.00
C479   C     0.37436   0.18293   0.78115   0.00000  Uiso   1.00
C480   C     0.39320   0.14206   0.74292   0.00000  Uiso   1.00
C481   C     0.28284   0.17459   0.90181   0.00000  Uiso   1.00
C482   C     0.23048   0.20300   0.90473   0.00000  Uiso   1.00
C483   C     0.18350   0.17131   0.92301   0.00000  Uiso   1.00
H484   H     0.35346   0.04900   0.92174   0.00000  Uiso   1.00
H485   H     0.42738   0.07094   0.00020   0.00000  Uiso   1.00
H486   H     0.38917   0.01987   0.82279   0.00000  Uiso   1.00
H487   H     0.24531   0.03995   0.94635   0.00000  Uiso   1.00
H488   H     0.50702   0.12085   0.08064   0.00000  Uiso   1.00
H489   H     0.42644   0.01317   0.70655   0.00000  Uiso   1.00
H490   H     0.12308   0.05549   0.96710   0.00000  Uiso   1.00
H491   H     0.33554   0.24613   0.87142   0.00000  Uiso   1.00
H492   H     0.40848   0.27889   0.94713   0.00000  Uiso   1.00
H493   H     0.37027   0.22782   0.76971   0.00000  Uiso   1.00
H494   H     0.22641   0.24790   0.89327   0.00000  Uiso   1.00
H495   H     0.49168   0.28963   0.03756   0.00000  Uiso   1.00
H496   H     0.41110   0.18194   0.66347   0.00000  Uiso   1.00
H497   H     0.10774   0.22427   0.92402   0.00000  Uiso   1.00
O498   O     0.54767   0.22323   0.10980   0.00000  Uiso   1.00
O499   O     0.44193   0.08195   0.61900   0.00000  Uiso   1.00
O500   O     0.04394   0.13749   0.96083   0.00000  Uiso   1.00
N501   N     0.49339   0.15607   0.06012   0.00000  Uiso   1.00
N502   N     0.41806   0.05540   0.71037   0.00000  Uiso   1.00
N503   N     0.13444   0.09497   0.95395   0.00000  Uiso   1.00
N504   N     0.48514   0.24689   0.03694   0.00000  Uiso   1.00
N505   N     0.40981   0.14622   0.68719   0.00000  Uiso   1.00
N506   N     0.12619   0.18579   0.93076   0.00000  Uiso   1.00
C507   C     0.65064   0.90584   0.91022   0.00000  Uiso   1.00
C508   C     0.61297   0.86658   0.94587   0.00000  Uiso   1.00
C509   C     0.57669   0.88416   0.98876   0.00000  Uiso   1.00
C510   C     0.54583   0.84163   0.01635   0.00000  Uiso   1.00
C511   C     0.48651   0.78950   0.07394   0.00000  Uiso   1.00
C512   C     0.63372   0.89432   0.84948   0.00000  Uiso   1.00
C513   C     0.61490   0.93524   0.81132   0.00000  Uiso   1.00
C514   C     0.60152   0.91606   0.75776   0.00000  Uiso   1.00
C515   C     0.57446   0.90701   0.66569   0.00000  Uiso   1.00
C516   C     0.71188   0.88342   0.91662   0.00000  Uiso   1.00
C517   C     0.75879   0.91516   0.93489   0.00000  Uiso   1.00
C518   C     0.81121   0.88680   0.93785   0.00000  Uiso   1.00
C519   C     0.90551   0.86082   0.95002   0.00000  Uiso   1.00
C520   C     0.66035   0.79903   0.88295   0.00000  Uiso   1.00
C521   C     0.61824   0.80857   0.93106   0.00000  Uiso   1.00
C522   C     0.58743   0.76600   0.95860   0.00000  Uiso   1.00
C523   C     0.55112   0.78351   0.00152   0.00000  Uiso   1.00
C524   C     0.63900   0.83632   0.83467   0.00000  Uiso   1.00
C525   C     0.62564   0.81707   0.78115   0.00000  Uiso   1.00
C526   C     0.60680   0.85794   0.74292   0.00000  Uiso   1.00
C527   C     0.71716   0.82541   0.90181   0.00000  Uiso   1.00
C528   C     0.76952   0.79700   0.90473   0.00000  Uiso   1.00
C529   C     0.81650   0.82869   0.92301   0.00000  Uiso   1.00
H530   H     0.64654   0.95100   0.92174   0.00000  Uiso   1.00
H531   H     0.57262   0.92906   0.00020   0.00000  Uiso   1.00
H532   H     0.61083   0.98013   0.82279   0.00000  Uiso   1.00
H533   H     0.75469   0.96005   0.94635   0.00000  Uiso   1.00
H534   H     0.49298   0.87915   0.08064   0.00000  Uiso   1.00
H535   H     0.57356   0.98683   0.70655   0.00000  Uiso   1.00
H536   H     0.87692   0.94451   0.96710   0.00000  Uiso   1.00
H537   H     0.66446   0.75387   0.87142   0.00000  Uiso   1.00
H538   H     0.59152   0.72111   0.94713   0.00000  Uiso   1.00
H539   H     0.62973   0.77218   0.76971   0.00000  Uiso   1.00
H540   H     0.77359   0.75210   0.89327   0.00000  Uiso   1.00
H541   H     0.50832   0.71037   0.03756   0.00000  Uiso   1.00
H542   H     0.58890   0.81806   0.66347   0.00000  Uiso   1.00
H543   H     0.89226   0.77573   0.92402   0.00000  Uiso   1.00
O544   O     0.45233   0.77677   0.10980   0.00000  Uiso   1.00
O545   O     0.55807   0.91805   0.61900   0.00000  Uiso   1.00
O546   O     0.95606   0.86251   0.96083   0.00000  Uiso   1.00
N547   N     0.50661   0.84393   0.06012   0.00000  Uiso   1.00
N548   N     0.58194   0.94460   0.71037   0.00000  Uiso   1.00
N549   N     0.86556   0.90503   0.95395   0.00000  Uiso   1.00
N550   N     0.51486   0.75311   0.03694   0.00000  Uiso   1.00
N551   N     0.59019   0.85378   0.68719   0.00000  Uiso   1.00
N552   N     0.87381   0.81421   0.93076   0.00000  Uiso   1.00
C553   C     0.90584   0.65064   0.58978   0.00000  Uiso   1.00
C554   C     0.86658   0.61297   0.55413   0.00000  Uiso   1.00
C555   C     0.88416   0.57669   0.51124   0.00000  Uiso   1.00
C556   C     0.84163   0.54583   0.48365   0.00000  Uiso   1.00
C557   C     0.78950   0.48651   0.42606   0.00000  Uiso   1.00
C558   C     0.89432   0.63372   0.65052   0.00000  Uiso   1.00
C559   C     0.93524   0.61490   0.68868   0.00000  Uiso   1.00
C560   C     0.91606   0.60152   0.74224   0.00000  Uiso   1.00
C561   C     0.90701   0.57446   0.83431   0.00000  Uiso   1.00
C562   C     0.88342   0.71188   0.58338   0.00000  Uiso   1.00
C563   C     0.91516   0.75879   0.56511   0.00000  Uiso   1.00
C564   C     0.88680   0.81121   0.56215   0.00000  Uiso   1.00
C565   C     0.86082   0.90551   0.54998   0.00000  Uiso   1.00
C566   C     0.79903   0.66035   0.61705   0.00000  Uiso   1.00
C567   C     0.80857   0.61824   0.56894   0.00000  Uiso   1.00
C568   C     0.76600   0.58743   0.54140   0.00000  Uiso   1.00
C569   C     0.78351   0.55112   0.49848   0.00000  Uiso   1.00
C570   C     0.83632   0.63900   0.66533   0.00000  Uiso   1.00
C571   C     0.81707   0.62564   0.71885   0.00000  Uiso   1.00
C572   C     0.85794   0.60680   0.75708   0.00000  Uiso   1.00
C573   C     0.82541   0.71716   0.59819   0.00000  Uiso   1.00
C574   C     0.79700   0.76952   0.59527   0.00000  Uiso   1.00
C575   C     0.82869   0.81650   0.57699   0.00000  Uiso   1.00
H576   H     0.95100   0.64654   0.57826   0.00000  Uiso   1.00
H577   H     0.92906   0.57262   0.49980   0.00000  Uiso   1.00
H578   H     0.98013   0.61083   0.67721   0.00000  Uiso   1.00
H579   H     0.96005   0.75469   0.55365   0.00000  Uiso   1.00
H580   H     0.87915   0.49298   0.41936   0.00000  Uiso   1.00
H581   H     0.98683   0.57356   0.79345   0.00000  Uiso   1.00
H582   H     0.94451   0.87692   0.53290   0.00000  Uiso   1.00
H583   H     0.75387   0.66446   0.62858   0.00000  Uiso   1.00
H584   H     0.72111   0.59152   0.55287   0.00000  Uiso   1.00
H585   H     0.77218   0.62973   0.73029   0.00000  Uiso   1.00
H586   H     0.75210   0.77359   0.60673   0.00000  Uiso   1.00
H587   H     0.71037   0.50832   0.46244   0.00000  Uiso   1.00
H588   H     0.81806   0.58890   0.83653   0.00000  Uiso   1.00
H589   H     0.77573   0.89226   0.57598   0.00000  Uiso   1.00
O590   O     0.77677   0.45233   0.39020   0.00000  Uiso   1.00
O591   O     0.91805   0.55807   0.88100   0.00000  Uiso   1.00
O592   O     0.86251   0.95606   0.53917   0.00000  Uiso   1.00
N593   N     0.84393   0.50661   0.43988   0.00000  Uiso   1.00
N594   N     0.94460   0.58194   0.78963   0.00000  Uiso   1.00
N595   N     0.90503   0.86556   0.54605   0.00000  Uiso   1.00
N596   N     0.75311   0.51486   0.46306   0.00000  Uiso   1.00
N597   N     0.85378   0.59019   0.81281   0.00000  Uiso   1.00
N598   N     0.81421   0.87381   0.56924   0.00000  Uiso   1.00
C599   C     0.09416   0.34936   0.58978   0.00000  Uiso   1.00
C600   C     0.13342   0.38703   0.55413   0.00000  Uiso   1.00
C601   C     0.11584   0.42331   0.51124   0.00000  Uiso   1.00
C602   C     0.15837   0.45417   0.48365   0.00000  Uiso   1.00
C603   C     0.21050   0.51349   0.42606   0.00000  Uiso   1.00
C604   C     0.10568   0.36628   0.65052   0.00000  Uiso   1.00
C605   C     0.06476   0.38510   0.68868   0.00000  Uiso   1.00
C606   C     0.08394   0.39848   0.74224   0.00000  Uiso   1.00
C607   C     0.09299   0.42554   0.83431   0.00000  Uiso   1.00
C608   C     0.11658   0.28812   0.58338   0.00000  Uiso   1.00
C609   C     0.08484   0.24121   0.56511   0.00000  Uiso   1.00
C610   C     0.11320   0.18879   0.56215   0.00000  Uiso   1.00
C611   C     0.13918   0.09449   0.54998   0.00000  Uiso   1.00
C612   C     0.20097   0.33965   0.61705   0.00000  Uiso   1.00
C613   C     0.19143   0.38176   0.56894   0.00000  Uiso   1.00
C614   C     0.23400   0.41257   0.54140   0.00000  Uiso   1.00
C615   C     0.21649   0.44888   0.49848   0.00000  Uiso   1.00
C616   C     0.16368   0.36100   0.66533   0.00000  Uiso   1.00
C617   C     0.18293   0.37436   0.71885   0.00000  Uiso   1.00
C618   C     0.14206   0.39320   0.75708   0.00000  Uiso   1.00
C619   C     0.17459   0.28284   0.59819   0.00000  Uiso   1.00
C620   C     0.20300   0.23048   0.59527   0.00000  Uiso   1.00
C621   C     0.17131   0.18350   0.57699   0.00000  Uiso   1.00
H622   H     0.04900   0.35346   0.57826   0.00000  Uiso   1.00
H623   H     0.07094   0.42738   0.49980   0.00000  Uiso   1.00
H624   H     0.01987   0.38917   0.67721   0.00000  Uiso   1.00
H625   H     0.03995   0.24531   0.55365   0.00000  Uiso   1.00
H626   H     0.12085   0.50702   0.41936   0.00000  Uiso   1.00
H627   H     0.01317   0.42644   0.79345   0.00000  Uiso   1.00
H628   H     0.05549   0.12308   0.53290   0.00000  Uiso   1.00
H629   H     0.24613   0.33554   0.62858   0.00000  Uiso   1.00
H630   H     0.27889   0.40848   0.55287   0.00000  Uiso   1.00
H631   H     0.22782   0.37027   0.73029   0.00000  Uiso   1.00
H632   H     0.24790   0.22641   0.60673   0.00000  Uiso   1.00
H633   H     0.28963   0.49168   0.46244   0.00000  Uiso   1.00
H634   H     0.18194   0.41110   0.83653   0.00000  Uiso   1.00
H635   H     0.22427   0.10774   0.57598   0.00000  Uiso   1.00
O636   O     0.22323   0.54767   0.39020   0.00000  Uiso   1.00
O637   O     0.08195   0.44193   0.88100   0.00000  Uiso   1.00
O638   O     0.13749   0.04394   0.53917   0.00000  Uiso   1.00
N639   N     0.15607   0.49339   0.43988   0.00000  Uiso   1.00
N640   N     0.05540   0.41806   0.78963   0.00000  Uiso   1.00
N641   N     0.09497   0.13444   0.54605   0.00000  Uiso   1.00
N642   N     0.24689   0.48514   0.46306   0.00000  Uiso   1.00
N643   N     0.14622   0.40981   0.81281   0.00000  Uiso   1.00
N644   N     0.18579   0.12619   0.56924   0.00000  Uiso   1.00
C645   C     0.15064   0.59416   0.58978   0.00000  Uiso   1.00
C646   C     0.11297   0.63342   0.55413   0.00000  Uiso   1.00
C647   C     0.07669   0.61584   0.51124   0.00000  Uiso   1.00
C648   C     0.04583   0.65837   0.48365   0.00000  Uiso   1.00
C649   C     0.98651   0.71050   0.42606   0.00000  Uiso   1.00
C650   C     0.13372   0.60568   0.65052   0.00000  Uiso   1.00
C651   C     0.11490   0.56476   0.68868   0.00000  Uiso   1.00
C652   C     0.10152   0.58394   0.74224   0.00000  Uiso   1.00
C653   C     0.07446   0.59299   0.83431   0.00000  Uiso   1.00
C654   C     0.21188   0.61658   0.58338   0.00000  Uiso   1.00
C655   C     0.25879   0.58484   0.56511   0.00000  Uiso   1.00
C656   C     0.31121   0.61320   0.56215   0.00000  Uiso   1.00
C657   C     0.40551   0.63918   0.54998   0.00000  Uiso   1.00
C658   C     0.16035   0.70097   0.61705   0.00000  Uiso   1.00
C659   C     0.11824   0.69143   0.56894   0.00000  Uiso   1.00
C660   C     0.08743   0.73400   0.54140   0.00000  Uiso   1.00
C661   C     0.05112   0.71649   0.49848   0.00000  Uiso   1.00
C662   C     0.13900   0.66368   0.66533   0.00000  Uiso   1.00
C663   C     0.12564   0.68293   0.71885   0.00000  Uiso   1.00
C664   C     0.10680   0.64206   0.75708   0.00000  Uiso   1.00
C665   C     0.21716   0.67459   0.59819   0.00000  Uiso   1.00
C666   C     0.26952   0.70300   0.59527   0.00000  Uiso   1.00
C667   C     0.31650   0.67131   0.57699   0.00000  Uiso   1.00
H668   H     0.14654   0.54900   0.57826   0.00000  Uiso   1.00
H669   H     0.07262   0.57094   0.49980   0.00000  Uiso   1.00
H670   H     0.11083   0.51987   0.67721   0.00000  Uiso   1.00
H671   H     0.25469   0.53995   0.55365   0.00000  Uiso   1.00
H672   H     0.99298   0.62085   0.41936   0.00000  Uiso   1.00
H673   H     0.07356   0.51317   0.79345   0.00000  Uiso   1.00
H674   H     0.37692   0.55549   0.53290   0.00000  Uiso   1.00
H675   H     0.16446   0.74613   0.62858   0.00000  Uiso   1.00
H676   H     0.09152   0.77889   0.55287   0.00000  Uiso   1.00
H677   H     0.12973   0.72782   0.73029   0.00000  Uiso   1.00
H678   H     0.27359   0.74790   0.60673   0.00000  Uiso   1.00
H679   H     0.00832   0.78963   0.46244   0.00000  Uiso   1.00
H680   H     0.08890   0.68194   0.83653   0.00000  Uiso   1.00
H681   H     0.39226   0.72427   0.57598   0.00000  Uiso   1.00
O682   O     0.95233   0.72323   0.39020   0.00000  Uiso   1.00
O683   O     0.05807   0.58195   0.88100   0.00000  Uiso   1.00
O684   O     0.45606   0.63749   0.53917   0.00000  Uiso   1.00
N685   N     0.00661   0.65607   0.43988   0.00000  Uiso   1.00
N686   N     0.08194   0.55540   0.78963   0.00000  Uiso   1.00
N687   N     0.36556   0.59497   0.54605   0.00000  Uiso   1.00
N688   N     0.01486   0.74689   0.46306   0.00000  Uiso   1.00
N689   N     0.09019   0.64622   0.81281   0.00000  Uiso   1.00
N690   N     0.37381   0.68579   0.56924   0.00000  Uiso   1.00
C691   C     0.84936   0.40584   0.58978   0.00000  Uiso   1.00
C692   C     0.88703   0.36658   0.55413   0.00000  Uiso   1.00
C693   C     0.92331   0.38416   0.51124   0.00000  Uiso   1.00
C694   C     0.95417   0.34163   0.48365   0.00000  Uiso   1.00
C695   C     0.01349   0.28950   0.42606   0.00000  Uiso   1.00
C696   C     0.86628   0.39432   0.65052   0.00000  Uiso   1.00
C697   C     0.88510   0.43524   0.68868   0.00000  Uiso   1.00
C698   C     0.89848   0.41606   0.74224   0.00000  Uiso   1.00
C699   C     0.92554   0.40701   0.83431   0.00000  Uiso   1.00
C700   C     0.78812   0.38342   0.58338   0.00000  Uiso   1.00
C701   C     0.74121   0.41516   0.56511   0.00000  Uiso   1.00
C702   C     0.68879   0.38680   0.56215   0.00000  Uiso   1.00
C703   C     0.59449   0.36082   0.54998   0.00000  Uiso   1.00
C704   C     0.83965   0.29903   0.61705   0.00000  Uiso   1.00
C705   C     0.88176   0.30857   0.56894   0.00000  Uiso   1.00
C706   C     0.91257   0.26600   0.54140   0.00000  Uiso   1.00
C707   C     0.94888   0.28351   0.49848   0.00000  Uiso   1.00
C708   C     0.86100   0.33632   0.66533   0.00000  Uiso   1.00
C709   C     0.87436   0.31707   0.71885   0.00000  Uiso   1.00
C710   C     0.89320   0.35794   0.75708   0.00000  Uiso   1.00
C711   C     0.78284   0.32541   0.59819   0.00000  Uiso   1.00
C712   C     0.73048   0.29700   0.59527   0.00000  Uiso   1.00
C713   C     0.68350   0.32869   0.57699   0.00000  Uiso   1.00
H714   H     0.85346   0.45100   0.57826   0.00000  Uiso   1.00
H715   H     0.92738   0.42906   0.49980   0.00000  Uiso   1.00
H716   H     0.88917   0.48013   0.67721   0.00000  Uiso   1.00
H717   H     0.74531   0.46005   0.55365   0.00000  Uiso   1.00
H718   H     0.00702   0.37915   0.41936   0.00000  Uiso   1.00
H719   H     0.92644   0.48683   0.79345   0.00000  Uiso   1.00
H720   H     0.62308   0.44451   0.53290   0.00000  Uiso   1.00
H721   H     0.83554   0.25387   0.62858   0.00000  Uiso   1.00
H722   H     0.90848   0.22111   0.55287   0.00000  Uiso   1.00
H723   H     0.87027   0.27218   0.73029   0.00000  Uiso   1.00
H724   H     0.72641   0.25210   0.60673   0.00000  Uiso   1.00
H725   H     0.99168   0.21037   0.46244   0.00000  Uiso   1.00
H726   H     0.91110   0.31806   0.83653   0.00000  Uiso   1.00
H727   H     0.60774   0.27573   0.57598   0.00000  Uiso   1.00
O728   O     0.04767   0.27677   0.39020   0.00000  Uiso   1.00
O729   O     0.94193   0.41805   0.88100   0.00000  Uiso   1.00
O730   O     0.54394   0.36251   0.53917   0.00000  Uiso   1.00
N731   N     0.99339   0.34393   0.43988   0.00000  Uiso   1.00
N732   N     0.91806   0.44460   0.78963   0.00000  Uiso   1.00
N733   N     0.63444   0.40503   0.54605   0.00000  Uiso   1.00
N734   N     0.98514   0.25311   0.46306   0.00000  Uiso   1.00
N735   N     0.90981   0.35378   0.81281   0.00000  Uiso   1.00
N736   N     0.62619   0.31421   0.56924   0.00000  Uiso   1.00
