data_job_00576
_audit_creation_date              2018-12-19
_audit_creation_method            'Materials Studio'
_symmetry_space_group_name_H-M    'P1'
_symmetry_Int_Tables_number       1
_symmetry_cell_setting            triclinic
loop_
_symmetry_equiv_pos_as_xyz
  x,y,z
_cell_length_a                    23.5303
_cell_length_b                    43.4924
_cell_length_c                    11.8055
_cell_angle_alpha                 90.0000
_cell_angle_beta                  90.0000
_cell_angle_gamma                 90.0000
loop_
_atom_site_label
_atom_site_type_symbol
_atom_site_fract_x
_atom_site_fract_y
_atom_site_fract_z
_atom_site_U_iso_or_equiv
_atom_site_adp_type
_atom_site_occupancy
C1     C     0.87413   0.15925   0.91502   0.00000  Uiso   1.00
C2     C     0.93075   0.14866   0.96432   0.00000  Uiso   1.00
C3     C     0.98400   0.15920   0.93197   0.00000  Uiso   1.00
C4     C     0.03060   0.14664   0.98730   0.00000  Uiso   1.00
C5     C     0.11950   0.13359   0.05094   0.00000  Uiso   1.00
C6     C     0.84449   0.13029   0.87241   0.00000  Uiso   1.00
C7     C     0.82520   0.12539   0.76279   0.00000  Uiso   1.00
C8     C     0.79919   0.09736   0.74076   0.00000  Uiso   1.00
C9     C     0.75413   0.05580   0.66174   0.00000  Uiso   1.00
C10    C     0.83899   0.17066   0.01507   0.00000  Uiso   1.00
C11    C     0.81507   0.19969   0.02539   0.00000  Uiso   1.00
C12    C     0.78441   0.20565   0.12345   0.00000  Uiso   1.00
C13    C     0.73081   0.22676   0.26592   0.00000  Uiso   1.00
C14    C     0.86221   0.11820   0.07081   0.00000  Uiso   1.00
C15    C     0.92427   0.12637   0.04894   0.00000  Uiso   1.00
C16    C     0.97081   0.11379   0.10433   0.00000  Uiso   1.00
C17    C     0.02412   0.12431   0.07207   0.00000  Uiso   1.00
C18    C     0.83801   0.10800   0.95703   0.00000  Uiso   1.00
C19    C     0.81201   0.07998   0.93516   0.00000  Uiso   1.00
C20    C     0.79270   0.07503   0.82553   0.00000  Uiso   1.00
C21    C     0.83251   0.14836   0.09969   0.00000  Uiso   1.00
C22    C     0.80188   0.15428   0.19775   0.00000  Uiso   1.00
C23    C     0.77792   0.18332   0.20822   0.00000  Uiso   1.00
H24    H     0.87917   0.17660   0.84913   0.00000  Uiso   1.00
H25    H     0.98899   0.17645   0.86647   0.00000  Uiso   1.00
H26    H     0.83022   0.14264   0.69733   0.00000  Uiso   1.00
H27    H     0.82009   0.21693   0.95989   0.00000  Uiso   1.00
H28    H     0.10789   0.16644   0.92298   0.00000  Uiso   1.00
H29    H     0.77309   0.09516   0.56635   0.00000  Uiso   1.00
H30    H     0.75173   0.25182   0.11999   0.00000  Uiso   1.00
H31    H     0.85716   0.10085   0.13669   0.00000  Uiso   1.00
H32    H     0.96578   0.09654   0.16981   0.00000  Uiso   1.00
H33    H     0.80701   0.06273   0.00066   0.00000  Uiso   1.00
H34    H     0.79688   0.13702   0.26322   0.00000  Uiso   1.00
H35    H     0.08905   0.10158   0.16918   0.00000  Uiso   1.00
H36    H     0.75425   0.03031   0.81254   0.00000  Uiso   1.00
H37    H     0.73289   0.18696   0.36619   0.00000  Uiso   1.00
O38    O     0.17032   0.13254   0.06266   0.00000  Uiso   1.00
O39    O     0.73107   0.03903   0.59477   0.00000  Uiso   1.00
O40    O     0.70305   0.24456   0.32114   0.00000  Uiso   1.00
N41    N     0.08855   0.15177   0.97640   0.00000  Uiso   1.00
N42    N     0.77554   0.08513   0.64296   0.00000  Uiso   1.00
N43    N     0.75556   0.23159   0.16056   0.00000  Uiso   1.00
N44    N     0.07842   0.11687   0.10888   0.00000  Uiso   1.00
N45    N     0.76541   0.05023   0.77543   0.00000  Uiso   1.00
N46    N     0.74542   0.19669   0.29303   0.00000  Uiso   1.00
C47    C     0.87645   0.87170   0.56680   0.00000  Uiso   1.00
C48    C     0.93747   0.88235   0.54791   0.00000  Uiso   1.00
C49    C     0.98510   0.87108   0.60342   0.00000  Uiso   1.00
C50    C     0.03715   0.88383   0.57416   0.00000  Uiso   1.00
C51    C     0.13125   0.89685   0.55732   0.00000  Uiso   1.00
C52    C     0.84276   0.90043   0.59807   0.00000  Uiso   1.00
C53    C     0.81075   0.90435   0.69575   0.00000  Uiso   1.00
C54    C     0.78307   0.93232   0.70869   0.00000  Uiso   1.00
C55    C     0.73009   0.97339   0.76969   0.00000  Uiso   1.00
C56    C     0.85444   0.86160   0.45116   0.00000  Uiso   1.00
C57    C     0.83224   0.83288   0.42531   0.00000  Uiso   1.00
C58    C     0.81439   0.82817   0.31456   0.00000  Uiso   1.00
C59    C     0.77955   0.80896   0.14745   0.00000  Uiso   1.00
C60    C     0.88420   0.91440   0.41610   0.00000  Uiso   1.00
C61    C     0.94167   0.90554   0.46606   0.00000  Uiso   1.00
C62    C     0.99367   0.91832   0.43669   0.00000  Uiso   1.00
C63    C     0.04137   0.90707   0.49215   0.00000  Uiso   1.00
C64    C     0.84696   0.92362   0.51622   0.00000  Uiso   1.00
C65    C     0.81932   0.95159   0.52902   0.00000  Uiso   1.00
C66    C     0.78728   0.95556   0.62669   0.00000  Uiso   1.00
C67    C     0.85865   0.88479   0.36930   0.00000  Uiso   1.00
C68    C     0.84082   0.88013   0.25857   0.00000  Uiso   1.00
C69    C     0.81860   0.85141   0.23256   0.00000  Uiso   1.00
H70    H     0.87317   0.85365   0.63053   0.00000  Uiso   1.00
H71    H     0.98182   0.85313   0.66678   0.00000  Uiso   1.00
H72    H     0.80749   0.88640   0.75908   0.00000  Uiso   1.00
H73    H     0.82899   0.81494   0.48867   0.00000  Uiso   1.00
H74    H     0.10413   0.86279   0.67089   0.00000  Uiso   1.00
H75    H     0.73654   0.93293   0.86549   0.00000  Uiso   1.00
H76    H     0.78187   0.78225   0.29530   0.00000  Uiso   1.00
H77    H     0.88748   0.93246   0.35237   0.00000  Uiso   1.00
H78    H     0.99692   0.93627   0.37334   0.00000  Uiso   1.00
H79    H     0.82259   0.96953   0.46565   0.00000  Uiso   1.00
H80    H     0.84409   0.89808   0.19525   0.00000  Uiso   1.00
H81    H     0.11638   0.93027   0.43273   0.00000  Uiso   1.00
H82    H     0.74879   0.00041   0.62734   0.00000  Uiso   1.00
H83    H     0.79412   0.84973   0.05714   0.00000  Uiso   1.00
O84    O     0.18199   0.89762   0.57065   0.00000  Uiso   1.00
O85    O     0.69971   0.98964   0.82596   0.00000  Uiso   1.00
O86    O     0.75919   0.79195   0.07788   0.00000  Uiso   1.00
N87    N     0.09200   0.87815   0.61194   0.00000  Uiso   1.00
N88    N     0.74833   0.94372   0.79390   0.00000  Uiso   1.00
N89    N     0.79069   0.80285   0.26082   0.00000  Uiso   1.00
N90    N     0.09859   0.91446   0.48379   0.00000  Uiso   1.00
N91    N     0.75492   0.98003   0.66574   0.00000  Uiso   1.00
N92    N     0.79728   0.83916   0.13267   0.00000  Uiso   1.00
C93    C     0.62587   0.84075   0.41502   0.00000  Uiso   1.00
C94    C     0.56925   0.85134   0.46432   0.00000  Uiso   1.00
C95    C     0.51600   0.84080   0.43197   0.00000  Uiso   1.00
C96    C     0.46940   0.85336   0.48730   0.00000  Uiso   1.00
C97    C     0.38050   0.86641   0.55094   0.00000  Uiso   1.00
C98    C     0.65551   0.86971   0.37241   0.00000  Uiso   1.00
C99    C     0.67480   0.87461   0.26279   0.00000  Uiso   1.00
C100   C     0.70081   0.90264   0.24076   0.00000  Uiso   1.00
C101   C     0.74587   0.94420   0.16174   0.00000  Uiso   1.00
C102   C     0.66101   0.82934   0.51507   0.00000  Uiso   1.00
C103   C     0.68493   0.80031   0.52539   0.00000  Uiso   1.00
C104   C     0.71559   0.79435   0.62345   0.00000  Uiso   1.00
C105   C     0.76919   0.77324   0.76592   0.00000  Uiso   1.00
C106   C     0.63779   0.88180   0.57081   0.00000  Uiso   1.00
C107   C     0.57573   0.87363   0.54894   0.00000  Uiso   1.00
C108   C     0.52919   0.88621   0.60433   0.00000  Uiso   1.00
C109   C     0.47588   0.87569   0.57207   0.00000  Uiso   1.00
C110   C     0.66199   0.89200   0.45703   0.00000  Uiso   1.00
C111   C     0.68799   0.92002   0.43516   0.00000  Uiso   1.00
C112   C     0.70730   0.92497   0.32553   0.00000  Uiso   1.00
C113   C     0.66749   0.85164   0.59969   0.00000  Uiso   1.00
C114   C     0.69812   0.84572   0.69775   0.00000  Uiso   1.00
C115   C     0.72208   0.81668   0.70822   0.00000  Uiso   1.00
H116   H     0.62083   0.82340   0.34913   0.00000  Uiso   1.00
H117   H     0.51101   0.82355   0.36647   0.00000  Uiso   1.00
H118   H     0.66978   0.85736   0.19733   0.00000  Uiso   1.00
H119   H     0.67991   0.78307   0.45989   0.00000  Uiso   1.00
H120   H     0.39211   0.83356   0.42298   0.00000  Uiso   1.00
H121   H     0.72691   0.90484   0.06635   0.00000  Uiso   1.00
H122   H     0.74827   0.74818   0.61999   0.00000  Uiso   1.00
H123   H     0.64284   0.89915   0.63669   0.00000  Uiso   1.00
H124   H     0.53422   0.90346   0.66981   0.00000  Uiso   1.00
H125   H     0.69299   0.93727   0.50066   0.00000  Uiso   1.00
H126   H     0.70312   0.86298   0.76322   0.00000  Uiso   1.00
H127   H     0.41095   0.89842   0.66918   0.00000  Uiso   1.00
H128   H     0.74575   0.96969   0.31254   0.00000  Uiso   1.00
H129   H     0.76711   0.81304   0.86619   0.00000  Uiso   1.00
O130   O     0.32968   0.86746   0.56266   0.00000  Uiso   1.00
O131   O     0.76893   0.96097   0.09477   0.00000  Uiso   1.00
O132   O     0.79695   0.75544   0.82114   0.00000  Uiso   1.00
N133   N     0.41145   0.84823   0.47640   0.00000  Uiso   1.00
N134   N     0.72446   0.91487   0.14296   0.00000  Uiso   1.00
N135   N     0.74444   0.76841   0.66056   0.00000  Uiso   1.00
N136   N     0.42158   0.88313   0.60888   0.00000  Uiso   1.00
N137   N     0.73459   0.94977   0.27543   0.00000  Uiso   1.00
N138   N     0.75458   0.80331   0.79303   0.00000  Uiso   1.00
C139   C     0.62355   0.12830   0.06680   0.00000  Uiso   1.00
C140   C     0.56253   0.11765   0.04791   0.00000  Uiso   1.00
C141   C     0.51490   0.12892   0.10342   0.00000  Uiso   1.00
C142   C     0.46285   0.11617   0.07416   0.00000  Uiso   1.00
C143   C     0.36875   0.10315   0.05732   0.00000  Uiso   1.00
C144   C     0.65724   0.09957   0.09807   0.00000  Uiso   1.00
C145   C     0.68925   0.09565   0.19575   0.00000  Uiso   1.00
C146   C     0.71693   0.06768   0.20869   0.00000  Uiso   1.00
C147   C     0.76991   0.02661   0.26969   0.00000  Uiso   1.00
C148   C     0.64556   0.13840   0.95116   0.00000  Uiso   1.00
C149   C     0.66776   0.16712   0.92531   0.00000  Uiso   1.00
C150   C     0.68561   0.17183   0.81456   0.00000  Uiso   1.00
C151   C     0.72045   0.19104   0.64745   0.00000  Uiso   1.00
C152   C     0.61580   0.08560   0.91610   0.00000  Uiso   1.00
C153   C     0.55833   0.09446   0.96606   0.00000  Uiso   1.00
C154   C     0.50633   0.08168   0.93669   0.00000  Uiso   1.00
C155   C     0.45863   0.09293   0.99215   0.00000  Uiso   1.00
C156   C     0.65304   0.07638   0.01622   0.00000  Uiso   1.00
C157   C     0.68068   0.04841   0.02902   0.00000  Uiso   1.00
C158   C     0.71272   0.04444   0.12669   0.00000  Uiso   1.00
C159   C     0.64135   0.11521   0.86930   0.00000  Uiso   1.00
C160   C     0.65918   0.11987   0.75857   0.00000  Uiso   1.00
C161   C     0.68140   0.14859   0.73256   0.00000  Uiso   1.00
H162   H     0.62683   0.14635   0.13053   0.00000  Uiso   1.00
H163   H     0.51818   0.14687   0.16678   0.00000  Uiso   1.00
H164   H     0.69251   0.11360   0.25908   0.00000  Uiso   1.00
H165   H     0.67101   0.18506   0.98867   0.00000  Uiso   1.00
H166   H     0.39587   0.13721   0.17089   0.00000  Uiso   1.00
H167   H     0.76346   0.06707   0.36549   0.00000  Uiso   1.00
H168   H     0.71813   0.21775   0.79530   0.00000  Uiso   1.00
H169   H     0.61252   0.06754   0.85237   0.00000  Uiso   1.00
H170   H     0.50308   0.06373   0.87334   0.00000  Uiso   1.00
H171   H     0.67741   0.03047   0.96565   0.00000  Uiso   1.00
H172   H     0.65591   0.10192   0.69525   0.00000  Uiso   1.00
H173   H     0.38362   0.06973   0.93273   0.00000  Uiso   1.00
H174   H     0.75121   0.99959   0.12734   0.00000  Uiso   1.00
H175   H     0.70588   0.15027   0.55714   0.00000  Uiso   1.00
O176   O     0.31801   0.10238   0.07065   0.00000  Uiso   1.00
O177   O     0.80029   0.01036   0.32596   0.00000  Uiso   1.00
O178   O     0.74081   0.20805   0.57788   0.00000  Uiso   1.00
N179   N     0.40800   0.12185   0.11194   0.00000  Uiso   1.00
N180   N     0.75167   0.05628   0.29390   0.00000  Uiso   1.00
N181   N     0.70931   0.19715   0.76082   0.00000  Uiso   1.00
N182   N     0.40141   0.08554   0.98379   0.00000  Uiso   1.00
N183   N     0.74508   0.01997   0.16574   0.00000  Uiso   1.00
N184   N     0.70272   0.16084   0.63267   0.00000  Uiso   1.00
C185   C     0.12587   0.65925   0.58498   0.00000  Uiso   1.00
C186   C     0.06925   0.64866   0.53568   0.00000  Uiso   1.00
C187   C     0.01600   0.65920   0.56803   0.00000  Uiso   1.00
C188   C     0.96940   0.64664   0.51270   0.00000  Uiso   1.00
C189   C     0.88050   0.63359   0.44906   0.00000  Uiso   1.00
C190   C     0.15551   0.63029   0.62759   0.00000  Uiso   1.00
C191   C     0.17480   0.62539   0.73721   0.00000  Uiso   1.00
C192   C     0.20081   0.59736   0.75924   0.00000  Uiso   1.00
C193   C     0.24587   0.55580   0.83826   0.00000  Uiso   1.00
C194   C     0.16101   0.67066   0.48493   0.00000  Uiso   1.00
C195   C     0.18493   0.69969   0.47461   0.00000  Uiso   1.00
C196   C     0.21559   0.70565   0.37655   0.00000  Uiso   1.00
C197   C     0.26919   0.72676   0.23408   0.00000  Uiso   1.00
C198   C     0.13779   0.61820   0.42919   0.00000  Uiso   1.00
C199   C     0.07573   0.62637   0.45106   0.00000  Uiso   1.00
C200   C     0.02919   0.61379   0.39567   0.00000  Uiso   1.00
C201   C     0.97588   0.62431   0.42793   0.00000  Uiso   1.00
C202   C     0.16199   0.60800   0.54297   0.00000  Uiso   1.00
C203   C     0.18799   0.57998   0.56484   0.00000  Uiso   1.00
C204   C     0.20730   0.57503   0.67447   0.00000  Uiso   1.00
C205   C     0.16749   0.64836   0.40031   0.00000  Uiso   1.00
C206   C     0.19812   0.65428   0.30225   0.00000  Uiso   1.00
C207   C     0.22208   0.68332   0.29178   0.00000  Uiso   1.00
H208   H     0.12083   0.67660   0.65087   0.00000  Uiso   1.00
H209   H     0.01101   0.67645   0.63353   0.00000  Uiso   1.00
H210   H     0.16978   0.64264   0.80267   0.00000  Uiso   1.00
H211   H     0.17991   0.71693   0.54011   0.00000  Uiso   1.00
H212   H     0.89211   0.66644   0.57702   0.00000  Uiso   1.00
H213   H     0.22691   0.59516   0.93365   0.00000  Uiso   1.00
H214   H     0.24827   0.75182   0.38001   0.00000  Uiso   1.00
H215   H     0.14284   0.60085   0.36331   0.00000  Uiso   1.00
H216   H     0.03422   0.59654   0.33019   0.00000  Uiso   1.00
H217   H     0.19299   0.56273   0.49934   0.00000  Uiso   1.00
H218   H     0.20312   0.63702   0.23678   0.00000  Uiso   1.00
H219   H     0.91095   0.60158   0.33082   0.00000  Uiso   1.00
H220   H     0.24575   0.53031   0.68746   0.00000  Uiso   1.00
H221   H     0.26711   0.68696   0.13381   0.00000  Uiso   1.00
O222   O     0.82968   0.63254   0.43734   0.00000  Uiso   1.00
O223   O     0.26893   0.53903   0.90523   0.00000  Uiso   1.00
O224   O     0.29695   0.74456   0.17886   0.00000  Uiso   1.00
N225   N     0.91145   0.65177   0.52360   0.00000  Uiso   1.00
N226   N     0.22446   0.58513   0.85704   0.00000  Uiso   1.00
N227   N     0.24444   0.73159   0.33944   0.00000  Uiso   1.00
N228   N     0.92158   0.61687   0.39112   0.00000  Uiso   1.00
N229   N     0.23459   0.55023   0.72457   0.00000  Uiso   1.00
N230   N     0.25458   0.69669   0.20697   0.00000  Uiso   1.00
C231   C     0.12355   0.37170   0.93320   0.00000  Uiso   1.00
C232   C     0.06253   0.38235   0.95209   0.00000  Uiso   1.00
C233   C     0.01490   0.37108   0.89658   0.00000  Uiso   1.00
C234   C     0.96285   0.38383   0.92584   0.00000  Uiso   1.00
C235   C     0.86875   0.39685   0.94268   0.00000  Uiso   1.00
C236   C     0.15724   0.40043   0.90193   0.00000  Uiso   1.00
C237   C     0.18925   0.40435   0.80425   0.00000  Uiso   1.00
C238   C     0.21693   0.43232   0.79131   0.00000  Uiso   1.00
C239   C     0.26991   0.47339   0.73031   0.00000  Uiso   1.00
C240   C     0.14556   0.36160   0.04884   0.00000  Uiso   1.00
C241   C     0.16776   0.33288   0.07469   0.00000  Uiso   1.00
C242   C     0.18561   0.32817   0.18544   0.00000  Uiso   1.00
C243   C     0.22045   0.30896   0.35255   0.00000  Uiso   1.00
C244   C     0.11580   0.41440   0.08390   0.00000  Uiso   1.00
C245   C     0.05833   0.40554   0.03394   0.00000  Uiso   1.00
C246   C     0.00633   0.41832   0.06331   0.00000  Uiso   1.00
C247   C     0.95863   0.40707   0.00785   0.00000  Uiso   1.00
C248   C     0.15304   0.42362   0.98378   0.00000  Uiso   1.00
C249   C     0.18068   0.45159   0.97098   0.00000  Uiso   1.00
C250   C     0.21272   0.45556   0.87331   0.00000  Uiso   1.00
C251   C     0.14135   0.38479   0.13070   0.00000  Uiso   1.00
C252   C     0.15918   0.38013   0.24143   0.00000  Uiso   1.00
C253   C     0.18140   0.35141   0.26744   0.00000  Uiso   1.00
H254   H     0.12683   0.35365   0.86947   0.00000  Uiso   1.00
H255   H     0.01818   0.35313   0.83322   0.00000  Uiso   1.00
H256   H     0.19251   0.38640   0.74092   0.00000  Uiso   1.00
H257   H     0.17101   0.31494   0.01133   0.00000  Uiso   1.00
H258   H     0.89587   0.36279   0.82911   0.00000  Uiso   1.00
H259   H     0.26346   0.43293   0.63451   0.00000  Uiso   1.00
H260   H     0.21813   0.28225   0.20470   0.00000  Uiso   1.00
H261   H     0.11252   0.43246   0.14763   0.00000  Uiso   1.00
H262   H     0.00308   0.43627   0.12666   0.00000  Uiso   1.00
H263   H     0.17741   0.46953   0.03435   0.00000  Uiso   1.00
H264   H     0.15591   0.39808   0.30475   0.00000  Uiso   1.00
H265   H     0.88362   0.43027   0.06727   0.00000  Uiso   1.00
H266   H     0.25121   0.50041   0.87266   0.00000  Uiso   1.00
H267   H     0.20588   0.34973   0.44286   0.00000  Uiso   1.00
O268   O     0.81801   0.39762   0.92935   0.00000  Uiso   1.00
O269   O     0.30029   0.48964   0.67404   0.00000  Uiso   1.00
O270   O     0.24081   0.29195   0.42212   0.00000  Uiso   1.00
N271   N     0.90800   0.37815   0.88806   0.00000  Uiso   1.00
N272   N     0.25167   0.44372   0.70610   0.00000  Uiso   1.00
N273   N     0.20931   0.30285   0.23918   0.00000  Uiso   1.00
N274   N     0.90141   0.41446   0.01621   0.00000  Uiso   1.00
N275   N     0.24508   0.48003   0.83426   0.00000  Uiso   1.00
N276   N     0.20272   0.33916   0.36733   0.00000  Uiso   1.00
C277   C     0.37413   0.34075   0.08498   0.00000  Uiso   1.00
C278   C     0.43075   0.35134   0.03568   0.00000  Uiso   1.00
C279   C     0.48400   0.34080   0.06803   0.00000  Uiso   1.00
C280   C     0.53060   0.35336   0.01270   0.00000  Uiso   1.00
C281   C     0.61950   0.36641   0.94906   0.00000  Uiso   1.00
C282   C     0.34449   0.36971   0.12759   0.00000  Uiso   1.00
C283   C     0.32520   0.37461   0.23721   0.00000  Uiso   1.00
C284   C     0.29919   0.40264   0.25924   0.00000  Uiso   1.00
C285   C     0.25413   0.44420   0.33826   0.00000  Uiso   1.00
C286   C     0.33899   0.32934   0.98493   0.00000  Uiso   1.00
C287   C     0.31507   0.30031   0.97461   0.00000  Uiso   1.00
C288   C     0.28441   0.29435   0.87655   0.00000  Uiso   1.00
C289   C     0.23081   0.27324   0.73408   0.00000  Uiso   1.00
C290   C     0.36221   0.38180   0.92919   0.00000  Uiso   1.00
C291   C     0.42427   0.37363   0.95106   0.00000  Uiso   1.00
C292   C     0.47081   0.38621   0.89567   0.00000  Uiso   1.00
C293   C     0.52412   0.37569   0.92793   0.00000  Uiso   1.00
C294   C     0.33801   0.39200   0.04297   0.00000  Uiso   1.00
C295   C     0.31201   0.42002   0.06484   0.00000  Uiso   1.00
C296   C     0.29270   0.42497   0.17447   0.00000  Uiso   1.00
C297   C     0.33251   0.35164   0.90031   0.00000  Uiso   1.00
C298   C     0.30188   0.34572   0.80225   0.00000  Uiso   1.00
C299   C     0.27792   0.31668   0.79178   0.00000  Uiso   1.00
H300   H     0.37917   0.32340   0.15087   0.00000  Uiso   1.00
H301   H     0.48899   0.32355   0.13353   0.00000  Uiso   1.00
H302   H     0.33022   0.35736   0.30267   0.00000  Uiso   1.00
H303   H     0.32009   0.28307   0.04011   0.00000  Uiso   1.00
H304   H     0.60789   0.33356   0.07702   0.00000  Uiso   1.00
H305   H     0.27309   0.40484   0.43365   0.00000  Uiso   1.00
H306   H     0.25173   0.24818   0.88001   0.00000  Uiso   1.00
H307   H     0.35716   0.39915   0.86331   0.00000  Uiso   1.00
H308   H     0.46578   0.40346   0.83019   0.00000  Uiso   1.00
H309   H     0.30701   0.43727   0.99934   0.00000  Uiso   1.00
H310   H     0.29688   0.36298   0.73678   0.00000  Uiso   1.00
H311   H     0.58905   0.39842   0.83082   0.00000  Uiso   1.00
H312   H     0.25425   0.46969   0.18746   0.00000  Uiso   1.00
H313   H     0.23289   0.31304   0.63381   0.00000  Uiso   1.00
O314   O     0.67032   0.36746   0.93734   0.00000  Uiso   1.00
O315   O     0.23107   0.46097   0.40523   0.00000  Uiso   1.00
O316   O     0.20305   0.25544   0.67886   0.00000  Uiso   1.00
N317   N     0.58855   0.34823   0.02360   0.00000  Uiso   1.00
N318   N     0.27554   0.41487   0.35704   0.00000  Uiso   1.00
N319   N     0.25556   0.26841   0.83944   0.00000  Uiso   1.00
N320   N     0.57842   0.38313   0.89112   0.00000  Uiso   1.00
N321   N     0.26541   0.44977   0.22457   0.00000  Uiso   1.00
N322   N     0.24542   0.30331   0.70697   0.00000  Uiso   1.00
C323   C     0.37645   0.62830   0.43320   0.00000  Uiso   1.00
C324   C     0.43747   0.61765   0.45209   0.00000  Uiso   1.00
C325   C     0.48510   0.62892   0.39658   0.00000  Uiso   1.00
C326   C     0.53715   0.61617   0.42584   0.00000  Uiso   1.00
C327   C     0.63125   0.60315   0.44268   0.00000  Uiso   1.00
C328   C     0.34276   0.59957   0.40193   0.00000  Uiso   1.00
C329   C     0.31075   0.59565   0.30425   0.00000  Uiso   1.00
C330   C     0.28307   0.56768   0.29131   0.00000  Uiso   1.00
C331   C     0.23009   0.52661   0.23031   0.00000  Uiso   1.00
C332   C     0.35444   0.63840   0.54884   0.00000  Uiso   1.00
C333   C     0.33224   0.66712   0.57469   0.00000  Uiso   1.00
C334   C     0.31439   0.67183   0.68544   0.00000  Uiso   1.00
C335   C     0.27955   0.69104   0.85255   0.00000  Uiso   1.00
C336   C     0.38420   0.58560   0.58390   0.00000  Uiso   1.00
C337   C     0.44167   0.59446   0.53394   0.00000  Uiso   1.00
C338   C     0.49367   0.58168   0.56331   0.00000  Uiso   1.00
C339   C     0.54137   0.59293   0.50785   0.00000  Uiso   1.00
C340   C     0.34696   0.57638   0.48378   0.00000  Uiso   1.00
C341   C     0.31932   0.54841   0.47098   0.00000  Uiso   1.00
C342   C     0.28728   0.54444   0.37331   0.00000  Uiso   1.00
C343   C     0.35865   0.61521   0.63070   0.00000  Uiso   1.00
C344   C     0.34082   0.61987   0.74143   0.00000  Uiso   1.00
C345   C     0.31860   0.64859   0.76744   0.00000  Uiso   1.00
H346   H     0.37317   0.64635   0.36947   0.00000  Uiso   1.00
H347   H     0.48182   0.64687   0.33322   0.00000  Uiso   1.00
H348   H     0.30749   0.61360   0.24092   0.00000  Uiso   1.00
H349   H     0.32899   0.68506   0.51133   0.00000  Uiso   1.00
H350   H     0.60413   0.63721   0.32911   0.00000  Uiso   1.00
H351   H     0.23654   0.56707   0.13451   0.00000  Uiso   1.00
H352   H     0.28187   0.71775   0.70470   0.00000  Uiso   1.00
H353   H     0.38748   0.56754   0.64763   0.00000  Uiso   1.00
H354   H     0.49692   0.56373   0.62666   0.00000  Uiso   1.00
H355   H     0.32259   0.53047   0.53435   0.00000  Uiso   1.00
H356   H     0.34409   0.60192   0.80475   0.00000  Uiso   1.00
H357   H     0.61638   0.56973   0.56727   0.00000  Uiso   1.00
H358   H     0.24879   0.49959   0.37266   0.00000  Uiso   1.00
H359   H     0.29412   0.65027   0.94286   0.00000  Uiso   1.00
O360   O     0.68199   0.60238   0.42935   0.00000  Uiso   1.00
O361   O     0.19971   0.51036   0.17404   0.00000  Uiso   1.00
O362   O     0.25919   0.70805   0.92212   0.00000  Uiso   1.00
N363   N     0.59200   0.62185   0.38806   0.00000  Uiso   1.00
N364   N     0.24833   0.55628   0.20610   0.00000  Uiso   1.00
N365   N     0.29069   0.69715   0.73918   0.00000  Uiso   1.00
N366   N     0.59859   0.58554   0.51621   0.00000  Uiso   1.00
N367   N     0.25492   0.51997   0.33426   0.00000  Uiso   1.00
N368   N     0.29728   0.66084   0.86733   0.00000  Uiso   1.00
C369   C     0.12587   0.84075   0.08498   0.00000  Uiso   1.00
C370   C     0.06925   0.85134   0.03568   0.00000  Uiso   1.00
C371   C     0.01600   0.84080   0.06803   0.00000  Uiso   1.00
C372   C     0.96940   0.85336   0.01270   0.00000  Uiso   1.00
C373   C     0.88050   0.86641   0.94906   0.00000  Uiso   1.00
C374   C     0.15551   0.86971   0.12759   0.00000  Uiso   1.00
C375   C     0.17480   0.87461   0.23721   0.00000  Uiso   1.00
C376   C     0.20081   0.90264   0.25924   0.00000  Uiso   1.00
C377   C     0.24587   0.94420   0.33826   0.00000  Uiso   1.00
C378   C     0.16101   0.82934   0.98493   0.00000  Uiso   1.00
C379   C     0.18493   0.80031   0.97461   0.00000  Uiso   1.00
C380   C     0.21559   0.79435   0.87655   0.00000  Uiso   1.00
C381   C     0.26919   0.77324   0.73408   0.00000  Uiso   1.00
C382   C     0.13779   0.88180   0.92919   0.00000  Uiso   1.00
C383   C     0.07573   0.87363   0.95106   0.00000  Uiso   1.00
C384   C     0.02919   0.88621   0.89567   0.00000  Uiso   1.00
C385   C     0.97588   0.87569   0.92793   0.00000  Uiso   1.00
C386   C     0.16199   0.89200   0.04297   0.00000  Uiso   1.00
C387   C     0.18799   0.92002   0.06484   0.00000  Uiso   1.00
C388   C     0.20730   0.92497   0.17447   0.00000  Uiso   1.00
C389   C     0.16749   0.85164   0.90031   0.00000  Uiso   1.00
C390   C     0.19812   0.84572   0.80225   0.00000  Uiso   1.00
C391   C     0.22208   0.81668   0.79178   0.00000  Uiso   1.00
H392   H     0.12083   0.82340   0.15087   0.00000  Uiso   1.00
H393   H     0.01101   0.82355   0.13353   0.00000  Uiso   1.00
H394   H     0.16978   0.85736   0.30267   0.00000  Uiso   1.00
H395   H     0.17991   0.78307   0.04011   0.00000  Uiso   1.00
H396   H     0.89211   0.83356   0.07702   0.00000  Uiso   1.00
H397   H     0.22691   0.90484   0.43365   0.00000  Uiso   1.00
H398   H     0.24827   0.74818   0.88001   0.00000  Uiso   1.00
H399   H     0.14284   0.89915   0.86331   0.00000  Uiso   1.00
H400   H     0.03422   0.90346   0.83019   0.00000  Uiso   1.00
H401   H     0.19299   0.93727   0.99934   0.00000  Uiso   1.00
H402   H     0.20312   0.86298   0.73678   0.00000  Uiso   1.00
H403   H     0.91095   0.89842   0.83082   0.00000  Uiso   1.00
H404   H     0.24575   0.96969   0.18746   0.00000  Uiso   1.00
H405   H     0.26711   0.81304   0.63381   0.00000  Uiso   1.00
O406   O     0.82968   0.86746   0.93734   0.00000  Uiso   1.00
O407   O     0.26893   0.96097   0.40523   0.00000  Uiso   1.00
O408   O     0.29695   0.75544   0.67886   0.00000  Uiso   1.00
N409   N     0.91145   0.84823   0.02360   0.00000  Uiso   1.00
N410   N     0.22446   0.91487   0.35704   0.00000  Uiso   1.00
N411   N     0.24444   0.76841   0.83944   0.00000  Uiso   1.00
N412   N     0.92158   0.88313   0.89112   0.00000  Uiso   1.00
N413   N     0.23459   0.94977   0.22457   0.00000  Uiso   1.00
N414   N     0.25458   0.80331   0.70697   0.00000  Uiso   1.00
C415   C     0.12355   0.12830   0.43320   0.00000  Uiso   1.00
C416   C     0.06253   0.11765   0.45209   0.00000  Uiso   1.00
C417   C     0.01490   0.12892   0.39658   0.00000  Uiso   1.00
C418   C     0.96285   0.11617   0.42584   0.00000  Uiso   1.00
C419   C     0.86875   0.10315   0.44268   0.00000  Uiso   1.00
C420   C     0.15724   0.09957   0.40193   0.00000  Uiso   1.00
C421   C     0.18925   0.09565   0.30425   0.00000  Uiso   1.00
C422   C     0.21693   0.06768   0.29131   0.00000  Uiso   1.00
C423   C     0.26991   0.02661   0.23031   0.00000  Uiso   1.00
C424   C     0.14556   0.13840   0.54884   0.00000  Uiso   1.00
C425   C     0.16776   0.16712   0.57469   0.00000  Uiso   1.00
C426   C     0.18561   0.17183   0.68544   0.00000  Uiso   1.00
C427   C     0.22045   0.19104   0.85255   0.00000  Uiso   1.00
C428   C     0.11580   0.08560   0.58390   0.00000  Uiso   1.00
C429   C     0.05833   0.09446   0.53394   0.00000  Uiso   1.00
C430   C     0.00633   0.08168   0.56331   0.00000  Uiso   1.00
C431   C     0.95863   0.09293   0.50785   0.00000  Uiso   1.00
C432   C     0.15304   0.07638   0.48378   0.00000  Uiso   1.00
C433   C     0.18068   0.04841   0.47098   0.00000  Uiso   1.00
C434   C     0.21272   0.04444   0.37331   0.00000  Uiso   1.00
C435   C     0.14135   0.11521   0.63070   0.00000  Uiso   1.00
C436   C     0.15918   0.11987   0.74143   0.00000  Uiso   1.00
C437   C     0.18140   0.14859   0.76744   0.00000  Uiso   1.00
H438   H     0.12683   0.14635   0.36947   0.00000  Uiso   1.00
H439   H     0.01818   0.14687   0.33322   0.00000  Uiso   1.00
H440   H     0.19251   0.11360   0.24092   0.00000  Uiso   1.00
H441   H     0.17101   0.18506   0.51133   0.00000  Uiso   1.00
H442   H     0.89587   0.13721   0.32911   0.00000  Uiso   1.00
H443   H     0.26346   0.06707   0.13451   0.00000  Uiso   1.00
H444   H     0.21813   0.21775   0.70470   0.00000  Uiso   1.00
H445   H     0.11252   0.06754   0.64763   0.00000  Uiso   1.00
H446   H     0.00308   0.06373   0.62666   0.00000  Uiso   1.00
H447   H     0.17741   0.03047   0.53435   0.00000  Uiso   1.00
H448   H     0.15591   0.10192   0.80475   0.00000  Uiso   1.00
H449   H     0.88362   0.06973   0.56727   0.00000  Uiso   1.00
H450   H     0.25121   0.99959   0.37266   0.00000  Uiso   1.00
H451   H     0.20588   0.15027   0.94286   0.00000  Uiso   1.00
O452   O     0.81801   0.10238   0.42935   0.00000  Uiso   1.00
O453   O     0.30029   0.01036   0.17404   0.00000  Uiso   1.00
O454   O     0.24081   0.20805   0.92212   0.00000  Uiso   1.00
N455   N     0.90800   0.12185   0.38806   0.00000  Uiso   1.00
N456   N     0.25167   0.05628   0.20610   0.00000  Uiso   1.00
N457   N     0.20931   0.19715   0.73918   0.00000  Uiso   1.00
N458   N     0.90141   0.08554   0.51621   0.00000  Uiso   1.00
N459   N     0.24508   0.01997   0.33426   0.00000  Uiso   1.00
N460   N     0.20272   0.16084   0.86733   0.00000  Uiso   1.00
C461   C     0.37413   0.15925   0.58498   0.00000  Uiso   1.00
C462   C     0.43075   0.14866   0.53568   0.00000  Uiso   1.00
C463   C     0.48400   0.15920   0.56803   0.00000  Uiso   1.00
C464   C     0.53060   0.14664   0.51270   0.00000  Uiso   1.00
C465   C     0.61950   0.13359   0.44906   0.00000  Uiso   1.00
C466   C     0.34449   0.13029   0.62759   0.00000  Uiso   1.00
C467   C     0.32520   0.12539   0.73721   0.00000  Uiso   1.00
C468   C     0.29919   0.09736   0.75924   0.00000  Uiso   1.00
C469   C     0.25413   0.05580   0.83826   0.00000  Uiso   1.00
C470   C     0.33899   0.17066   0.48493   0.00000  Uiso   1.00
C471   C     0.31507   0.19969   0.47461   0.00000  Uiso   1.00
C472   C     0.28441   0.20565   0.37655   0.00000  Uiso   1.00
C473   C     0.23081   0.22676   0.23408   0.00000  Uiso   1.00
C474   C     0.36221   0.11820   0.42919   0.00000  Uiso   1.00
C475   C     0.42427   0.12637   0.45106   0.00000  Uiso   1.00
C476   C     0.47081   0.11379   0.39567   0.00000  Uiso   1.00
C477   C     0.52412   0.12431   0.42793   0.00000  Uiso   1.00
C478   C     0.33801   0.10800   0.54297   0.00000  Uiso   1.00
C479   C     0.31201   0.07998   0.56484   0.00000  Uiso   1.00
C480   C     0.29270   0.07503   0.67447   0.00000  Uiso   1.00
C481   C     0.33251   0.14836   0.40031   0.00000  Uiso   1.00
C482   C     0.30188   0.15428   0.30225   0.00000  Uiso   1.00
C483   C     0.27792   0.18332   0.29178   0.00000  Uiso   1.00
H484   H     0.37917   0.17660   0.65087   0.00000  Uiso   1.00
H485   H     0.48899   0.17645   0.63353   0.00000  Uiso   1.00
H486   H     0.33022   0.14264   0.80267   0.00000  Uiso   1.00
H487   H     0.32009   0.21693   0.54011   0.00000  Uiso   1.00
H488   H     0.60789   0.16644   0.57702   0.00000  Uiso   1.00
H489   H     0.27309   0.09516   0.93365   0.00000  Uiso   1.00
H490   H     0.25173   0.25182   0.38001   0.00000  Uiso   1.00
H491   H     0.35716   0.10085   0.36331   0.00000  Uiso   1.00
H492   H     0.46578   0.09654   0.33019   0.00000  Uiso   1.00
H493   H     0.30701   0.06273   0.49934   0.00000  Uiso   1.00
H494   H     0.29688   0.13702   0.23678   0.00000  Uiso   1.00
H495   H     0.58905   0.10158   0.33082   0.00000  Uiso   1.00
H496   H     0.25425   0.03031   0.68746   0.00000  Uiso   1.00
H497   H     0.23289   0.18696   0.13381   0.00000  Uiso   1.00
O498   O     0.67032   0.13254   0.43734   0.00000  Uiso   1.00
O499   O     0.23107   0.03903   0.90523   0.00000  Uiso   1.00
O500   O     0.20305   0.24456   0.17886   0.00000  Uiso   1.00
N501   N     0.58855   0.15177   0.52360   0.00000  Uiso   1.00
N502   N     0.27554   0.08513   0.85704   0.00000  Uiso   1.00
N503   N     0.25556   0.23159   0.33944   0.00000  Uiso   1.00
N504   N     0.57842   0.11687   0.39112   0.00000  Uiso   1.00
N505   N     0.26541   0.05023   0.72457   0.00000  Uiso   1.00
N506   N     0.24542   0.19669   0.20697   0.00000  Uiso   1.00
C507   C     0.37645   0.87170   0.93320   0.00000  Uiso   1.00
C508   C     0.43747   0.88235   0.95209   0.00000  Uiso   1.00
C509   C     0.48510   0.87108   0.89658   0.00000  Uiso   1.00
C510   C     0.53715   0.88383   0.92584   0.00000  Uiso   1.00
C511   C     0.63125   0.89685   0.94268   0.00000  Uiso   1.00
C512   C     0.34276   0.90043   0.90193   0.00000  Uiso   1.00
C513   C     0.31075   0.90435   0.80425   0.00000  Uiso   1.00
C514   C     0.28307   0.93232   0.79131   0.00000  Uiso   1.00
C515   C     0.23009   0.97339   0.73031   0.00000  Uiso   1.00
C516   C     0.35444   0.86160   0.04884   0.00000  Uiso   1.00
C517   C     0.33224   0.83288   0.07469   0.00000  Uiso   1.00
C518   C     0.31439   0.82817   0.18544   0.00000  Uiso   1.00
C519   C     0.27955   0.80896   0.35255   0.00000  Uiso   1.00
C520   C     0.38420   0.91440   0.08390   0.00000  Uiso   1.00
C521   C     0.44167   0.90554   0.03394   0.00000  Uiso   1.00
C522   C     0.49367   0.91832   0.06331   0.00000  Uiso   1.00
C523   C     0.54137   0.90707   0.00785   0.00000  Uiso   1.00
C524   C     0.34696   0.92362   0.98378   0.00000  Uiso   1.00
C525   C     0.31932   0.95159   0.97098   0.00000  Uiso   1.00
C526   C     0.28728   0.95556   0.87331   0.00000  Uiso   1.00
C527   C     0.35865   0.88479   0.13070   0.00000  Uiso   1.00
C528   C     0.34082   0.88013   0.24143   0.00000  Uiso   1.00
C529   C     0.31860   0.85141   0.26744   0.00000  Uiso   1.00
H530   H     0.37317   0.85365   0.86947   0.00000  Uiso   1.00
H531   H     0.48182   0.85313   0.83322   0.00000  Uiso   1.00
H532   H     0.30749   0.88640   0.74092   0.00000  Uiso   1.00
H533   H     0.32899   0.81494   0.01133   0.00000  Uiso   1.00
H534   H     0.60413   0.86279   0.82911   0.00000  Uiso   1.00
H535   H     0.23654   0.93293   0.63451   0.00000  Uiso   1.00
H536   H     0.28187   0.78225   0.20470   0.00000  Uiso   1.00
H537   H     0.38748   0.93246   0.14763   0.00000  Uiso   1.00
H538   H     0.49692   0.93627   0.12666   0.00000  Uiso   1.00
H539   H     0.32259   0.96953   0.03435   0.00000  Uiso   1.00
H540   H     0.34409   0.89808   0.30475   0.00000  Uiso   1.00
H541   H     0.61638   0.93027   0.06727   0.00000  Uiso   1.00
H542   H     0.24879   0.00041   0.87266   0.00000  Uiso   1.00
H543   H     0.29412   0.84973   0.44286   0.00000  Uiso   1.00
O544   O     0.68199   0.89762   0.92935   0.00000  Uiso   1.00
O545   O     0.19971   0.98964   0.67404   0.00000  Uiso   1.00
O546   O     0.25919   0.79195   0.42212   0.00000  Uiso   1.00
N547   N     0.59200   0.87815   0.88806   0.00000  Uiso   1.00
N548   N     0.24833   0.94372   0.70610   0.00000  Uiso   1.00
N549   N     0.29069   0.80285   0.23918   0.00000  Uiso   1.00
N550   N     0.59859   0.91446   0.01621   0.00000  Uiso   1.00
N551   N     0.25492   0.98003   0.83426   0.00000  Uiso   1.00
N552   N     0.29728   0.83916   0.36733   0.00000  Uiso   1.00
C553   C     0.87413   0.34075   0.41502   0.00000  Uiso   1.00
C554   C     0.93075   0.35134   0.46432   0.00000  Uiso   1.00
C555   C     0.98400   0.34080   0.43197   0.00000  Uiso   1.00
C556   C     0.03060   0.35336   0.48730   0.00000  Uiso   1.00
C557   C     0.11950   0.36641   0.55094   0.00000  Uiso   1.00
C558   C     0.84449   0.36971   0.37241   0.00000  Uiso   1.00
C559   C     0.82520   0.37461   0.26279   0.00000  Uiso   1.00
C560   C     0.79919   0.40264   0.24076   0.00000  Uiso   1.00
C561   C     0.75413   0.44420   0.16174   0.00000  Uiso   1.00
C562   C     0.83899   0.32934   0.51507   0.00000  Uiso   1.00
C563   C     0.81507   0.30031   0.52539   0.00000  Uiso   1.00
C564   C     0.78441   0.29435   0.62345   0.00000  Uiso   1.00
C565   C     0.73081   0.27324   0.76592   0.00000  Uiso   1.00
C566   C     0.86221   0.38180   0.57081   0.00000  Uiso   1.00
C567   C     0.92427   0.37363   0.54894   0.00000  Uiso   1.00
C568   C     0.97081   0.38621   0.60433   0.00000  Uiso   1.00
C569   C     0.02412   0.37569   0.57207   0.00000  Uiso   1.00
C570   C     0.83801   0.39200   0.45703   0.00000  Uiso   1.00
C571   C     0.81201   0.42002   0.43516   0.00000  Uiso   1.00
C572   C     0.79270   0.42497   0.32553   0.00000  Uiso   1.00
C573   C     0.83251   0.35164   0.59969   0.00000  Uiso   1.00
C574   C     0.80188   0.34572   0.69775   0.00000  Uiso   1.00
C575   C     0.77792   0.31668   0.70822   0.00000  Uiso   1.00
H576   H     0.87917   0.32340   0.34913   0.00000  Uiso   1.00
H577   H     0.98899   0.32355   0.36647   0.00000  Uiso   1.00
H578   H     0.83022   0.35736   0.19733   0.00000  Uiso   1.00
H579   H     0.82009   0.28307   0.45989   0.00000  Uiso   1.00
H580   H     0.10789   0.33356   0.42298   0.00000  Uiso   1.00
H581   H     0.77309   0.40484   0.06635   0.00000  Uiso   1.00
H582   H     0.75173   0.24818   0.61999   0.00000  Uiso   1.00
H583   H     0.85716   0.39915   0.63669   0.00000  Uiso   1.00
H584   H     0.96578   0.40346   0.66981   0.00000  Uiso   1.00
H585   H     0.80701   0.43727   0.50066   0.00000  Uiso   1.00
H586   H     0.79688   0.36298   0.76322   0.00000  Uiso   1.00
H587   H     0.08905   0.39842   0.66918   0.00000  Uiso   1.00
H588   H     0.75425   0.46969   0.31254   0.00000  Uiso   1.00
H589   H     0.73289   0.31304   0.86619   0.00000  Uiso   1.00
O590   O     0.17032   0.36746   0.56266   0.00000  Uiso   1.00
O591   O     0.73107   0.46097   0.09477   0.00000  Uiso   1.00
O592   O     0.70305   0.25544   0.82114   0.00000  Uiso   1.00
N593   N     0.08855   0.34823   0.47640   0.00000  Uiso   1.00
N594   N     0.77554   0.41487   0.14296   0.00000  Uiso   1.00
N595   N     0.75556   0.26841   0.66056   0.00000  Uiso   1.00
N596   N     0.07842   0.38313   0.60888   0.00000  Uiso   1.00
N597   N     0.76541   0.44977   0.27543   0.00000  Uiso   1.00
N598   N     0.74542   0.30331   0.79303   0.00000  Uiso   1.00
C599   C     0.87645   0.62830   0.06680   0.00000  Uiso   1.00
C600   C     0.93747   0.61765   0.04791   0.00000  Uiso   1.00
C601   C     0.98510   0.62892   0.10342   0.00000  Uiso   1.00
C602   C     0.03715   0.61617   0.07416   0.00000  Uiso   1.00
C603   C     0.13125   0.60315   0.05732   0.00000  Uiso   1.00
C604   C     0.84276   0.59957   0.09807   0.00000  Uiso   1.00
C605   C     0.81075   0.59565   0.19575   0.00000  Uiso   1.00
C606   C     0.78307   0.56768   0.20869   0.00000  Uiso   1.00
C607   C     0.73009   0.52661   0.26969   0.00000  Uiso   1.00
C608   C     0.85444   0.63840   0.95116   0.00000  Uiso   1.00
C609   C     0.83224   0.66712   0.92531   0.00000  Uiso   1.00
C610   C     0.81439   0.67183   0.81456   0.00000  Uiso   1.00
C611   C     0.77955   0.69104   0.64745   0.00000  Uiso   1.00
C612   C     0.88420   0.58560   0.91610   0.00000  Uiso   1.00
C613   C     0.94167   0.59446   0.96606   0.00000  Uiso   1.00
C614   C     0.99367   0.58168   0.93669   0.00000  Uiso   1.00
C615   C     0.04137   0.59293   0.99215   0.00000  Uiso   1.00
C616   C     0.84696   0.57638   0.01622   0.00000  Uiso   1.00
C617   C     0.81932   0.54841   0.02902   0.00000  Uiso   1.00
C618   C     0.78728   0.54444   0.12669   0.00000  Uiso   1.00
C619   C     0.85865   0.61521   0.86930   0.00000  Uiso   1.00
C620   C     0.84082   0.61987   0.75857   0.00000  Uiso   1.00
C621   C     0.81860   0.64859   0.73256   0.00000  Uiso   1.00
H622   H     0.87317   0.64635   0.13053   0.00000  Uiso   1.00
H623   H     0.98182   0.64687   0.16678   0.00000  Uiso   1.00
H624   H     0.80749   0.61360   0.25908   0.00000  Uiso   1.00
H625   H     0.82899   0.68506   0.98867   0.00000  Uiso   1.00
H626   H     0.10413   0.63721   0.17089   0.00000  Uiso   1.00
H627   H     0.73654   0.56707   0.36549   0.00000  Uiso   1.00
H628   H     0.78187   0.71775   0.79530   0.00000  Uiso   1.00
H629   H     0.88748   0.56754   0.85237   0.00000  Uiso   1.00
H630   H     0.99692   0.56373   0.87334   0.00000  Uiso   1.00
H631   H     0.82259   0.53047   0.96565   0.00000  Uiso   1.00
H632   H     0.84409   0.60192   0.69525   0.00000  Uiso   1.00
H633   H     0.11638   0.56973   0.93273   0.00000  Uiso   1.00
H634   H     0.74879   0.49959   0.12734   0.00000  Uiso   1.00
H635   H     0.79412   0.65027   0.55714   0.00000  Uiso   1.00
O636   O     0.18199   0.60238   0.07065   0.00000  Uiso   1.00
O637   O     0.69971   0.51036   0.32596   0.00000  Uiso   1.00
O638   O     0.75919   0.70805   0.57788   0.00000  Uiso   1.00
N639   N     0.09200   0.62185   0.11194   0.00000  Uiso   1.00
N640   N     0.74833   0.55628   0.29390   0.00000  Uiso   1.00
N641   N     0.79069   0.69715   0.76082   0.00000  Uiso   1.00
N642   N     0.09859   0.58554   0.98379   0.00000  Uiso   1.00
N643   N     0.75492   0.51997   0.16574   0.00000  Uiso   1.00
N644   N     0.79728   0.66084   0.63267   0.00000  Uiso   1.00
C645   C     0.62587   0.65925   0.91502   0.00000  Uiso   1.00
C646   C     0.56925   0.64866   0.96432   0.00000  Uiso   1.00
C647   C     0.51600   0.65920   0.93197   0.00000  Uiso   1.00
C648   C     0.46940   0.64664   0.98730   0.00000  Uiso   1.00
C649   C     0.38050   0.63359   0.05094   0.00000  Uiso   1.00
C650   C     0.65551   0.63029   0.87241   0.00000  Uiso   1.00
C651   C     0.67480   0.62539   0.76279   0.00000  Uiso   1.00
C652   C     0.70081   0.59736   0.74076   0.00000  Uiso   1.00
C653   C     0.74587   0.55580   0.66174   0.00000  Uiso   1.00
C654   C     0.66101   0.67066   0.01507   0.00000  Uiso   1.00
C655   C     0.68493   0.69969   0.02539   0.00000  Uiso   1.00
C656   C     0.71559   0.70565   0.12345   0.00000  Uiso   1.00
C657   C     0.76919   0.72676   0.26592   0.00000  Uiso   1.00
C658   C     0.63779   0.61820   0.07081   0.00000  Uiso   1.00
C659   C     0.57573   0.62637   0.04894   0.00000  Uiso   1.00
C660   C     0.52919   0.61379   0.10433   0.00000  Uiso   1.00
C661   C     0.47588   0.62431   0.07207   0.00000  Uiso   1.00
C662   C     0.66199   0.60800   0.95703   0.00000  Uiso   1.00
C663   C     0.68799   0.57998   0.93516   0.00000  Uiso   1.00
C664   C     0.70730   0.57503   0.82553   0.00000  Uiso   1.00
C665   C     0.66749   0.64836   0.09969   0.00000  Uiso   1.00
C666   C     0.69812   0.65428   0.19775   0.00000  Uiso   1.00
C667   C     0.72208   0.68332   0.20822   0.00000  Uiso   1.00
H668   H     0.62083   0.67660   0.84913   0.00000  Uiso   1.00
H669   H     0.51101   0.67645   0.86647   0.00000  Uiso   1.00
H670   H     0.66978   0.64264   0.69733   0.00000  Uiso   1.00
H671   H     0.67991   0.71693   0.95989   0.00000  Uiso   1.00
H672   H     0.39211   0.66644   0.92298   0.00000  Uiso   1.00
H673   H     0.72691   0.59516   0.56635   0.00000  Uiso   1.00
H674   H     0.74827   0.75182   0.11999   0.00000  Uiso   1.00
H675   H     0.64284   0.60085   0.13669   0.00000  Uiso   1.00
H676   H     0.53422   0.59654   0.16981   0.00000  Uiso   1.00
H677   H     0.69299   0.56273   0.00066   0.00000  Uiso   1.00
H678   H     0.70312   0.63702   0.26322   0.00000  Uiso   1.00
H679   H     0.41095   0.60158   0.16918   0.00000  Uiso   1.00
H680   H     0.74575   0.53031   0.81254   0.00000  Uiso   1.00
H681   H     0.76711   0.68696   0.36619   0.00000  Uiso   1.00
O682   O     0.32968   0.63254   0.06266   0.00000  Uiso   1.00
O683   O     0.76893   0.53903   0.59477   0.00000  Uiso   1.00
O684   O     0.79695   0.74456   0.32114   0.00000  Uiso   1.00
N685   N     0.41145   0.65177   0.97640   0.00000  Uiso   1.00
N686   N     0.72446   0.58513   0.64296   0.00000  Uiso   1.00
N687   N     0.74444   0.73159   0.16056   0.00000  Uiso   1.00
N688   N     0.42158   0.61687   0.10888   0.00000  Uiso   1.00
N689   N     0.73459   0.55023   0.77543   0.00000  Uiso   1.00
N690   N     0.75458   0.69669   0.29303   0.00000  Uiso   1.00
C691   C     0.62355   0.37170   0.56680   0.00000  Uiso   1.00
C692   C     0.56253   0.38235   0.54791   0.00000  Uiso   1.00
C693   C     0.51490   0.37108   0.60342   0.00000  Uiso   1.00
C694   C     0.46285   0.38383   0.57416   0.00000  Uiso   1.00
C695   C     0.36875   0.39685   0.55732   0.00000  Uiso   1.00
C696   C     0.65724   0.40043   0.59807   0.00000  Uiso   1.00
C697   C     0.68925   0.40435   0.69575   0.00000  Uiso   1.00
C698   C     0.71693   0.43232   0.70869   0.00000  Uiso   1.00
C699   C     0.76991   0.47339   0.76969   0.00000  Uiso   1.00
C700   C     0.64556   0.36160   0.45116   0.00000  Uiso   1.00
C701   C     0.66776   0.33288   0.42531   0.00000  Uiso   1.00
C702   C     0.68561   0.32817   0.31456   0.00000  Uiso   1.00
C703   C     0.72045   0.30896   0.14745   0.00000  Uiso   1.00
C704   C     0.61580   0.41440   0.41610   0.00000  Uiso   1.00
C705   C     0.55833   0.40554   0.46606   0.00000  Uiso   1.00
C706   C     0.50633   0.41832   0.43669   0.00000  Uiso   1.00
C707   C     0.45863   0.40707   0.49215   0.00000  Uiso   1.00
C708   C     0.65304   0.42362   0.51622   0.00000  Uiso   1.00
C709   C     0.68068   0.45159   0.52902   0.00000  Uiso   1.00
C710   C     0.71272   0.45556   0.62669   0.00000  Uiso   1.00
C711   C     0.64135   0.38479   0.36930   0.00000  Uiso   1.00
C712   C     0.65918   0.38013   0.25857   0.00000  Uiso   1.00
C713   C     0.68140   0.35141   0.23256   0.00000  Uiso   1.00
H714   H     0.62683   0.35365   0.63053   0.00000  Uiso   1.00
H715   H     0.51818   0.35313   0.66678   0.00000  Uiso   1.00
H716   H     0.69251   0.38640   0.75908   0.00000  Uiso   1.00
H717   H     0.67101   0.31494   0.48867   0.00000  Uiso   1.00
H718   H     0.39587   0.36279   0.67089   0.00000  Uiso   1.00
H719   H     0.76346   0.43293   0.86549   0.00000  Uiso   1.00
H720   H     0.71813   0.28225   0.29530   0.00000  Uiso   1.00
H721   H     0.61252   0.43246   0.35237   0.00000  Uiso   1.00
H722   H     0.50308   0.43627   0.37334   0.00000  Uiso   1.00
H723   H     0.67741   0.46953   0.46565   0.00000  Uiso   1.00
H724   H     0.65591   0.39808   0.19525   0.00000  Uiso   1.00
H725   H     0.38362   0.43027   0.43273   0.00000  Uiso   1.00
H726   H     0.75121   0.50041   0.62734   0.00000  Uiso   1.00
H727   H     0.70588   0.34973   0.05714   0.00000  Uiso   1.00
O728   O     0.31801   0.39762   0.57065   0.00000  Uiso   1.00
O729   O     0.80029   0.48964   0.82596   0.00000  Uiso   1.00
O730   O     0.74081   0.29195   0.07788   0.00000  Uiso   1.00
N731   N     0.40800   0.37815   0.61194   0.00000  Uiso   1.00
N732   N     0.75167   0.44372   0.79390   0.00000  Uiso   1.00
N733   N     0.70931   0.30285   0.26082   0.00000  Uiso   1.00
N734   N     0.40141   0.41446   0.48379   0.00000  Uiso   1.00
N735   N     0.74508   0.48003   0.66574   0.00000  Uiso   1.00
N736   N     0.70272   0.33916   0.13267   0.00000  Uiso   1.00
