data_job_02768
_audit_creation_date              2018-12-19
_audit_creation_method            'Materials Studio'
_symmetry_space_group_name_H-M    'P1'
_symmetry_Int_Tables_number       1
_symmetry_cell_setting            triclinic
loop_
_symmetry_equiv_pos_as_xyz
  x,y,z
_cell_length_a                    46.5744
_cell_length_b                    10.2741
_cell_length_c                    30.3383
_cell_angle_alpha                 90.0000
_cell_angle_beta                  90.0000
_cell_angle_gamma                 90.0000
loop_
_atom_site_label
_atom_site_type_symbol
_atom_site_fract_x
_atom_site_fract_y
_atom_site_fract_z
_atom_site_U_iso_or_equiv
_atom_site_adp_type
_atom_site_occupancy
C1     C     0.08982   0.58734   0.09971   0.00000  Uiso   1.00
C2     C     0.11678   0.63089   0.12413   0.00000  Uiso   1.00
C3     C     0.13775   0.71362   0.10766   0.00000  Uiso   1.00
C4     C     0.16076   0.74163   0.13515   0.00000  Uiso   1.00
C5     C     0.20233   0.81725   0.16661   0.00000  Uiso   1.00
C6     C     0.09057   0.43895   0.09954   0.00000  Uiso   1.00
C7     C     0.08950   0.36030   0.06239   0.00000  Uiso   1.00
C8     C     0.09045   0.22673   0.06918   0.00000  Uiso   1.00
C9     C     0.09131   0.00436   0.06246   0.00000  Uiso   1.00
C10    C     0.06458   0.62543   0.12900   0.00000  Uiso   1.00
C11    C     0.04165   0.70354   0.11661   0.00000  Uiso   1.00
C12    C     0.02071   0.72695   0.14821   0.00000  Uiso   1.00
C13    C     0.98121   0.79412   0.18723   0.00000  Uiso   1.00
C14    C     0.09341   0.48998   0.17785   0.00000  Uiso   1.00
C15    C     0.11873   0.57801   0.16657   0.00000  Uiso   1.00
C16    C     0.14172   0.60590   0.19410   0.00000  Uiso   1.00
C17    C     0.16271   0.68865   0.17767   0.00000  Uiso   1.00
C18    C     0.09252   0.38607   0.14198   0.00000  Uiso   1.00
C19    C     0.09347   0.25258   0.14883   0.00000  Uiso   1.00
C20    C     0.09240   0.17375   0.11170   0.00000  Uiso   1.00
C21    C     0.06653   0.57255   0.17144   0.00000  Uiso   1.00
C22    C     0.04562   0.59583   0.20306   0.00000  Uiso   1.00
C23    C     0.02266   0.67397   0.19072   0.00000  Uiso   1.00
H24    H     0.08831   0.62850   0.06667   0.00000  Uiso   1.00
H25    H     0.13623   0.75451   0.07481   0.00000  Uiso   1.00
H26    H     0.08799   0.40125   0.02955   0.00000  Uiso   1.00
H27    H     0.04015   0.74445   0.08377   0.00000  Uiso   1.00
H28    H     0.19023   0.87086   0.10255   0.00000  Uiso   1.00
H29    H     0.08850   0.12599   0.00711   0.00000  Uiso   1.00
H30    H     0.98761   0.84969   0.12144   0.00000  Uiso   1.00
H31    H     0.09493   0.44880   0.21089   0.00000  Uiso   1.00
H32    H     0.14322   0.56496   0.22694   0.00000  Uiso   1.00
H33    H     0.09497   0.21169   0.18168   0.00000  Uiso   1.00
H34    H     0.04713   0.55489   0.23590   0.00000  Uiso   1.00
H35    H     0.19590   0.71701   0.22602   0.00000  Uiso   1.00
H36    H     0.09417   0.97213   0.13059   0.00000  Uiso   1.00
H37    H     0.99328   0.69583   0.24492   0.00000  Uiso   1.00
O38    O     0.22472   0.87356   0.17224   0.00000  Uiso   1.00
O39    O     0.09125   0.89631   0.04703   0.00000  Uiso   1.00
O40    O     0.95888   0.84579   0.19703   0.00000  Uiso   1.00
N41    N     0.18494   0.81873   0.12941   0.00000  Uiso   1.00
N42    N     0.08983   0.12232   0.04018   0.00000  Uiso   1.00
N43    N     0.99550   0.79889   0.14706   0.00000  Uiso   1.00
N44    N     0.18799   0.73595   0.19585   0.00000  Uiso   1.00
N45    N     0.09288   0.03953   0.10662   0.00000  Uiso   1.00
N46    N     0.99855   0.71610   0.21350   0.00000  Uiso   1.00
C47    C     0.65710   0.54422   0.62117   0.00000  Uiso   1.00
C48    C     0.68323   0.56205   0.65085   0.00000  Uiso   1.00
C49    C     0.70755   0.63410   0.64068   0.00000  Uiso   1.00
C50    C     0.72911   0.63839   0.67225   0.00000  Uiso   1.00
C51    C     0.77010   0.67598   0.71221   0.00000  Uiso   1.00
C52    C     0.65335   0.39772   0.61553   0.00000  Uiso   1.00
C53    C     0.65255   0.33159   0.57566   0.00000  Uiso   1.00
C54    C     0.64895   0.19755   0.57750   0.00000  Uiso   1.00
C55    C     0.64353   0.98002   0.56262   0.00000  Uiso   1.00
C56    C     0.63133   0.59032   0.64794   0.00000  Uiso   1.00
C57    C     0.61200   0.68612   0.63532   0.00000  Uiso   1.00
C58    C     0.58985   0.71421   0.66445   0.00000  Uiso   1.00
C59    C     0.55023   0.79573   0.69989   0.00000  Uiso   1.00
C60    C     0.65215   0.42374   0.69533   0.00000  Uiso   1.00
C61    C     0.68054   0.49661   0.69113   0.00000  Uiso   1.00
C62    C     0.70207   0.50080   0.72273   0.00000  Uiso   1.00
C63    C     0.72641   0.57284   0.71261   0.00000  Uiso   1.00
C64    C     0.65066   0.33228   0.65581   0.00000  Uiso   1.00
C65    C     0.64706   0.19830   0.65771   0.00000  Uiso   1.00
C66    C     0.64625   0.13199   0.61785   0.00000  Uiso   1.00
C67    C     0.62864   0.52488   0.68823   0.00000  Uiso   1.00
C68    C     0.60651   0.55283   0.71737   0.00000  Uiso   1.00
C69    C     0.58715   0.64866   0.70480   0.00000  Uiso   1.00
H70    H     0.65920   0.59516   0.58981   0.00000  Uiso   1.00
H71    H     0.70963   0.68472   0.60950   0.00000  Uiso   1.00
H72    H     0.65463   0.38226   0.54449   0.00000  Uiso   1.00
H73    H     0.61409   0.73674   0.60415   0.00000  Uiso   1.00
H74    H     0.76435   0.75511   0.64909   0.00000  Uiso   1.00
H75    H     0.64838   0.11737   0.51202   0.00000  Uiso   1.00
H76    H     0.56288   0.86485   0.63781   0.00000  Uiso   1.00
H77    H     0.65005   0.37279   0.72669   0.00000  Uiso   1.00
H78    H     0.69998   0.45015   0.75390   0.00000  Uiso   1.00
H79    H     0.64498   0.14770   0.68889   0.00000  Uiso   1.00
H80    H     0.60444   0.50217   0.74854   0.00000  Uiso   1.00
H81    H     0.75652   0.56472   0.76629   0.00000  Uiso   1.00
H82    H     0.64055   0.92699   0.62921   0.00000  Uiso   1.00
H83    H     0.55505   0.67446   0.75501   0.00000  Uiso   1.00
O84    O     0.79345   0.71478   0.72311   0.00000  Uiso   1.00
O85    O     0.64129   0.87811   0.54328   0.00000  Uiso   1.00
O86    O     0.52913   0.85878   0.70831   0.00000  Uiso   1.00
N87    N     0.75565   0.69971   0.67295   0.00000  Uiso   1.00
N88    N     0.64723   0.10346   0.54479   0.00000  Uiso   1.00
N89    N     0.56730   0.80226   0.66239   0.00000  Uiso   1.00
N90    N     0.75144   0.59726   0.73601   0.00000  Uiso   1.00
N91    N     0.64302   0.00102   0.60785   0.00000  Uiso   1.00
N92    N     0.56308   0.69982   0.72545   0.00000  Uiso   1.00
C93    C     0.91018   0.41266   0.09971   0.00000  Uiso   1.00
C94    C     0.88322   0.36911   0.12413   0.00000  Uiso   1.00
C95    C     0.86225   0.28638   0.10766   0.00000  Uiso   1.00
C96    C     0.83924   0.25837   0.13515   0.00000  Uiso   1.00
C97    C     0.79767   0.18275   0.16661   0.00000  Uiso   1.00
C98    C     0.90943   0.56105   0.09954   0.00000  Uiso   1.00
C99    C     0.91050   0.63970   0.06239   0.00000  Uiso   1.00
C100   C     0.90955   0.77327   0.06918   0.00000  Uiso   1.00
C101   C     0.90869   0.99564   0.06246   0.00000  Uiso   1.00
C102   C     0.93542   0.37457   0.12900   0.00000  Uiso   1.00
C103   C     0.95835   0.29646   0.11661   0.00000  Uiso   1.00
C104   C     0.97929   0.27305   0.14821   0.00000  Uiso   1.00
C105   C     0.01879   0.20588   0.18723   0.00000  Uiso   1.00
C106   C     0.90659   0.51002   0.17785   0.00000  Uiso   1.00
C107   C     0.88127   0.42199   0.16657   0.00000  Uiso   1.00
C108   C     0.85828   0.39410   0.19410   0.00000  Uiso   1.00
C109   C     0.83729   0.31135   0.17767   0.00000  Uiso   1.00
C110   C     0.90748   0.61393   0.14198   0.00000  Uiso   1.00
C111   C     0.90653   0.74742   0.14883   0.00000  Uiso   1.00
C112   C     0.90760   0.82625   0.11170   0.00000  Uiso   1.00
C113   C     0.93347   0.42745   0.17144   0.00000  Uiso   1.00
C114   C     0.95438   0.40417   0.20306   0.00000  Uiso   1.00
C115   C     0.97734   0.32603   0.19072   0.00000  Uiso   1.00
H116   H     0.91169   0.37150   0.06667   0.00000  Uiso   1.00
H117   H     0.86377   0.24549   0.07481   0.00000  Uiso   1.00
H118   H     0.91201   0.59875   0.02955   0.00000  Uiso   1.00
H119   H     0.95985   0.25555   0.08377   0.00000  Uiso   1.00
H120   H     0.80977   0.12914   0.10255   0.00000  Uiso   1.00
H121   H     0.91150   0.87401   0.00711   0.00000  Uiso   1.00
H122   H     0.01239   0.15031   0.12144   0.00000  Uiso   1.00
H123   H     0.90507   0.55120   0.21089   0.00000  Uiso   1.00
H124   H     0.85678   0.43504   0.22694   0.00000  Uiso   1.00
H125   H     0.90503   0.78831   0.18168   0.00000  Uiso   1.00
H126   H     0.95287   0.44511   0.23590   0.00000  Uiso   1.00
H127   H     0.80410   0.28299   0.22602   0.00000  Uiso   1.00
H128   H     0.90583   0.02787   0.13059   0.00000  Uiso   1.00
H129   H     0.00672   0.30417   0.24492   0.00000  Uiso   1.00
O130   O     0.77528   0.12644   0.17224   0.00000  Uiso   1.00
O131   O     0.90875   0.10369   0.04703   0.00000  Uiso   1.00
O132   O     0.04112   0.15421   0.19703   0.00000  Uiso   1.00
N133   N     0.81506   0.18127   0.12941   0.00000  Uiso   1.00
N134   N     0.91017   0.87768   0.04018   0.00000  Uiso   1.00
N135   N     0.00450   0.20111   0.14706   0.00000  Uiso   1.00
N136   N     0.81201   0.26405   0.19585   0.00000  Uiso   1.00
N137   N     0.90712   0.96047   0.10662   0.00000  Uiso   1.00
N138   N     0.00145   0.28390   0.21350   0.00000  Uiso   1.00
C139   C     0.34290   0.45578   0.62117   0.00000  Uiso   1.00
C140   C     0.31677   0.43795   0.65085   0.00000  Uiso   1.00
C141   C     0.29245   0.36590   0.64068   0.00000  Uiso   1.00
C142   C     0.27089   0.36161   0.67225   0.00000  Uiso   1.00
C143   C     0.22990   0.32402   0.71221   0.00000  Uiso   1.00
C144   C     0.34665   0.60228   0.61553   0.00000  Uiso   1.00
C145   C     0.34745   0.66841   0.57566   0.00000  Uiso   1.00
C146   C     0.35105   0.80245   0.57750   0.00000  Uiso   1.00
C147   C     0.35647   0.01998   0.56262   0.00000  Uiso   1.00
C148   C     0.36867   0.40968   0.64794   0.00000  Uiso   1.00
C149   C     0.38800   0.31388   0.63532   0.00000  Uiso   1.00
C150   C     0.41015   0.28579   0.66445   0.00000  Uiso   1.00
C151   C     0.44977   0.20427   0.69989   0.00000  Uiso   1.00
C152   C     0.34785   0.57626   0.69533   0.00000  Uiso   1.00
C153   C     0.31946   0.50339   0.69113   0.00000  Uiso   1.00
C154   C     0.29793   0.49920   0.72273   0.00000  Uiso   1.00
C155   C     0.27359   0.42716   0.71261   0.00000  Uiso   1.00
C156   C     0.34934   0.66772   0.65581   0.00000  Uiso   1.00
C157   C     0.35294   0.80170   0.65771   0.00000  Uiso   1.00
C158   C     0.35375   0.86801   0.61785   0.00000  Uiso   1.00
C159   C     0.37136   0.47512   0.68823   0.00000  Uiso   1.00
C160   C     0.39349   0.44717   0.71737   0.00000  Uiso   1.00
C161   C     0.41285   0.35134   0.70480   0.00000  Uiso   1.00
H162   H     0.34080   0.40484   0.58981   0.00000  Uiso   1.00
H163   H     0.29037   0.31528   0.60950   0.00000  Uiso   1.00
H164   H     0.34537   0.61774   0.54449   0.00000  Uiso   1.00
H165   H     0.38591   0.26326   0.60415   0.00000  Uiso   1.00
H166   H     0.23565   0.24489   0.64909   0.00000  Uiso   1.00
H167   H     0.35162   0.88263   0.51202   0.00000  Uiso   1.00
H168   H     0.43712   0.13515   0.63781   0.00000  Uiso   1.00
H169   H     0.34995   0.62721   0.72669   0.00000  Uiso   1.00
H170   H     0.30002   0.54985   0.75390   0.00000  Uiso   1.00
H171   H     0.35502   0.85230   0.68889   0.00000  Uiso   1.00
H172   H     0.39556   0.49783   0.74854   0.00000  Uiso   1.00
H173   H     0.24348   0.43528   0.76629   0.00000  Uiso   1.00
H174   H     0.35945   0.07301   0.62921   0.00000  Uiso   1.00
H175   H     0.44495   0.32554   0.75501   0.00000  Uiso   1.00
O176   O     0.20655   0.28522   0.72311   0.00000  Uiso   1.00
O177   O     0.35871   0.12189   0.54328   0.00000  Uiso   1.00
O178   O     0.47087   0.14122   0.70831   0.00000  Uiso   1.00
N179   N     0.24435   0.30029   0.67295   0.00000  Uiso   1.00
N180   N     0.35277   0.89654   0.54479   0.00000  Uiso   1.00
N181   N     0.43270   0.19774   0.66239   0.00000  Uiso   1.00
N182   N     0.24856   0.40274   0.73601   0.00000  Uiso   1.00
N183   N     0.35698   0.99898   0.60785   0.00000  Uiso   1.00
N184   N     0.43692   0.30018   0.72545   0.00000  Uiso   1.00
C185   C     0.91018   0.58734   0.90029   0.00000  Uiso   1.00
C186   C     0.88322   0.63089   0.87587   0.00000  Uiso   1.00
C187   C     0.86225   0.71362   0.89234   0.00000  Uiso   1.00
C188   C     0.83924   0.74163   0.86485   0.00000  Uiso   1.00
C189   C     0.79767   0.81725   0.83339   0.00000  Uiso   1.00
C190   C     0.90943   0.43895   0.90046   0.00000  Uiso   1.00
C191   C     0.91050   0.36030   0.93761   0.00000  Uiso   1.00
C192   C     0.90955   0.22673   0.93082   0.00000  Uiso   1.00
C193   C     0.90869   0.00436   0.93754   0.00000  Uiso   1.00
C194   C     0.93542   0.62543   0.87100   0.00000  Uiso   1.00
C195   C     0.95835   0.70354   0.88339   0.00000  Uiso   1.00
C196   C     0.97929   0.72695   0.85179   0.00000  Uiso   1.00
C197   C     0.01879   0.79412   0.81277   0.00000  Uiso   1.00
C198   C     0.90659   0.48998   0.82215   0.00000  Uiso   1.00
C199   C     0.88127   0.57801   0.83343   0.00000  Uiso   1.00
C200   C     0.85828   0.60590   0.80590   0.00000  Uiso   1.00
C201   C     0.83729   0.68865   0.82233   0.00000  Uiso   1.00
C202   C     0.90748   0.38607   0.85802   0.00000  Uiso   1.00
C203   C     0.90653   0.25258   0.85117   0.00000  Uiso   1.00
C204   C     0.90760   0.17375   0.88830   0.00000  Uiso   1.00
C205   C     0.93347   0.57255   0.82856   0.00000  Uiso   1.00
C206   C     0.95438   0.59583   0.79694   0.00000  Uiso   1.00
C207   C     0.97734   0.67397   0.80928   0.00000  Uiso   1.00
H208   H     0.91169   0.62850   0.93333   0.00000  Uiso   1.00
H209   H     0.86377   0.75451   0.92519   0.00000  Uiso   1.00
H210   H     0.91201   0.40125   0.97045   0.00000  Uiso   1.00
H211   H     0.95985   0.74445   0.91623   0.00000  Uiso   1.00
H212   H     0.80977   0.87086   0.89745   0.00000  Uiso   1.00
H213   H     0.91150   0.12599   0.99289   0.00000  Uiso   1.00
H214   H     0.01239   0.84969   0.87856   0.00000  Uiso   1.00
H215   H     0.90507   0.44880   0.78911   0.00000  Uiso   1.00
H216   H     0.85678   0.56496   0.77306   0.00000  Uiso   1.00
H217   H     0.90503   0.21169   0.81832   0.00000  Uiso   1.00
H218   H     0.95287   0.55489   0.76410   0.00000  Uiso   1.00
H219   H     0.80410   0.71701   0.77398   0.00000  Uiso   1.00
H220   H     0.90583   0.97213   0.86941   0.00000  Uiso   1.00
H221   H     0.00672   0.69583   0.75508   0.00000  Uiso   1.00
O222   O     0.77528   0.87356   0.82776   0.00000  Uiso   1.00
O223   O     0.90875   0.89631   0.95297   0.00000  Uiso   1.00
O224   O     0.04112   0.84579   0.80297   0.00000  Uiso   1.00
N225   N     0.81506   0.81873   0.87059   0.00000  Uiso   1.00
N226   N     0.91017   0.12232   0.95982   0.00000  Uiso   1.00
N227   N     0.00450   0.79889   0.85294   0.00000  Uiso   1.00
N228   N     0.81201   0.73595   0.80415   0.00000  Uiso   1.00
N229   N     0.90712   0.03953   0.89338   0.00000  Uiso   1.00
N230   N     0.00145   0.71610   0.78650   0.00000  Uiso   1.00
C231   C     0.34290   0.54422   0.37883   0.00000  Uiso   1.00
C232   C     0.31677   0.56205   0.34915   0.00000  Uiso   1.00
C233   C     0.29245   0.63410   0.35932   0.00000  Uiso   1.00
C234   C     0.27089   0.63839   0.32775   0.00000  Uiso   1.00
C235   C     0.22990   0.67598   0.28779   0.00000  Uiso   1.00
C236   C     0.34665   0.39772   0.38447   0.00000  Uiso   1.00
C237   C     0.34745   0.33159   0.42434   0.00000  Uiso   1.00
C238   C     0.35105   0.19755   0.42250   0.00000  Uiso   1.00
C239   C     0.35647   0.98002   0.43738   0.00000  Uiso   1.00
C240   C     0.36867   0.59032   0.35206   0.00000  Uiso   1.00
C241   C     0.38800   0.68612   0.36468   0.00000  Uiso   1.00
C242   C     0.41015   0.71421   0.33555   0.00000  Uiso   1.00
C243   C     0.44977   0.79573   0.30011   0.00000  Uiso   1.00
C244   C     0.34785   0.42374   0.30467   0.00000  Uiso   1.00
C245   C     0.31946   0.49661   0.30887   0.00000  Uiso   1.00
C246   C     0.29793   0.50080   0.27727   0.00000  Uiso   1.00
C247   C     0.27359   0.57284   0.28739   0.00000  Uiso   1.00
C248   C     0.34934   0.33228   0.34419   0.00000  Uiso   1.00
C249   C     0.35294   0.19830   0.34229   0.00000  Uiso   1.00
C250   C     0.35375   0.13199   0.38215   0.00000  Uiso   1.00
C251   C     0.37136   0.52488   0.31177   0.00000  Uiso   1.00
C252   C     0.39349   0.55283   0.28263   0.00000  Uiso   1.00
C253   C     0.41285   0.64866   0.29520   0.00000  Uiso   1.00
H254   H     0.34080   0.59516   0.41019   0.00000  Uiso   1.00
H255   H     0.29037   0.68472   0.39050   0.00000  Uiso   1.00
H256   H     0.34537   0.38226   0.45551   0.00000  Uiso   1.00
H257   H     0.38591   0.73674   0.39585   0.00000  Uiso   1.00
H258   H     0.23565   0.75511   0.35091   0.00000  Uiso   1.00
H259   H     0.35162   0.11737   0.48798   0.00000  Uiso   1.00
H260   H     0.43712   0.86485   0.36219   0.00000  Uiso   1.00
H261   H     0.34995   0.37279   0.27331   0.00000  Uiso   1.00
H262   H     0.30002   0.45015   0.24610   0.00000  Uiso   1.00
H263   H     0.35502   0.14770   0.31111   0.00000  Uiso   1.00
H264   H     0.39556   0.50217   0.25146   0.00000  Uiso   1.00
H265   H     0.24348   0.56472   0.23371   0.00000  Uiso   1.00
H266   H     0.35945   0.92699   0.37079   0.00000  Uiso   1.00
H267   H     0.44495   0.67446   0.24499   0.00000  Uiso   1.00
O268   O     0.20655   0.71478   0.27689   0.00000  Uiso   1.00
O269   O     0.35871   0.87811   0.45672   0.00000  Uiso   1.00
O270   O     0.47087   0.85878   0.29169   0.00000  Uiso   1.00
N271   N     0.24435   0.69971   0.32705   0.00000  Uiso   1.00
N272   N     0.35277   0.10346   0.45521   0.00000  Uiso   1.00
N273   N     0.43270   0.80226   0.33761   0.00000  Uiso   1.00
N274   N     0.24856   0.59726   0.26399   0.00000  Uiso   1.00
N275   N     0.35698   0.00102   0.39215   0.00000  Uiso   1.00
N276   N     0.43692   0.69982   0.27455   0.00000  Uiso   1.00
C277   C     0.08982   0.41266   0.90029   0.00000  Uiso   1.00
C278   C     0.11678   0.36911   0.87587   0.00000  Uiso   1.00
C279   C     0.13775   0.28638   0.89234   0.00000  Uiso   1.00
C280   C     0.16076   0.25837   0.86485   0.00000  Uiso   1.00
C281   C     0.20233   0.18275   0.83339   0.00000  Uiso   1.00
C282   C     0.09057   0.56105   0.90046   0.00000  Uiso   1.00
C283   C     0.08950   0.63970   0.93761   0.00000  Uiso   1.00
C284   C     0.09045   0.77327   0.93082   0.00000  Uiso   1.00
C285   C     0.09131   0.99564   0.93754   0.00000  Uiso   1.00
C286   C     0.06458   0.37457   0.87100   0.00000  Uiso   1.00
C287   C     0.04165   0.29646   0.88339   0.00000  Uiso   1.00
C288   C     0.02071   0.27305   0.85179   0.00000  Uiso   1.00
C289   C     0.98121   0.20588   0.81277   0.00000  Uiso   1.00
C290   C     0.09341   0.51002   0.82215   0.00000  Uiso   1.00
C291   C     0.11873   0.42199   0.83343   0.00000  Uiso   1.00
C292   C     0.14172   0.39410   0.80590   0.00000  Uiso   1.00
C293   C     0.16271   0.31135   0.82233   0.00000  Uiso   1.00
C294   C     0.09252   0.61393   0.85802   0.00000  Uiso   1.00
C295   C     0.09347   0.74742   0.85117   0.00000  Uiso   1.00
C296   C     0.09240   0.82625   0.88830   0.00000  Uiso   1.00
C297   C     0.06653   0.42745   0.82856   0.00000  Uiso   1.00
C298   C     0.04562   0.40417   0.79694   0.00000  Uiso   1.00
C299   C     0.02266   0.32603   0.80928   0.00000  Uiso   1.00
H300   H     0.08831   0.37150   0.93333   0.00000  Uiso   1.00
H301   H     0.13623   0.24549   0.92519   0.00000  Uiso   1.00
H302   H     0.08799   0.59875   0.97045   0.00000  Uiso   1.00
H303   H     0.04015   0.25555   0.91623   0.00000  Uiso   1.00
H304   H     0.19023   0.12914   0.89745   0.00000  Uiso   1.00
H305   H     0.08850   0.87401   0.99289   0.00000  Uiso   1.00
H306   H     0.98761   0.15031   0.87856   0.00000  Uiso   1.00
H307   H     0.09493   0.55120   0.78911   0.00000  Uiso   1.00
H308   H     0.14322   0.43504   0.77306   0.00000  Uiso   1.00
H309   H     0.09497   0.78831   0.81832   0.00000  Uiso   1.00
H310   H     0.04713   0.44511   0.76410   0.00000  Uiso   1.00
H311   H     0.19590   0.28299   0.77398   0.00000  Uiso   1.00
H312   H     0.09417   0.02787   0.86941   0.00000  Uiso   1.00
H313   H     0.99328   0.30417   0.75508   0.00000  Uiso   1.00
O314   O     0.22472   0.12644   0.82776   0.00000  Uiso   1.00
O315   O     0.09125   0.10369   0.95297   0.00000  Uiso   1.00
O316   O     0.95888   0.15421   0.80297   0.00000  Uiso   1.00
N317   N     0.18494   0.18127   0.87059   0.00000  Uiso   1.00
N318   N     0.08983   0.87768   0.95982   0.00000  Uiso   1.00
N319   N     0.99550   0.20111   0.85294   0.00000  Uiso   1.00
N320   N     0.18799   0.26405   0.80415   0.00000  Uiso   1.00
N321   N     0.09288   0.96047   0.89338   0.00000  Uiso   1.00
N322   N     0.99855   0.28390   0.78650   0.00000  Uiso   1.00
C323   C     0.65710   0.45578   0.37883   0.00000  Uiso   1.00
C324   C     0.68323   0.43795   0.34915   0.00000  Uiso   1.00
C325   C     0.70755   0.36590   0.35932   0.00000  Uiso   1.00
C326   C     0.72911   0.36161   0.32775   0.00000  Uiso   1.00
C327   C     0.77010   0.32402   0.28779   0.00000  Uiso   1.00
C328   C     0.65335   0.60228   0.38447   0.00000  Uiso   1.00
C329   C     0.65255   0.66841   0.42434   0.00000  Uiso   1.00
C330   C     0.64895   0.80245   0.42250   0.00000  Uiso   1.00
C331   C     0.64353   0.01998   0.43738   0.00000  Uiso   1.00
C332   C     0.63133   0.40968   0.35206   0.00000  Uiso   1.00
C333   C     0.61200   0.31388   0.36468   0.00000  Uiso   1.00
C334   C     0.58985   0.28579   0.33555   0.00000  Uiso   1.00
C335   C     0.55023   0.20427   0.30011   0.00000  Uiso   1.00
C336   C     0.65215   0.57626   0.30467   0.00000  Uiso   1.00
C337   C     0.68054   0.50339   0.30887   0.00000  Uiso   1.00
C338   C     0.70207   0.49920   0.27727   0.00000  Uiso   1.00
C339   C     0.72641   0.42716   0.28739   0.00000  Uiso   1.00
C340   C     0.65066   0.66772   0.34419   0.00000  Uiso   1.00
C341   C     0.64706   0.80170   0.34229   0.00000  Uiso   1.00
C342   C     0.64625   0.86801   0.38215   0.00000  Uiso   1.00
C343   C     0.62864   0.47512   0.31177   0.00000  Uiso   1.00
C344   C     0.60651   0.44717   0.28263   0.00000  Uiso   1.00
C345   C     0.58715   0.35134   0.29520   0.00000  Uiso   1.00
H346   H     0.65920   0.40484   0.41019   0.00000  Uiso   1.00
H347   H     0.70963   0.31528   0.39050   0.00000  Uiso   1.00
H348   H     0.65463   0.61774   0.45551   0.00000  Uiso   1.00
H349   H     0.61409   0.26326   0.39585   0.00000  Uiso   1.00
H350   H     0.76435   0.24489   0.35091   0.00000  Uiso   1.00
H351   H     0.64838   0.88263   0.48798   0.00000  Uiso   1.00
H352   H     0.56288   0.13515   0.36219   0.00000  Uiso   1.00
H353   H     0.65005   0.62721   0.27331   0.00000  Uiso   1.00
H354   H     0.69998   0.54985   0.24610   0.00000  Uiso   1.00
H355   H     0.64498   0.85230   0.31111   0.00000  Uiso   1.00
H356   H     0.60444   0.49783   0.25146   0.00000  Uiso   1.00
H357   H     0.75652   0.43528   0.23371   0.00000  Uiso   1.00
H358   H     0.64055   0.07301   0.37079   0.00000  Uiso   1.00
H359   H     0.55505   0.32554   0.24499   0.00000  Uiso   1.00
O360   O     0.79345   0.28522   0.27689   0.00000  Uiso   1.00
O361   O     0.64129   0.12189   0.45672   0.00000  Uiso   1.00
O362   O     0.52913   0.14122   0.29169   0.00000  Uiso   1.00
N363   N     0.75565   0.30029   0.32705   0.00000  Uiso   1.00
N364   N     0.64723   0.89654   0.45521   0.00000  Uiso   1.00
N365   N     0.56730   0.19774   0.33761   0.00000  Uiso   1.00
N366   N     0.75144   0.40274   0.26399   0.00000  Uiso   1.00
N367   N     0.64302   0.99898   0.39215   0.00000  Uiso   1.00
N368   N     0.56308   0.30018   0.27455   0.00000  Uiso   1.00
C369   C     0.41018   0.91266   0.90029   0.00000  Uiso   1.00
C370   C     0.38322   0.86911   0.87587   0.00000  Uiso   1.00
C371   C     0.36225   0.78638   0.89234   0.00000  Uiso   1.00
C372   C     0.33924   0.75837   0.86485   0.00000  Uiso   1.00
C373   C     0.29767   0.68275   0.83339   0.00000  Uiso   1.00
C374   C     0.40943   0.06105   0.90046   0.00000  Uiso   1.00
C375   C     0.41050   0.13970   0.93761   0.00000  Uiso   1.00
C376   C     0.40955   0.27327   0.93082   0.00000  Uiso   1.00
C377   C     0.40869   0.49564   0.93754   0.00000  Uiso   1.00
C378   C     0.43542   0.87457   0.87100   0.00000  Uiso   1.00
C379   C     0.45835   0.79646   0.88339   0.00000  Uiso   1.00
C380   C     0.47929   0.77305   0.85179   0.00000  Uiso   1.00
C381   C     0.51879   0.70588   0.81277   0.00000  Uiso   1.00
C382   C     0.40659   0.01002   0.82215   0.00000  Uiso   1.00
C383   C     0.38127   0.92199   0.83343   0.00000  Uiso   1.00
C384   C     0.35828   0.89410   0.80590   0.00000  Uiso   1.00
C385   C     0.33729   0.81135   0.82233   0.00000  Uiso   1.00
C386   C     0.40748   0.11393   0.85802   0.00000  Uiso   1.00
C387   C     0.40653   0.24742   0.85117   0.00000  Uiso   1.00
C388   C     0.40760   0.32625   0.88830   0.00000  Uiso   1.00
C389   C     0.43347   0.92745   0.82856   0.00000  Uiso   1.00
C390   C     0.45438   0.90417   0.79694   0.00000  Uiso   1.00
C391   C     0.47734   0.82603   0.80928   0.00000  Uiso   1.00
H392   H     0.41169   0.87150   0.93333   0.00000  Uiso   1.00
H393   H     0.36377   0.74549   0.92519   0.00000  Uiso   1.00
H394   H     0.41201   0.09875   0.97045   0.00000  Uiso   1.00
H395   H     0.45985   0.75555   0.91623   0.00000  Uiso   1.00
H396   H     0.30977   0.62914   0.89745   0.00000  Uiso   1.00
H397   H     0.41150   0.37401   0.99289   0.00000  Uiso   1.00
H398   H     0.51239   0.65031   0.87856   0.00000  Uiso   1.00
H399   H     0.40507   0.05120   0.78911   0.00000  Uiso   1.00
H400   H     0.35678   0.93504   0.77306   0.00000  Uiso   1.00
H401   H     0.40503   0.28831   0.81832   0.00000  Uiso   1.00
H402   H     0.45287   0.94511   0.76410   0.00000  Uiso   1.00
H403   H     0.30410   0.78299   0.77398   0.00000  Uiso   1.00
H404   H     0.40583   0.52787   0.86941   0.00000  Uiso   1.00
H405   H     0.50672   0.80417   0.75508   0.00000  Uiso   1.00
O406   O     0.27528   0.62644   0.82776   0.00000  Uiso   1.00
O407   O     0.40875   0.60369   0.95297   0.00000  Uiso   1.00
O408   O     0.54112   0.65421   0.80297   0.00000  Uiso   1.00
N409   N     0.31506   0.68127   0.87059   0.00000  Uiso   1.00
N410   N     0.41017   0.37768   0.95982   0.00000  Uiso   1.00
N411   N     0.50450   0.70111   0.85294   0.00000  Uiso   1.00
N412   N     0.31201   0.76405   0.80415   0.00000  Uiso   1.00
N413   N     0.40712   0.46047   0.89338   0.00000  Uiso   1.00
N414   N     0.50145   0.78390   0.78650   0.00000  Uiso   1.00
C415   C     0.84290   0.95578   0.37883   0.00000  Uiso   1.00
C416   C     0.81677   0.93795   0.34915   0.00000  Uiso   1.00
C417   C     0.79245   0.86590   0.35932   0.00000  Uiso   1.00
C418   C     0.77089   0.86161   0.32775   0.00000  Uiso   1.00
C419   C     0.72990   0.82402   0.28779   0.00000  Uiso   1.00
C420   C     0.84665   0.10228   0.38447   0.00000  Uiso   1.00
C421   C     0.84745   0.16841   0.42434   0.00000  Uiso   1.00
C422   C     0.85105   0.30245   0.42250   0.00000  Uiso   1.00
C423   C     0.85647   0.51998   0.43738   0.00000  Uiso   1.00
C424   C     0.86867   0.90968   0.35206   0.00000  Uiso   1.00
C425   C     0.88800   0.81388   0.36468   0.00000  Uiso   1.00
C426   C     0.91015   0.78579   0.33555   0.00000  Uiso   1.00
C427   C     0.94977   0.70427   0.30011   0.00000  Uiso   1.00
C428   C     0.84785   0.07626   0.30467   0.00000  Uiso   1.00
C429   C     0.81946   0.00339   0.30887   0.00000  Uiso   1.00
C430   C     0.79793   0.99920   0.27727   0.00000  Uiso   1.00
C431   C     0.77359   0.92716   0.28739   0.00000  Uiso   1.00
C432   C     0.84934   0.16772   0.34419   0.00000  Uiso   1.00
C433   C     0.85294   0.30170   0.34229   0.00000  Uiso   1.00
C434   C     0.85375   0.36801   0.38215   0.00000  Uiso   1.00
C435   C     0.87136   0.97512   0.31177   0.00000  Uiso   1.00
C436   C     0.89349   0.94717   0.28263   0.00000  Uiso   1.00
C437   C     0.91285   0.85134   0.29520   0.00000  Uiso   1.00
H438   H     0.84080   0.90484   0.41019   0.00000  Uiso   1.00
H439   H     0.79037   0.81528   0.39050   0.00000  Uiso   1.00
H440   H     0.84537   0.11774   0.45551   0.00000  Uiso   1.00
H441   H     0.88591   0.76326   0.39585   0.00000  Uiso   1.00
H442   H     0.73565   0.74489   0.35091   0.00000  Uiso   1.00
H443   H     0.85162   0.38263   0.48798   0.00000  Uiso   1.00
H444   H     0.93712   0.63515   0.36219   0.00000  Uiso   1.00
H445   H     0.84995   0.12721   0.27331   0.00000  Uiso   1.00
H446   H     0.80002   0.04985   0.24610   0.00000  Uiso   1.00
H447   H     0.85502   0.35230   0.31111   0.00000  Uiso   1.00
H448   H     0.89556   0.99783   0.25146   0.00000  Uiso   1.00
H449   H     0.74348   0.93528   0.23371   0.00000  Uiso   1.00
H450   H     0.85945   0.57301   0.37079   0.00000  Uiso   1.00
H451   H     0.94495   0.82554   0.24499   0.00000  Uiso   1.00
O452   O     0.70655   0.78522   0.27689   0.00000  Uiso   1.00
O453   O     0.85871   0.62189   0.45672   0.00000  Uiso   1.00
O454   O     0.97087   0.64122   0.29169   0.00000  Uiso   1.00
N455   N     0.74435   0.80029   0.32705   0.00000  Uiso   1.00
N456   N     0.85277   0.39654   0.45521   0.00000  Uiso   1.00
N457   N     0.93270   0.69774   0.33761   0.00000  Uiso   1.00
N458   N     0.74856   0.90274   0.26399   0.00000  Uiso   1.00
N459   N     0.85698   0.49898   0.39215   0.00000  Uiso   1.00
N460   N     0.93692   0.80018   0.27455   0.00000  Uiso   1.00
C461   C     0.58982   0.08734   0.90029   0.00000  Uiso   1.00
C462   C     0.61678   0.13089   0.87587   0.00000  Uiso   1.00
C463   C     0.63775   0.21362   0.89234   0.00000  Uiso   1.00
C464   C     0.66076   0.24163   0.86485   0.00000  Uiso   1.00
C465   C     0.70233   0.31725   0.83339   0.00000  Uiso   1.00
C466   C     0.59057   0.93895   0.90046   0.00000  Uiso   1.00
C467   C     0.58950   0.86030   0.93761   0.00000  Uiso   1.00
C468   C     0.59045   0.72673   0.93082   0.00000  Uiso   1.00
C469   C     0.59131   0.50436   0.93754   0.00000  Uiso   1.00
C470   C     0.56458   0.12543   0.87100   0.00000  Uiso   1.00
C471   C     0.54165   0.20354   0.88339   0.00000  Uiso   1.00
C472   C     0.52071   0.22695   0.85179   0.00000  Uiso   1.00
C473   C     0.48121   0.29412   0.81277   0.00000  Uiso   1.00
C474   C     0.59341   0.98998   0.82215   0.00000  Uiso   1.00
C475   C     0.61873   0.07801   0.83343   0.00000  Uiso   1.00
C476   C     0.64172   0.10590   0.80590   0.00000  Uiso   1.00
C477   C     0.66271   0.18865   0.82233   0.00000  Uiso   1.00
C478   C     0.59252   0.88607   0.85802   0.00000  Uiso   1.00
C479   C     0.59347   0.75258   0.85117   0.00000  Uiso   1.00
C480   C     0.59240   0.67375   0.88830   0.00000  Uiso   1.00
C481   C     0.56653   0.07255   0.82856   0.00000  Uiso   1.00
C482   C     0.54562   0.09583   0.79694   0.00000  Uiso   1.00
C483   C     0.52266   0.17397   0.80928   0.00000  Uiso   1.00
H484   H     0.58831   0.12850   0.93333   0.00000  Uiso   1.00
H485   H     0.63623   0.25451   0.92519   0.00000  Uiso   1.00
H486   H     0.58799   0.90125   0.97045   0.00000  Uiso   1.00
H487   H     0.54015   0.24445   0.91623   0.00000  Uiso   1.00
H488   H     0.69023   0.37086   0.89745   0.00000  Uiso   1.00
H489   H     0.58850   0.62599   0.99289   0.00000  Uiso   1.00
H490   H     0.48761   0.34969   0.87856   0.00000  Uiso   1.00
H491   H     0.59493   0.94880   0.78911   0.00000  Uiso   1.00
H492   H     0.64322   0.06496   0.77306   0.00000  Uiso   1.00
H493   H     0.59497   0.71169   0.81832   0.00000  Uiso   1.00
H494   H     0.54713   0.05489   0.76410   0.00000  Uiso   1.00
H495   H     0.69590   0.21701   0.77398   0.00000  Uiso   1.00
H496   H     0.59417   0.47213   0.86941   0.00000  Uiso   1.00
H497   H     0.49328   0.19583   0.75508   0.00000  Uiso   1.00
O498   O     0.72472   0.37356   0.82776   0.00000  Uiso   1.00
O499   O     0.59125   0.39631   0.95297   0.00000  Uiso   1.00
O500   O     0.45888   0.34579   0.80297   0.00000  Uiso   1.00
N501   N     0.68494   0.31873   0.87059   0.00000  Uiso   1.00
N502   N     0.58983   0.62232   0.95982   0.00000  Uiso   1.00
N503   N     0.49550   0.29889   0.85294   0.00000  Uiso   1.00
N504   N     0.68799   0.23595   0.80415   0.00000  Uiso   1.00
N505   N     0.59288   0.53953   0.89338   0.00000  Uiso   1.00
N506   N     0.49855   0.21610   0.78650   0.00000  Uiso   1.00
C507   C     0.15710   0.04422   0.37883   0.00000  Uiso   1.00
C508   C     0.18323   0.06205   0.34915   0.00000  Uiso   1.00
C509   C     0.20755   0.13410   0.35932   0.00000  Uiso   1.00
C510   C     0.22911   0.13839   0.32775   0.00000  Uiso   1.00
C511   C     0.27010   0.17598   0.28779   0.00000  Uiso   1.00
C512   C     0.15335   0.89772   0.38447   0.00000  Uiso   1.00
C513   C     0.15255   0.83159   0.42434   0.00000  Uiso   1.00
C514   C     0.14895   0.69755   0.42250   0.00000  Uiso   1.00
C515   C     0.14353   0.48002   0.43738   0.00000  Uiso   1.00
C516   C     0.13133   0.09032   0.35206   0.00000  Uiso   1.00
C517   C     0.11200   0.18612   0.36468   0.00000  Uiso   1.00
C518   C     0.08985   0.21421   0.33555   0.00000  Uiso   1.00
C519   C     0.05023   0.29573   0.30011   0.00000  Uiso   1.00
C520   C     0.15215   0.92374   0.30467   0.00000  Uiso   1.00
C521   C     0.18054   0.99661   0.30887   0.00000  Uiso   1.00
C522   C     0.20207   0.00080   0.27727   0.00000  Uiso   1.00
C523   C     0.22641   0.07284   0.28739   0.00000  Uiso   1.00
C524   C     0.15066   0.83228   0.34419   0.00000  Uiso   1.00
C525   C     0.14706   0.69830   0.34229   0.00000  Uiso   1.00
C526   C     0.14625   0.63199   0.38215   0.00000  Uiso   1.00
C527   C     0.12864   0.02488   0.31177   0.00000  Uiso   1.00
C528   C     0.10651   0.05283   0.28263   0.00000  Uiso   1.00
C529   C     0.08715   0.14866   0.29520   0.00000  Uiso   1.00
H530   H     0.15920   0.09516   0.41019   0.00000  Uiso   1.00
H531   H     0.20963   0.18472   0.39050   0.00000  Uiso   1.00
H532   H     0.15463   0.88226   0.45551   0.00000  Uiso   1.00
H533   H     0.11409   0.23674   0.39585   0.00000  Uiso   1.00
H534   H     0.26435   0.25511   0.35091   0.00000  Uiso   1.00
H535   H     0.14838   0.61737   0.48798   0.00000  Uiso   1.00
H536   H     0.06288   0.36485   0.36219   0.00000  Uiso   1.00
H537   H     0.15005   0.87279   0.27331   0.00000  Uiso   1.00
H538   H     0.19998   0.95015   0.24610   0.00000  Uiso   1.00
H539   H     0.14498   0.64770   0.31111   0.00000  Uiso   1.00
H540   H     0.10444   0.00217   0.25146   0.00000  Uiso   1.00
H541   H     0.25652   0.06472   0.23371   0.00000  Uiso   1.00
H542   H     0.14055   0.42699   0.37079   0.00000  Uiso   1.00
H543   H     0.05505   0.17446   0.24499   0.00000  Uiso   1.00
O544   O     0.29345   0.21478   0.27689   0.00000  Uiso   1.00
O545   O     0.14129   0.37811   0.45672   0.00000  Uiso   1.00
O546   O     0.02913   0.35878   0.29169   0.00000  Uiso   1.00
N547   N     0.25565   0.19971   0.32705   0.00000  Uiso   1.00
N548   N     0.14723   0.60346   0.45521   0.00000  Uiso   1.00
N549   N     0.06730   0.30226   0.33761   0.00000  Uiso   1.00
N550   N     0.25144   0.09726   0.26399   0.00000  Uiso   1.00
N551   N     0.14302   0.50102   0.39215   0.00000  Uiso   1.00
N552   N     0.06308   0.19982   0.27455   0.00000  Uiso   1.00
C553   C     0.58982   0.91266   0.09971   0.00000  Uiso   1.00
C554   C     0.61678   0.86911   0.12413   0.00000  Uiso   1.00
C555   C     0.63775   0.78638   0.10766   0.00000  Uiso   1.00
C556   C     0.66076   0.75837   0.13515   0.00000  Uiso   1.00
C557   C     0.70233   0.68275   0.16661   0.00000  Uiso   1.00
C558   C     0.59057   0.06105   0.09954   0.00000  Uiso   1.00
C559   C     0.58950   0.13970   0.06239   0.00000  Uiso   1.00
C560   C     0.59045   0.27327   0.06918   0.00000  Uiso   1.00
C561   C     0.59131   0.49564   0.06246   0.00000  Uiso   1.00
C562   C     0.56458   0.87457   0.12900   0.00000  Uiso   1.00
C563   C     0.54165   0.79646   0.11661   0.00000  Uiso   1.00
C564   C     0.52071   0.77305   0.14821   0.00000  Uiso   1.00
C565   C     0.48121   0.70588   0.18723   0.00000  Uiso   1.00
C566   C     0.59341   0.01002   0.17785   0.00000  Uiso   1.00
C567   C     0.61873   0.92199   0.16657   0.00000  Uiso   1.00
C568   C     0.64172   0.89410   0.19410   0.00000  Uiso   1.00
C569   C     0.66271   0.81135   0.17767   0.00000  Uiso   1.00
C570   C     0.59252   0.11393   0.14198   0.00000  Uiso   1.00
C571   C     0.59347   0.24742   0.14883   0.00000  Uiso   1.00
C572   C     0.59240   0.32625   0.11170   0.00000  Uiso   1.00
C573   C     0.56653   0.92745   0.17144   0.00000  Uiso   1.00
C574   C     0.54562   0.90417   0.20306   0.00000  Uiso   1.00
C575   C     0.52266   0.82603   0.19072   0.00000  Uiso   1.00
H576   H     0.58831   0.87150   0.06667   0.00000  Uiso   1.00
H577   H     0.63623   0.74549   0.07481   0.00000  Uiso   1.00
H578   H     0.58799   0.09875   0.02955   0.00000  Uiso   1.00
H579   H     0.54015   0.75555   0.08377   0.00000  Uiso   1.00
H580   H     0.69023   0.62914   0.10255   0.00000  Uiso   1.00
H581   H     0.58850   0.37401   0.00711   0.00000  Uiso   1.00
H582   H     0.48761   0.65031   0.12144   0.00000  Uiso   1.00
H583   H     0.59493   0.05120   0.21089   0.00000  Uiso   1.00
H584   H     0.64322   0.93504   0.22694   0.00000  Uiso   1.00
H585   H     0.59497   0.28831   0.18168   0.00000  Uiso   1.00
H586   H     0.54713   0.94511   0.23590   0.00000  Uiso   1.00
H587   H     0.69590   0.78299   0.22602   0.00000  Uiso   1.00
H588   H     0.59417   0.52787   0.13059   0.00000  Uiso   1.00
H589   H     0.49328   0.80417   0.24492   0.00000  Uiso   1.00
O590   O     0.72472   0.62644   0.17224   0.00000  Uiso   1.00
O591   O     0.59125   0.60369   0.04703   0.00000  Uiso   1.00
O592   O     0.45888   0.65421   0.19703   0.00000  Uiso   1.00
N593   N     0.68494   0.68127   0.12941   0.00000  Uiso   1.00
N594   N     0.58983   0.37768   0.04018   0.00000  Uiso   1.00
N595   N     0.49550   0.70111   0.14706   0.00000  Uiso   1.00
N596   N     0.68799   0.76405   0.19585   0.00000  Uiso   1.00
N597   N     0.59288   0.46047   0.10662   0.00000  Uiso   1.00
N598   N     0.49855   0.78390   0.21350   0.00000  Uiso   1.00
C599   C     0.15710   0.95578   0.62117   0.00000  Uiso   1.00
C600   C     0.18323   0.93795   0.65085   0.00000  Uiso   1.00
C601   C     0.20755   0.86590   0.64068   0.00000  Uiso   1.00
C602   C     0.22911   0.86161   0.67225   0.00000  Uiso   1.00
C603   C     0.27010   0.82402   0.71221   0.00000  Uiso   1.00
C604   C     0.15335   0.10228   0.61553   0.00000  Uiso   1.00
C605   C     0.15255   0.16841   0.57566   0.00000  Uiso   1.00
C606   C     0.14895   0.30245   0.57750   0.00000  Uiso   1.00
C607   C     0.14353   0.51998   0.56262   0.00000  Uiso   1.00
C608   C     0.13133   0.90968   0.64794   0.00000  Uiso   1.00
C609   C     0.11200   0.81388   0.63532   0.00000  Uiso   1.00
C610   C     0.08985   0.78579   0.66445   0.00000  Uiso   1.00
C611   C     0.05023   0.70427   0.69989   0.00000  Uiso   1.00
C612   C     0.15215   0.07626   0.69533   0.00000  Uiso   1.00
C613   C     0.18054   0.00339   0.69113   0.00000  Uiso   1.00
C614   C     0.20207   0.99920   0.72273   0.00000  Uiso   1.00
C615   C     0.22641   0.92716   0.71261   0.00000  Uiso   1.00
C616   C     0.15066   0.16772   0.65581   0.00000  Uiso   1.00
C617   C     0.14706   0.30170   0.65771   0.00000  Uiso   1.00
C618   C     0.14625   0.36801   0.61785   0.00000  Uiso   1.00
C619   C     0.12864   0.97512   0.68823   0.00000  Uiso   1.00
C620   C     0.10651   0.94717   0.71737   0.00000  Uiso   1.00
C621   C     0.08715   0.85134   0.70480   0.00000  Uiso   1.00
H622   H     0.15920   0.90484   0.58981   0.00000  Uiso   1.00
H623   H     0.20963   0.81528   0.60950   0.00000  Uiso   1.00
H624   H     0.15463   0.11774   0.54449   0.00000  Uiso   1.00
H625   H     0.11409   0.76326   0.60415   0.00000  Uiso   1.00
H626   H     0.26435   0.74489   0.64909   0.00000  Uiso   1.00
H627   H     0.14838   0.38263   0.51202   0.00000  Uiso   1.00
H628   H     0.06288   0.63515   0.63781   0.00000  Uiso   1.00
H629   H     0.15005   0.12721   0.72669   0.00000  Uiso   1.00
H630   H     0.19998   0.04985   0.75390   0.00000  Uiso   1.00
H631   H     0.14498   0.35230   0.68889   0.00000  Uiso   1.00
H632   H     0.10444   0.99783   0.74854   0.00000  Uiso   1.00
H633   H     0.25652   0.93528   0.76629   0.00000  Uiso   1.00
H634   H     0.14055   0.57301   0.62921   0.00000  Uiso   1.00
H635   H     0.05505   0.82554   0.75501   0.00000  Uiso   1.00
O636   O     0.29345   0.78522   0.72311   0.00000  Uiso   1.00
O637   O     0.14129   0.62189   0.54328   0.00000  Uiso   1.00
O638   O     0.02913   0.64122   0.70831   0.00000  Uiso   1.00
N639   N     0.25565   0.80029   0.67295   0.00000  Uiso   1.00
N640   N     0.14723   0.39654   0.54479   0.00000  Uiso   1.00
N641   N     0.06730   0.69774   0.66239   0.00000  Uiso   1.00
N642   N     0.25144   0.90274   0.73601   0.00000  Uiso   1.00
N643   N     0.14302   0.49898   0.60785   0.00000  Uiso   1.00
N644   N     0.06308   0.80018   0.72545   0.00000  Uiso   1.00
C645   C     0.41018   0.08734   0.09971   0.00000  Uiso   1.00
C646   C     0.38322   0.13089   0.12413   0.00000  Uiso   1.00
C647   C     0.36225   0.21362   0.10766   0.00000  Uiso   1.00
C648   C     0.33924   0.24163   0.13515   0.00000  Uiso   1.00
C649   C     0.29767   0.31725   0.16661   0.00000  Uiso   1.00
C650   C     0.40943   0.93895   0.09954   0.00000  Uiso   1.00
C651   C     0.41050   0.86030   0.06239   0.00000  Uiso   1.00
C652   C     0.40955   0.72673   0.06918   0.00000  Uiso   1.00
C653   C     0.40869   0.50436   0.06246   0.00000  Uiso   1.00
C654   C     0.43542   0.12543   0.12900   0.00000  Uiso   1.00
C655   C     0.45835   0.20354   0.11661   0.00000  Uiso   1.00
C656   C     0.47929   0.22695   0.14821   0.00000  Uiso   1.00
C657   C     0.51879   0.29412   0.18723   0.00000  Uiso   1.00
C658   C     0.40659   0.98998   0.17785   0.00000  Uiso   1.00
C659   C     0.38127   0.07801   0.16657   0.00000  Uiso   1.00
C660   C     0.35828   0.10590   0.19410   0.00000  Uiso   1.00
C661   C     0.33729   0.18865   0.17767   0.00000  Uiso   1.00
C662   C     0.40748   0.88607   0.14198   0.00000  Uiso   1.00
C663   C     0.40653   0.75258   0.14883   0.00000  Uiso   1.00
C664   C     0.40760   0.67375   0.11170   0.00000  Uiso   1.00
C665   C     0.43347   0.07255   0.17144   0.00000  Uiso   1.00
C666   C     0.45438   0.09583   0.20306   0.00000  Uiso   1.00
C667   C     0.47734   0.17397   0.19072   0.00000  Uiso   1.00
H668   H     0.41169   0.12850   0.06667   0.00000  Uiso   1.00
H669   H     0.36377   0.25451   0.07481   0.00000  Uiso   1.00
H670   H     0.41201   0.90125   0.02955   0.00000  Uiso   1.00
H671   H     0.45985   0.24445   0.08377   0.00000  Uiso   1.00
H672   H     0.30977   0.37086   0.10255   0.00000  Uiso   1.00
H673   H     0.41150   0.62599   0.00711   0.00000  Uiso   1.00
H674   H     0.51239   0.34969   0.12144   0.00000  Uiso   1.00
H675   H     0.40507   0.94880   0.21089   0.00000  Uiso   1.00
H676   H     0.35678   0.06496   0.22694   0.00000  Uiso   1.00
H677   H     0.40503   0.71169   0.18168   0.00000  Uiso   1.00
H678   H     0.45287   0.05489   0.23590   0.00000  Uiso   1.00
H679   H     0.30410   0.21701   0.22602   0.00000  Uiso   1.00
H680   H     0.40583   0.47213   0.13059   0.00000  Uiso   1.00
H681   H     0.50672   0.19583   0.24492   0.00000  Uiso   1.00
O682   O     0.27528   0.37356   0.17224   0.00000  Uiso   1.00
O683   O     0.40875   0.39631   0.04703   0.00000  Uiso   1.00
O684   O     0.54112   0.34579   0.19703   0.00000  Uiso   1.00
N685   N     0.31506   0.31873   0.12941   0.00000  Uiso   1.00
N686   N     0.41017   0.62232   0.04018   0.00000  Uiso   1.00
N687   N     0.50450   0.29889   0.14706   0.00000  Uiso   1.00
N688   N     0.31201   0.23595   0.19585   0.00000  Uiso   1.00
N689   N     0.40712   0.53953   0.10662   0.00000  Uiso   1.00
N690   N     0.50145   0.21610   0.21350   0.00000  Uiso   1.00
C691   C     0.84290   0.04422   0.62117   0.00000  Uiso   1.00
C692   C     0.81677   0.06205   0.65085   0.00000  Uiso   1.00
C693   C     0.79245   0.13410   0.64068   0.00000  Uiso   1.00
C694   C     0.77089   0.13839   0.67225   0.00000  Uiso   1.00
C695   C     0.72990   0.17598   0.71221   0.00000  Uiso   1.00
C696   C     0.84665   0.89772   0.61553   0.00000  Uiso   1.00
C697   C     0.84745   0.83159   0.57566   0.00000  Uiso   1.00
C698   C     0.85105   0.69755   0.57750   0.00000  Uiso   1.00
C699   C     0.85647   0.48002   0.56262   0.00000  Uiso   1.00
C700   C     0.86867   0.09032   0.64794   0.00000  Uiso   1.00
C701   C     0.88800   0.18612   0.63532   0.00000  Uiso   1.00
C702   C     0.91015   0.21421   0.66445   0.00000  Uiso   1.00
C703   C     0.94977   0.29573   0.69989   0.00000  Uiso   1.00
C704   C     0.84785   0.92374   0.69533   0.00000  Uiso   1.00
C705   C     0.81946   0.99661   0.69113   0.00000  Uiso   1.00
C706   C     0.79793   0.00080   0.72273   0.00000  Uiso   1.00
C707   C     0.77359   0.07284   0.71261   0.00000  Uiso   1.00
C708   C     0.84934   0.83228   0.65581   0.00000  Uiso   1.00
C709   C     0.85294   0.69830   0.65771   0.00000  Uiso   1.00
C710   C     0.85375   0.63199   0.61785   0.00000  Uiso   1.00
C711   C     0.87136   0.02488   0.68823   0.00000  Uiso   1.00
C712   C     0.89349   0.05283   0.71737   0.00000  Uiso   1.00
C713   C     0.91285   0.14866   0.70480   0.00000  Uiso   1.00
H714   H     0.84080   0.09516   0.58981   0.00000  Uiso   1.00
H715   H     0.79037   0.18472   0.60950   0.00000  Uiso   1.00
H716   H     0.84537   0.88226   0.54449   0.00000  Uiso   1.00
H717   H     0.88591   0.23674   0.60415   0.00000  Uiso   1.00
H718   H     0.73565   0.25511   0.64909   0.00000  Uiso   1.00
H719   H     0.85162   0.61737   0.51202   0.00000  Uiso   1.00
H720   H     0.93712   0.36485   0.63781   0.00000  Uiso   1.00
H721   H     0.84995   0.87279   0.72669   0.00000  Uiso   1.00
H722   H     0.80002   0.95015   0.75390   0.00000  Uiso   1.00
H723   H     0.85502   0.64770   0.68889   0.00000  Uiso   1.00
H724   H     0.89556   0.00217   0.74854   0.00000  Uiso   1.00
H725   H     0.74348   0.06472   0.76629   0.00000  Uiso   1.00
H726   H     0.85945   0.42699   0.62921   0.00000  Uiso   1.00
H727   H     0.94495   0.17446   0.75501   0.00000  Uiso   1.00
O728   O     0.70655   0.21478   0.72311   0.00000  Uiso   1.00
O729   O     0.85871   0.37811   0.54328   0.00000  Uiso   1.00
O730   O     0.97087   0.35878   0.70831   0.00000  Uiso   1.00
N731   N     0.74435   0.19971   0.67295   0.00000  Uiso   1.00
N732   N     0.85277   0.60346   0.54479   0.00000  Uiso   1.00
N733   N     0.93270   0.30226   0.66239   0.00000  Uiso   1.00
N734   N     0.74856   0.09726   0.73601   0.00000  Uiso   1.00
N735   N     0.85698   0.50102   0.60785   0.00000  Uiso   1.00
N736   N     0.93692   0.19982   0.72545   0.00000  Uiso   1.00
