data_job_05704
_audit_creation_date              2018-12-19
_audit_creation_method            'Materials Studio'
_symmetry_space_group_name_H-M    'P1'
_symmetry_Int_Tables_number       1
_symmetry_cell_setting            triclinic
loop_
_symmetry_equiv_pos_as_xyz
  x,y,z
_cell_length_a                    53.4503
_cell_length_b                    18.8599
_cell_length_c                    11.3055
_cell_angle_alpha                 90.0000
_cell_angle_beta                  90.0000
_cell_angle_gamma                 90.0000
loop_
_atom_site_label
_atom_site_type_symbol
_atom_site_fract_x
_atom_site_fract_y
_atom_site_fract_z
_atom_site_U_iso_or_equiv
_atom_site_adp_type
_atom_site_occupancy
C1     C     0.41907   0.93572   0.83551   0.00000  Uiso   1.00
C2     C     0.43511   0.97580   0.74621   0.00000  Uiso   1.00
C3     C     0.43628   0.96224   0.62569   0.00000  Uiso   1.00
C4     C     0.45209   0.00483   0.55903   0.00000  Uiso   1.00
C5     C     0.47486   0.05880   0.41245   0.00000  Uiso   1.00
C6     C     0.43705   0.90832   0.92974   0.00000  Uiso   1.00
C7     C     0.43985   0.83803   0.96353   0.00000  Uiso   1.00
C8     C     0.45730   0.82382   0.05137   0.00000  Uiso   1.00
C9     C     0.48307   0.77303   0.18978   0.00000  Uiso   1.00
C10    C     0.40287   0.99141   0.89633   0.00000  Uiso   1.00
C11    C     0.37694   0.99096   0.90207   0.00000  Uiso   1.00
C12    C     0.36561   0.04669   0.96183   0.00000  Uiso   1.00
C13    C     0.33831   0.12490   0.04837   0.00000  Uiso   1.00
C14    C     0.44507   0.03549   0.93145   0.00000  Uiso   1.00
C15    C     0.44923   0.02999   0.79832   0.00000  Uiso   1.00
C16    C     0.46505   0.07262   0.73183   0.00000  Uiso   1.00
C17    C     0.46624   0.05912   0.61123   0.00000  Uiso   1.00
C18    C     0.45117   0.96251   0.98184   0.00000  Uiso   1.00
C19    C     0.46862   0.94840   0.06967   0.00000  Uiso   1.00
C20    C     0.47145   0.87810   0.10358   0.00000  Uiso   1.00
C21    C     0.41700   0.04559   0.94844   0.00000  Uiso   1.00
C22    C     0.40571   0.10134   0.00821   0.00000  Uiso   1.00
C23    C     0.37976   0.10097   0.01403   0.00000  Uiso   1.00
H24    H     0.40808   0.89353   0.79495   0.00000  Uiso   1.00
H25    H     0.42535   0.92030   0.58540   0.00000  Uiso   1.00
H26    H     0.42892   0.79611   0.92320   0.00000  Uiso   1.00
H27    H     0.36602   0.94902   0.86174   0.00000  Uiso   1.00
H28    H     0.45074   0.97385   0.37606   0.00000  Uiso   1.00
H29    H     0.45826   0.71198   0.08835   0.00000  Uiso   1.00
H30    H     0.32561   0.03442   0.95877   0.00000  Uiso   1.00
H31    H     0.45607   0.07767   0.97202   0.00000  Uiso   1.00
H32    H     0.47597   0.11454   0.77218   0.00000  Uiso   1.00
H33    H     0.47954   0.99035   0.10997   0.00000  Uiso   1.00
H34    H     0.41664   0.14326   0.04852   0.00000  Uiso   1.00
H35    H     0.49182   0.13150   0.52765   0.00000  Uiso   1.00
H36    H     0.49935   0.86964   0.23995   0.00000  Uiso   1.00
H37    H     0.36670   0.19208   0.11036   0.00000  Uiso   1.00
O38    O     0.48351   0.07359   0.31721   0.00000  Uiso   1.00
O39    O     0.49338   0.73004   0.25172   0.00000  Uiso   1.00
O40    O     0.31935   0.15307   0.08170   0.00000  Uiso   1.00
N41    N     0.45767   0.00590   0.43916   0.00000  Uiso   1.00
N42    N     0.46471   0.76107   0.10509   0.00000  Uiso   1.00
N43    N     0.34069   0.06252   0.98397   0.00000  Uiso   1.00
N44    N     0.47978   0.09074   0.52073   0.00000  Uiso   1.00
N45    N     0.48681   0.84591   0.18667   0.00000  Uiso   1.00
N46    N     0.36280   0.14735   0.06554   0.00000  Uiso   1.00
C47    C     0.41907   0.43572   0.33551   0.00000  Uiso   1.00
C48    C     0.43511   0.47580   0.24621   0.00000  Uiso   1.00
C49    C     0.43628   0.46224   0.12569   0.00000  Uiso   1.00
C50    C     0.45209   0.50483   0.05903   0.00000  Uiso   1.00
C51    C     0.47486   0.55880   0.91245   0.00000  Uiso   1.00
C52    C     0.43705   0.40832   0.42974   0.00000  Uiso   1.00
C53    C     0.43985   0.33803   0.46353   0.00000  Uiso   1.00
C54    C     0.45730   0.32382   0.55137   0.00000  Uiso   1.00
C55    C     0.48307   0.27303   0.68978   0.00000  Uiso   1.00
C56    C     0.40287   0.49141   0.39633   0.00000  Uiso   1.00
C57    C     0.37694   0.49096   0.40207   0.00000  Uiso   1.00
C58    C     0.36561   0.54669   0.46183   0.00000  Uiso   1.00
C59    C     0.33831   0.62490   0.54837   0.00000  Uiso   1.00
C60    C     0.44507   0.53549   0.43145   0.00000  Uiso   1.00
C61    C     0.44923   0.52999   0.29832   0.00000  Uiso   1.00
C62    C     0.46505   0.57262   0.23183   0.00000  Uiso   1.00
C63    C     0.46624   0.55912   0.11123   0.00000  Uiso   1.00
C64    C     0.45117   0.46251   0.48184   0.00000  Uiso   1.00
C65    C     0.46862   0.44840   0.56967   0.00000  Uiso   1.00
C66    C     0.47145   0.37810   0.60358   0.00000  Uiso   1.00
C67    C     0.41700   0.54559   0.44844   0.00000  Uiso   1.00
C68    C     0.40571   0.60134   0.50821   0.00000  Uiso   1.00
C69    C     0.37976   0.60097   0.51403   0.00000  Uiso   1.00
H70    H     0.40808   0.39353   0.29495   0.00000  Uiso   1.00
H71    H     0.42535   0.42030   0.08540   0.00000  Uiso   1.00
H72    H     0.42892   0.29611   0.42320   0.00000  Uiso   1.00
H73    H     0.36602   0.44902   0.36174   0.00000  Uiso   1.00
H74    H     0.45074   0.47385   0.87606   0.00000  Uiso   1.00
H75    H     0.45826   0.21198   0.58835   0.00000  Uiso   1.00
H76    H     0.32561   0.53442   0.45877   0.00000  Uiso   1.00
H77    H     0.45607   0.57767   0.47202   0.00000  Uiso   1.00
H78    H     0.47597   0.61454   0.27218   0.00000  Uiso   1.00
H79    H     0.47954   0.49035   0.60997   0.00000  Uiso   1.00
H80    H     0.41664   0.64326   0.54852   0.00000  Uiso   1.00
H81    H     0.49182   0.63150   0.02765   0.00000  Uiso   1.00
H82    H     0.49935   0.36964   0.73995   0.00000  Uiso   1.00
H83    H     0.36670   0.69208   0.61036   0.00000  Uiso   1.00
O84    O     0.48351   0.57359   0.81721   0.00000  Uiso   1.00
O85    O     0.49338   0.23004   0.75172   0.00000  Uiso   1.00
O86    O     0.31935   0.65307   0.58170   0.00000  Uiso   1.00
N87    N     0.45767   0.50590   0.93916   0.00000  Uiso   1.00
N88    N     0.46471   0.26107   0.60509   0.00000  Uiso   1.00
N89    N     0.34069   0.56252   0.48397   0.00000  Uiso   1.00
N90    N     0.47978   0.59074   0.02073   0.00000  Uiso   1.00
N91    N     0.48681   0.34591   0.68667   0.00000  Uiso   1.00
N92    N     0.36280   0.64735   0.56554   0.00000  Uiso   1.00
C93    C     0.91907   0.93572   0.33551   0.00000  Uiso   1.00
C94    C     0.93511   0.97580   0.24621   0.00000  Uiso   1.00
C95    C     0.93628   0.96224   0.12569   0.00000  Uiso   1.00
C96    C     0.95209   0.00483   0.05903   0.00000  Uiso   1.00
C97    C     0.97486   0.05880   0.91245   0.00000  Uiso   1.00
C98    C     0.93705   0.90832   0.42974   0.00000  Uiso   1.00
C99    C     0.93985   0.83803   0.46353   0.00000  Uiso   1.00
C100   C     0.95730   0.82382   0.55137   0.00000  Uiso   1.00
C101   C     0.98307   0.77303   0.68978   0.00000  Uiso   1.00
C102   C     0.90287   0.99141   0.39633   0.00000  Uiso   1.00
C103   C     0.87694   0.99096   0.40207   0.00000  Uiso   1.00
C104   C     0.86561   0.04669   0.46183   0.00000  Uiso   1.00
C105   C     0.83831   0.12490   0.54837   0.00000  Uiso   1.00
C106   C     0.94507   0.03549   0.43145   0.00000  Uiso   1.00
C107   C     0.94923   0.02999   0.29832   0.00000  Uiso   1.00
C108   C     0.96505   0.07262   0.23183   0.00000  Uiso   1.00
C109   C     0.96624   0.05912   0.11123   0.00000  Uiso   1.00
C110   C     0.95117   0.96251   0.48184   0.00000  Uiso   1.00
C111   C     0.96862   0.94840   0.56967   0.00000  Uiso   1.00
C112   C     0.97145   0.87810   0.60358   0.00000  Uiso   1.00
C113   C     0.91700   0.04559   0.44844   0.00000  Uiso   1.00
C114   C     0.90571   0.10134   0.50821   0.00000  Uiso   1.00
C115   C     0.87976   0.10097   0.51403   0.00000  Uiso   1.00
H116   H     0.90808   0.89353   0.29495   0.00000  Uiso   1.00
H117   H     0.92535   0.92030   0.08540   0.00000  Uiso   1.00
H118   H     0.92892   0.79611   0.42320   0.00000  Uiso   1.00
H119   H     0.86602   0.94902   0.36174   0.00000  Uiso   1.00
H120   H     0.95074   0.97385   0.87606   0.00000  Uiso   1.00
H121   H     0.95826   0.71198   0.58835   0.00000  Uiso   1.00
H122   H     0.82561   0.03442   0.45877   0.00000  Uiso   1.00
H123   H     0.95607   0.07767   0.47202   0.00000  Uiso   1.00
H124   H     0.97597   0.11454   0.27218   0.00000  Uiso   1.00
H125   H     0.97954   0.99035   0.60997   0.00000  Uiso   1.00
H126   H     0.91664   0.14326   0.54852   0.00000  Uiso   1.00
H127   H     0.99182   0.13150   0.02765   0.00000  Uiso   1.00
H128   H     0.99935   0.86964   0.73995   0.00000  Uiso   1.00
H129   H     0.86670   0.19208   0.61036   0.00000  Uiso   1.00
O130   O     0.98351   0.07359   0.81721   0.00000  Uiso   1.00
O131   O     0.99338   0.73004   0.75172   0.00000  Uiso   1.00
O132   O     0.81935   0.15307   0.58170   0.00000  Uiso   1.00
N133   N     0.95767   0.00590   0.93916   0.00000  Uiso   1.00
N134   N     0.96471   0.76107   0.60509   0.00000  Uiso   1.00
N135   N     0.84069   0.06252   0.48397   0.00000  Uiso   1.00
N136   N     0.97978   0.09074   0.02073   0.00000  Uiso   1.00
N137   N     0.98681   0.84591   0.68667   0.00000  Uiso   1.00
N138   N     0.86280   0.14735   0.56554   0.00000  Uiso   1.00
C139   C     0.91907   0.43572   0.83551   0.00000  Uiso   1.00
C140   C     0.93511   0.47580   0.74621   0.00000  Uiso   1.00
C141   C     0.93628   0.46224   0.62569   0.00000  Uiso   1.00
C142   C     0.95209   0.50483   0.55903   0.00000  Uiso   1.00
C143   C     0.97486   0.55880   0.41245   0.00000  Uiso   1.00
C144   C     0.93705   0.40832   0.92974   0.00000  Uiso   1.00
C145   C     0.93985   0.33803   0.96353   0.00000  Uiso   1.00
C146   C     0.95730   0.32382   0.05137   0.00000  Uiso   1.00
C147   C     0.98307   0.27303   0.18978   0.00000  Uiso   1.00
C148   C     0.90287   0.49141   0.89633   0.00000  Uiso   1.00
C149   C     0.87694   0.49096   0.90207   0.00000  Uiso   1.00
C150   C     0.86561   0.54669   0.96183   0.00000  Uiso   1.00
C151   C     0.83831   0.62490   0.04837   0.00000  Uiso   1.00
C152   C     0.94507   0.53549   0.93145   0.00000  Uiso   1.00
C153   C     0.94923   0.52999   0.79832   0.00000  Uiso   1.00
C154   C     0.96505   0.57262   0.73183   0.00000  Uiso   1.00
C155   C     0.96624   0.55912   0.61123   0.00000  Uiso   1.00
C156   C     0.95117   0.46251   0.98184   0.00000  Uiso   1.00
C157   C     0.96862   0.44840   0.06967   0.00000  Uiso   1.00
C158   C     0.97145   0.37810   0.10358   0.00000  Uiso   1.00
C159   C     0.91700   0.54559   0.94844   0.00000  Uiso   1.00
C160   C     0.90571   0.60134   0.00821   0.00000  Uiso   1.00
C161   C     0.87976   0.60097   0.01403   0.00000  Uiso   1.00
H162   H     0.90808   0.39353   0.79495   0.00000  Uiso   1.00
H163   H     0.92535   0.42030   0.58540   0.00000  Uiso   1.00
H164   H     0.92892   0.29611   0.92320   0.00000  Uiso   1.00
H165   H     0.86602   0.44902   0.86174   0.00000  Uiso   1.00
H166   H     0.95074   0.47385   0.37606   0.00000  Uiso   1.00
H167   H     0.95826   0.21198   0.08835   0.00000  Uiso   1.00
H168   H     0.82561   0.53442   0.95877   0.00000  Uiso   1.00
H169   H     0.95607   0.57767   0.97202   0.00000  Uiso   1.00
H170   H     0.97597   0.61454   0.77218   0.00000  Uiso   1.00
H171   H     0.97954   0.49035   0.10997   0.00000  Uiso   1.00
H172   H     0.91664   0.64326   0.04852   0.00000  Uiso   1.00
H173   H     0.99182   0.63150   0.52765   0.00000  Uiso   1.00
H174   H     0.99935   0.36964   0.23995   0.00000  Uiso   1.00
H175   H     0.86670   0.69208   0.11036   0.00000  Uiso   1.00
O176   O     0.98351   0.57359   0.31721   0.00000  Uiso   1.00
O177   O     0.99338   0.23004   0.25172   0.00000  Uiso   1.00
O178   O     0.81935   0.65307   0.08170   0.00000  Uiso   1.00
N179   N     0.95767   0.50590   0.43916   0.00000  Uiso   1.00
N180   N     0.96471   0.26107   0.10509   0.00000  Uiso   1.00
N181   N     0.84069   0.56252   0.98397   0.00000  Uiso   1.00
N182   N     0.97978   0.59074   0.52073   0.00000  Uiso   1.00
N183   N     0.98681   0.34591   0.18667   0.00000  Uiso   1.00
N184   N     0.86280   0.64735   0.06554   0.00000  Uiso   1.00
C185   C     0.58093   0.06428   0.83551   0.00000  Uiso   1.00
C186   C     0.56489   0.02420   0.74621   0.00000  Uiso   1.00
C187   C     0.56372   0.03776   0.62569   0.00000  Uiso   1.00
C188   C     0.54791   0.99517   0.55903   0.00000  Uiso   1.00
C189   C     0.52514   0.94120   0.41245   0.00000  Uiso   1.00
C190   C     0.56295   0.09168   0.92974   0.00000  Uiso   1.00
C191   C     0.56015   0.16197   0.96353   0.00000  Uiso   1.00
C192   C     0.54270   0.17618   0.05137   0.00000  Uiso   1.00
C193   C     0.51693   0.22697   0.18978   0.00000  Uiso   1.00
C194   C     0.59713   0.00859   0.89633   0.00000  Uiso   1.00
C195   C     0.62306   0.00904   0.90207   0.00000  Uiso   1.00
C196   C     0.63439   0.95331   0.96183   0.00000  Uiso   1.00
C197   C     0.66169   0.87510   0.04837   0.00000  Uiso   1.00
C198   C     0.55493   0.96451   0.93145   0.00000  Uiso   1.00
C199   C     0.55077   0.97001   0.79832   0.00000  Uiso   1.00
C200   C     0.53495   0.92738   0.73183   0.00000  Uiso   1.00
C201   C     0.53376   0.94088   0.61123   0.00000  Uiso   1.00
C202   C     0.54883   0.03749   0.98184   0.00000  Uiso   1.00
C203   C     0.53138   0.05160   0.06967   0.00000  Uiso   1.00
C204   C     0.52855   0.12190   0.10358   0.00000  Uiso   1.00
C205   C     0.58300   0.95441   0.94844   0.00000  Uiso   1.00
C206   C     0.59429   0.89866   0.00821   0.00000  Uiso   1.00
C207   C     0.62024   0.89903   0.01403   0.00000  Uiso   1.00
H208   H     0.59192   0.10647   0.79495   0.00000  Uiso   1.00
H209   H     0.57465   0.07970   0.58540   0.00000  Uiso   1.00
H210   H     0.57108   0.20389   0.92320   0.00000  Uiso   1.00
H211   H     0.63398   0.05098   0.86174   0.00000  Uiso   1.00
H212   H     0.54926   0.02615   0.37606   0.00000  Uiso   1.00
H213   H     0.54174   0.28802   0.08835   0.00000  Uiso   1.00
H214   H     0.67439   0.96558   0.95877   0.00000  Uiso   1.00
H215   H     0.54393   0.92233   0.97202   0.00000  Uiso   1.00
H216   H     0.52403   0.88546   0.77218   0.00000  Uiso   1.00
H217   H     0.52046   0.00965   0.10997   0.00000  Uiso   1.00
H218   H     0.58336   0.85674   0.04852   0.00000  Uiso   1.00
H219   H     0.50818   0.86850   0.52765   0.00000  Uiso   1.00
H220   H     0.50065   0.13036   0.23995   0.00000  Uiso   1.00
H221   H     0.63330   0.80792   0.11036   0.00000  Uiso   1.00
O222   O     0.51649   0.92641   0.31721   0.00000  Uiso   1.00
O223   O     0.50662   0.26996   0.25172   0.00000  Uiso   1.00
O224   O     0.68065   0.84693   0.08170   0.00000  Uiso   1.00
N225   N     0.54233   0.99410   0.43916   0.00000  Uiso   1.00
N226   N     0.53529   0.23893   0.10509   0.00000  Uiso   1.00
N227   N     0.65931   0.93748   0.98397   0.00000  Uiso   1.00
N228   N     0.52022   0.90926   0.52073   0.00000  Uiso   1.00
N229   N     0.51319   0.15409   0.18667   0.00000  Uiso   1.00
N230   N     0.63720   0.85265   0.06554   0.00000  Uiso   1.00
C231   C     0.58093   0.56428   0.33551   0.00000  Uiso   1.00
C232   C     0.56489   0.52420   0.24621   0.00000  Uiso   1.00
C233   C     0.56372   0.53776   0.12569   0.00000  Uiso   1.00
C234   C     0.54791   0.49517   0.05903   0.00000  Uiso   1.00
C235   C     0.52514   0.44120   0.91245   0.00000  Uiso   1.00
C236   C     0.56295   0.59168   0.42974   0.00000  Uiso   1.00
C237   C     0.56015   0.66197   0.46353   0.00000  Uiso   1.00
C238   C     0.54270   0.67618   0.55137   0.00000  Uiso   1.00
C239   C     0.51693   0.72697   0.68978   0.00000  Uiso   1.00
C240   C     0.59713   0.50859   0.39633   0.00000  Uiso   1.00
C241   C     0.62306   0.50904   0.40207   0.00000  Uiso   1.00
C242   C     0.63439   0.45331   0.46183   0.00000  Uiso   1.00
C243   C     0.66169   0.37510   0.54837   0.00000  Uiso   1.00
C244   C     0.55493   0.46451   0.43145   0.00000  Uiso   1.00
C245   C     0.55077   0.47001   0.29832   0.00000  Uiso   1.00
C246   C     0.53495   0.42738   0.23183   0.00000  Uiso   1.00
C247   C     0.53376   0.44088   0.11123   0.00000  Uiso   1.00
C248   C     0.54883   0.53749   0.48184   0.00000  Uiso   1.00
C249   C     0.53138   0.55160   0.56967   0.00000  Uiso   1.00
C250   C     0.52855   0.62190   0.60358   0.00000  Uiso   1.00
C251   C     0.58300   0.45441   0.44844   0.00000  Uiso   1.00
C252   C     0.59429   0.39866   0.50821   0.00000  Uiso   1.00
C253   C     0.62024   0.39903   0.51403   0.00000  Uiso   1.00
H254   H     0.59192   0.60647   0.29495   0.00000  Uiso   1.00
H255   H     0.57465   0.57970   0.08540   0.00000  Uiso   1.00
H256   H     0.57108   0.70389   0.42320   0.00000  Uiso   1.00
H257   H     0.63398   0.55098   0.36174   0.00000  Uiso   1.00
H258   H     0.54926   0.52615   0.87606   0.00000  Uiso   1.00
H259   H     0.54174   0.78802   0.58835   0.00000  Uiso   1.00
H260   H     0.67439   0.46558   0.45877   0.00000  Uiso   1.00
H261   H     0.54393   0.42233   0.47202   0.00000  Uiso   1.00
H262   H     0.52403   0.38546   0.27218   0.00000  Uiso   1.00
H263   H     0.52046   0.50965   0.60997   0.00000  Uiso   1.00
H264   H     0.58336   0.35674   0.54852   0.00000  Uiso   1.00
H265   H     0.50818   0.36850   0.02765   0.00000  Uiso   1.00
H266   H     0.50065   0.63036   0.73995   0.00000  Uiso   1.00
H267   H     0.63330   0.30792   0.61036   0.00000  Uiso   1.00
O268   O     0.51649   0.42641   0.81721   0.00000  Uiso   1.00
O269   O     0.50662   0.76996   0.75172   0.00000  Uiso   1.00
O270   O     0.68065   0.34693   0.58170   0.00000  Uiso   1.00
N271   N     0.54233   0.49410   0.93916   0.00000  Uiso   1.00
N272   N     0.53529   0.73893   0.60509   0.00000  Uiso   1.00
N273   N     0.65931   0.43748   0.48397   0.00000  Uiso   1.00
N274   N     0.52022   0.40926   0.02073   0.00000  Uiso   1.00
N275   N     0.51319   0.65409   0.68667   0.00000  Uiso   1.00
N276   N     0.63720   0.35265   0.56554   0.00000  Uiso   1.00
C277   C     0.08093   0.06428   0.33551   0.00000  Uiso   1.00
C278   C     0.06489   0.02420   0.24621   0.00000  Uiso   1.00
C279   C     0.06372   0.03776   0.12569   0.00000  Uiso   1.00
C280   C     0.04791   0.99517   0.05903   0.00000  Uiso   1.00
C281   C     0.02514   0.94120   0.91245   0.00000  Uiso   1.00
C282   C     0.06295   0.09168   0.42974   0.00000  Uiso   1.00
C283   C     0.06015   0.16197   0.46353   0.00000  Uiso   1.00
C284   C     0.04270   0.17618   0.55137   0.00000  Uiso   1.00
C285   C     0.01693   0.22697   0.68978   0.00000  Uiso   1.00
C286   C     0.09713   0.00859   0.39633   0.00000  Uiso   1.00
C287   C     0.12306   0.00904   0.40207   0.00000  Uiso   1.00
C288   C     0.13439   0.95331   0.46183   0.00000  Uiso   1.00
C289   C     0.16169   0.87510   0.54837   0.00000  Uiso   1.00
C290   C     0.05493   0.96451   0.43145   0.00000  Uiso   1.00
C291   C     0.05077   0.97001   0.29832   0.00000  Uiso   1.00
C292   C     0.03495   0.92738   0.23183   0.00000  Uiso   1.00
C293   C     0.03376   0.94088   0.11123   0.00000  Uiso   1.00
C294   C     0.04883   0.03749   0.48184   0.00000  Uiso   1.00
C295   C     0.03138   0.05160   0.56967   0.00000  Uiso   1.00
C296   C     0.02855   0.12190   0.60358   0.00000  Uiso   1.00
C297   C     0.08300   0.95441   0.44844   0.00000  Uiso   1.00
C298   C     0.09429   0.89866   0.50821   0.00000  Uiso   1.00
C299   C     0.12024   0.89903   0.51403   0.00000  Uiso   1.00
H300   H     0.09192   0.10647   0.29495   0.00000  Uiso   1.00
H301   H     0.07465   0.07970   0.08540   0.00000  Uiso   1.00
H302   H     0.07108   0.20389   0.42320   0.00000  Uiso   1.00
H303   H     0.13398   0.05098   0.36174   0.00000  Uiso   1.00
H304   H     0.04926   0.02615   0.87606   0.00000  Uiso   1.00
H305   H     0.04174   0.28802   0.58835   0.00000  Uiso   1.00
H306   H     0.17439   0.96558   0.45877   0.00000  Uiso   1.00
H307   H     0.04393   0.92233   0.47202   0.00000  Uiso   1.00
H308   H     0.02403   0.88546   0.27218   0.00000  Uiso   1.00
H309   H     0.02046   0.00965   0.60997   0.00000  Uiso   1.00
H310   H     0.08336   0.85674   0.54852   0.00000  Uiso   1.00
H311   H     0.00818   0.86850   0.02765   0.00000  Uiso   1.00
H312   H     0.00065   0.13036   0.73995   0.00000  Uiso   1.00
H313   H     0.13330   0.80792   0.61036   0.00000  Uiso   1.00
O314   O     0.01649   0.92641   0.81721   0.00000  Uiso   1.00
O315   O     0.00662   0.26996   0.75172   0.00000  Uiso   1.00
O316   O     0.18065   0.84693   0.58170   0.00000  Uiso   1.00
N317   N     0.04233   0.99410   0.93916   0.00000  Uiso   1.00
N318   N     0.03529   0.23893   0.60509   0.00000  Uiso   1.00
N319   N     0.15931   0.93748   0.48397   0.00000  Uiso   1.00
N320   N     0.02022   0.90926   0.02073   0.00000  Uiso   1.00
N321   N     0.01319   0.15409   0.68667   0.00000  Uiso   1.00
N322   N     0.13720   0.85265   0.56554   0.00000  Uiso   1.00
C323   C     0.08093   0.56428   0.83551   0.00000  Uiso   1.00
C324   C     0.06489   0.52420   0.74621   0.00000  Uiso   1.00
C325   C     0.06372   0.53776   0.62569   0.00000  Uiso   1.00
C326   C     0.04791   0.49517   0.55903   0.00000  Uiso   1.00
C327   C     0.02514   0.44120   0.41245   0.00000  Uiso   1.00
C328   C     0.06295   0.59168   0.92974   0.00000  Uiso   1.00
C329   C     0.06015   0.66197   0.96353   0.00000  Uiso   1.00
C330   C     0.04270   0.67618   0.05137   0.00000  Uiso   1.00
C331   C     0.01693   0.72697   0.18978   0.00000  Uiso   1.00
C332   C     0.09713   0.50859   0.89633   0.00000  Uiso   1.00
C333   C     0.12306   0.50904   0.90207   0.00000  Uiso   1.00
C334   C     0.13439   0.45331   0.96183   0.00000  Uiso   1.00
C335   C     0.16169   0.37510   0.04837   0.00000  Uiso   1.00
C336   C     0.05493   0.46451   0.93145   0.00000  Uiso   1.00
C337   C     0.05077   0.47001   0.79832   0.00000  Uiso   1.00
C338   C     0.03495   0.42738   0.73183   0.00000  Uiso   1.00
C339   C     0.03376   0.44088   0.61123   0.00000  Uiso   1.00
C340   C     0.04883   0.53749   0.98184   0.00000  Uiso   1.00
C341   C     0.03138   0.55160   0.06967   0.00000  Uiso   1.00
C342   C     0.02855   0.62190   0.10358   0.00000  Uiso   1.00
C343   C     0.08300   0.45441   0.94844   0.00000  Uiso   1.00
C344   C     0.09429   0.39866   0.00821   0.00000  Uiso   1.00
C345   C     0.12024   0.39903   0.01403   0.00000  Uiso   1.00
H346   H     0.09192   0.60647   0.79495   0.00000  Uiso   1.00
H347   H     0.07465   0.57970   0.58540   0.00000  Uiso   1.00
H348   H     0.07108   0.70389   0.92320   0.00000  Uiso   1.00
H349   H     0.13398   0.55098   0.86174   0.00000  Uiso   1.00
H350   H     0.04926   0.52615   0.37606   0.00000  Uiso   1.00
H351   H     0.04174   0.78802   0.08835   0.00000  Uiso   1.00
H352   H     0.17439   0.46558   0.95877   0.00000  Uiso   1.00
H353   H     0.04393   0.42233   0.97202   0.00000  Uiso   1.00
H354   H     0.02403   0.38546   0.77218   0.00000  Uiso   1.00
H355   H     0.02046   0.50965   0.10997   0.00000  Uiso   1.00
H356   H     0.08336   0.35674   0.04852   0.00000  Uiso   1.00
H357   H     0.00818   0.36850   0.52765   0.00000  Uiso   1.00
H358   H     0.00065   0.63036   0.23995   0.00000  Uiso   1.00
H359   H     0.13330   0.30792   0.11036   0.00000  Uiso   1.00
O360   O     0.01649   0.42641   0.31721   0.00000  Uiso   1.00
O361   O     0.00662   0.76996   0.25172   0.00000  Uiso   1.00
O362   O     0.18065   0.34693   0.08170   0.00000  Uiso   1.00
N363   N     0.04233   0.49410   0.43916   0.00000  Uiso   1.00
N364   N     0.03529   0.73893   0.10509   0.00000  Uiso   1.00
N365   N     0.15931   0.43748   0.98397   0.00000  Uiso   1.00
N366   N     0.02022   0.40926   0.52073   0.00000  Uiso   1.00
N367   N     0.01319   0.65409   0.18667   0.00000  Uiso   1.00
N368   N     0.13720   0.35265   0.06554   0.00000  Uiso   1.00
C369   C     0.66907   0.31428   0.08551   0.00000  Uiso   1.00
C370   C     0.68511   0.27420   0.99621   0.00000  Uiso   1.00
C371   C     0.68628   0.28776   0.87569   0.00000  Uiso   1.00
C372   C     0.70209   0.24517   0.80903   0.00000  Uiso   1.00
C373   C     0.72486   0.19120   0.66245   0.00000  Uiso   1.00
C374   C     0.68705   0.34168   0.17974   0.00000  Uiso   1.00
C375   C     0.68985   0.41197   0.21353   0.00000  Uiso   1.00
C376   C     0.70730   0.42618   0.30137   0.00000  Uiso   1.00
C377   C     0.73307   0.47697   0.43978   0.00000  Uiso   1.00
C378   C     0.65287   0.25859   0.14633   0.00000  Uiso   1.00
C379   C     0.62694   0.25904   0.15207   0.00000  Uiso   1.00
C380   C     0.61561   0.20331   0.21183   0.00000  Uiso   1.00
C381   C     0.58831   0.12510   0.29837   0.00000  Uiso   1.00
C382   C     0.69507   0.21451   0.18145   0.00000  Uiso   1.00
C383   C     0.69923   0.22001   0.04832   0.00000  Uiso   1.00
C384   C     0.71505   0.17738   0.98183   0.00000  Uiso   1.00
C385   C     0.71624   0.19088   0.86123   0.00000  Uiso   1.00
C386   C     0.70117   0.28749   0.23184   0.00000  Uiso   1.00
C387   C     0.71862   0.30160   0.31967   0.00000  Uiso   1.00
C388   C     0.72145   0.37190   0.35358   0.00000  Uiso   1.00
C389   C     0.66700   0.20441   0.19844   0.00000  Uiso   1.00
C390   C     0.65571   0.14866   0.25821   0.00000  Uiso   1.00
C391   C     0.62976   0.14903   0.26403   0.00000  Uiso   1.00
H392   H     0.65808   0.35647   0.04495   0.00000  Uiso   1.00
H393   H     0.67535   0.32970   0.83540   0.00000  Uiso   1.00
H394   H     0.67892   0.45389   0.17320   0.00000  Uiso   1.00
H395   H     0.61602   0.30098   0.11174   0.00000  Uiso   1.00
H396   H     0.70074   0.27615   0.62606   0.00000  Uiso   1.00
H397   H     0.70826   0.53802   0.33835   0.00000  Uiso   1.00
H398   H     0.57561   0.21558   0.20877   0.00000  Uiso   1.00
H399   H     0.70607   0.17233   0.22202   0.00000  Uiso   1.00
H400   H     0.72597   0.13546   0.02218   0.00000  Uiso   1.00
H401   H     0.72954   0.25965   0.35997   0.00000  Uiso   1.00
H402   H     0.66664   0.10674   0.29852   0.00000  Uiso   1.00
H403   H     0.74182   0.11850   0.77765   0.00000  Uiso   1.00
H404   H     0.74935   0.38036   0.48995   0.00000  Uiso   1.00
H405   H     0.61670   0.05792   0.36036   0.00000  Uiso   1.00
O406   O     0.73351   0.17641   0.56721   0.00000  Uiso   1.00
O407   O     0.74338   0.51996   0.50172   0.00000  Uiso   1.00
O408   O     0.56935   0.09693   0.33170   0.00000  Uiso   1.00
N409   N     0.70767   0.24410   0.68916   0.00000  Uiso   1.00
N410   N     0.71471   0.48893   0.35509   0.00000  Uiso   1.00
N411   N     0.59069   0.18748   0.23397   0.00000  Uiso   1.00
N412   N     0.72978   0.15926   0.77073   0.00000  Uiso   1.00
N413   N     0.73681   0.40409   0.43667   0.00000  Uiso   1.00
N414   N     0.61280   0.10265   0.31554   0.00000  Uiso   1.00
C415   C     0.66907   0.81428   0.58551   0.00000  Uiso   1.00
C416   C     0.68511   0.77420   0.49621   0.00000  Uiso   1.00
C417   C     0.68628   0.78776   0.37569   0.00000  Uiso   1.00
C418   C     0.70209   0.74517   0.30903   0.00000  Uiso   1.00
C419   C     0.72486   0.69120   0.16245   0.00000  Uiso   1.00
C420   C     0.68705   0.84168   0.67974   0.00000  Uiso   1.00
C421   C     0.68985   0.91197   0.71353   0.00000  Uiso   1.00
C422   C     0.70730   0.92618   0.80137   0.00000  Uiso   1.00
C423   C     0.73307   0.97697   0.93978   0.00000  Uiso   1.00
C424   C     0.65287   0.75859   0.64633   0.00000  Uiso   1.00
C425   C     0.62694   0.75904   0.65207   0.00000  Uiso   1.00
C426   C     0.61561   0.70331   0.71183   0.00000  Uiso   1.00
C427   C     0.58831   0.62510   0.79837   0.00000  Uiso   1.00
C428   C     0.69507   0.71451   0.68145   0.00000  Uiso   1.00
C429   C     0.69923   0.72001   0.54832   0.00000  Uiso   1.00
C430   C     0.71505   0.67738   0.48183   0.00000  Uiso   1.00
C431   C     0.71624   0.69088   0.36123   0.00000  Uiso   1.00
C432   C     0.70117   0.78749   0.73184   0.00000  Uiso   1.00
C433   C     0.71862   0.80160   0.81967   0.00000  Uiso   1.00
C434   C     0.72145   0.87190   0.85358   0.00000  Uiso   1.00
C435   C     0.66700   0.70441   0.69844   0.00000  Uiso   1.00
C436   C     0.65571   0.64866   0.75821   0.00000  Uiso   1.00
C437   C     0.62976   0.64903   0.76403   0.00000  Uiso   1.00
H438   H     0.65808   0.85647   0.54495   0.00000  Uiso   1.00
H439   H     0.67535   0.82970   0.33540   0.00000  Uiso   1.00
H440   H     0.67892   0.95389   0.67320   0.00000  Uiso   1.00
H441   H     0.61602   0.80098   0.61174   0.00000  Uiso   1.00
H442   H     0.70074   0.77615   0.12606   0.00000  Uiso   1.00
H443   H     0.70826   0.03802   0.83835   0.00000  Uiso   1.00
H444   H     0.57561   0.71558   0.70877   0.00000  Uiso   1.00
H445   H     0.70607   0.67233   0.72202   0.00000  Uiso   1.00
H446   H     0.72597   0.63546   0.52218   0.00000  Uiso   1.00
H447   H     0.72954   0.75965   0.85997   0.00000  Uiso   1.00
H448   H     0.66664   0.60674   0.79852   0.00000  Uiso   1.00
H449   H     0.74182   0.61850   0.27765   0.00000  Uiso   1.00
H450   H     0.74935   0.88036   0.98995   0.00000  Uiso   1.00
H451   H     0.61670   0.55792   0.86036   0.00000  Uiso   1.00
O452   O     0.73351   0.67641   0.06721   0.00000  Uiso   1.00
O453   O     0.74338   0.01996   0.00172   0.00000  Uiso   1.00
O454   O     0.56935   0.59693   0.83170   0.00000  Uiso   1.00
N455   N     0.70767   0.74410   0.18916   0.00000  Uiso   1.00
N456   N     0.71471   0.98893   0.85509   0.00000  Uiso   1.00
N457   N     0.59069   0.68748   0.73397   0.00000  Uiso   1.00
N458   N     0.72978   0.65926   0.27073   0.00000  Uiso   1.00
N459   N     0.73681   0.90409   0.93667   0.00000  Uiso   1.00
N460   N     0.61280   0.60265   0.81554   0.00000  Uiso   1.00
C461   C     0.16907   0.31428   0.58551   0.00000  Uiso   1.00
C462   C     0.18511   0.27420   0.49621   0.00000  Uiso   1.00
C463   C     0.18628   0.28776   0.37569   0.00000  Uiso   1.00
C464   C     0.20209   0.24517   0.30903   0.00000  Uiso   1.00
C465   C     0.22486   0.19120   0.16245   0.00000  Uiso   1.00
C466   C     0.18705   0.34168   0.67974   0.00000  Uiso   1.00
C467   C     0.18985   0.41197   0.71353   0.00000  Uiso   1.00
C468   C     0.20730   0.42618   0.80137   0.00000  Uiso   1.00
C469   C     0.23307   0.47697   0.93978   0.00000  Uiso   1.00
C470   C     0.15287   0.25859   0.64633   0.00000  Uiso   1.00
C471   C     0.12694   0.25904   0.65207   0.00000  Uiso   1.00
C472   C     0.11561   0.20331   0.71183   0.00000  Uiso   1.00
C473   C     0.08831   0.12510   0.79837   0.00000  Uiso   1.00
C474   C     0.19507   0.21451   0.68145   0.00000  Uiso   1.00
C475   C     0.19923   0.22001   0.54832   0.00000  Uiso   1.00
C476   C     0.21505   0.17738   0.48183   0.00000  Uiso   1.00
C477   C     0.21624   0.19088   0.36123   0.00000  Uiso   1.00
C478   C     0.20117   0.28749   0.73184   0.00000  Uiso   1.00
C479   C     0.21862   0.30160   0.81967   0.00000  Uiso   1.00
C480   C     0.22145   0.37190   0.85358   0.00000  Uiso   1.00
C481   C     0.16700   0.20441   0.69844   0.00000  Uiso   1.00
C482   C     0.15571   0.14866   0.75821   0.00000  Uiso   1.00
C483   C     0.12976   0.14903   0.76403   0.00000  Uiso   1.00
H484   H     0.15808   0.35647   0.54495   0.00000  Uiso   1.00
H485   H     0.17535   0.32970   0.33540   0.00000  Uiso   1.00
H486   H     0.17892   0.45389   0.67320   0.00000  Uiso   1.00
H487   H     0.11602   0.30098   0.61174   0.00000  Uiso   1.00
H488   H     0.20074   0.27615   0.12606   0.00000  Uiso   1.00
H489   H     0.20826   0.53802   0.83835   0.00000  Uiso   1.00
H490   H     0.07561   0.21558   0.70877   0.00000  Uiso   1.00
H491   H     0.20607   0.17233   0.72202   0.00000  Uiso   1.00
H492   H     0.22597   0.13546   0.52218   0.00000  Uiso   1.00
H493   H     0.22954   0.25965   0.85997   0.00000  Uiso   1.00
H494   H     0.16664   0.10674   0.79852   0.00000  Uiso   1.00
H495   H     0.24182   0.11850   0.27765   0.00000  Uiso   1.00
H496   H     0.24935   0.38036   0.98995   0.00000  Uiso   1.00
H497   H     0.11670   0.05792   0.86036   0.00000  Uiso   1.00
O498   O     0.23351   0.17641   0.06721   0.00000  Uiso   1.00
O499   O     0.24338   0.51996   0.00172   0.00000  Uiso   1.00
O500   O     0.06935   0.09693   0.83170   0.00000  Uiso   1.00
N501   N     0.20767   0.24410   0.18916   0.00000  Uiso   1.00
N502   N     0.21471   0.48893   0.85509   0.00000  Uiso   1.00
N503   N     0.09069   0.18748   0.73397   0.00000  Uiso   1.00
N504   N     0.22978   0.15926   0.27073   0.00000  Uiso   1.00
N505   N     0.23681   0.40409   0.93667   0.00000  Uiso   1.00
N506   N     0.11280   0.10265   0.81554   0.00000  Uiso   1.00
C507   C     0.16907   0.81428   0.08551   0.00000  Uiso   1.00
C508   C     0.18511   0.77420   0.99621   0.00000  Uiso   1.00
C509   C     0.18628   0.78776   0.87569   0.00000  Uiso   1.00
C510   C     0.20209   0.74517   0.80903   0.00000  Uiso   1.00
C511   C     0.22486   0.69120   0.66245   0.00000  Uiso   1.00
C512   C     0.18705   0.84168   0.17974   0.00000  Uiso   1.00
C513   C     0.18985   0.91197   0.21353   0.00000  Uiso   1.00
C514   C     0.20730   0.92618   0.30137   0.00000  Uiso   1.00
C515   C     0.23307   0.97697   0.43978   0.00000  Uiso   1.00
C516   C     0.15287   0.75859   0.14633   0.00000  Uiso   1.00
C517   C     0.12694   0.75904   0.15207   0.00000  Uiso   1.00
C518   C     0.11561   0.70331   0.21183   0.00000  Uiso   1.00
C519   C     0.08831   0.62510   0.29837   0.00000  Uiso   1.00
C520   C     0.19507   0.71451   0.18145   0.00000  Uiso   1.00
C521   C     0.19923   0.72001   0.04832   0.00000  Uiso   1.00
C522   C     0.21505   0.67738   0.98183   0.00000  Uiso   1.00
C523   C     0.21624   0.69088   0.86123   0.00000  Uiso   1.00
C524   C     0.20117   0.78749   0.23184   0.00000  Uiso   1.00
C525   C     0.21862   0.80160   0.31967   0.00000  Uiso   1.00
C526   C     0.22145   0.87190   0.35358   0.00000  Uiso   1.00
C527   C     0.16700   0.70441   0.19844   0.00000  Uiso   1.00
C528   C     0.15571   0.64866   0.25821   0.00000  Uiso   1.00
C529   C     0.12976   0.64903   0.26403   0.00000  Uiso   1.00
H530   H     0.15808   0.85647   0.04495   0.00000  Uiso   1.00
H531   H     0.17535   0.82970   0.83540   0.00000  Uiso   1.00
H532   H     0.17892   0.95389   0.17320   0.00000  Uiso   1.00
H533   H     0.11602   0.80098   0.11174   0.00000  Uiso   1.00
H534   H     0.20074   0.77615   0.62606   0.00000  Uiso   1.00
H535   H     0.20826   0.03802   0.33835   0.00000  Uiso   1.00
H536   H     0.07561   0.71558   0.20877   0.00000  Uiso   1.00
H537   H     0.20607   0.67233   0.22202   0.00000  Uiso   1.00
H538   H     0.22597   0.63546   0.02218   0.00000  Uiso   1.00
H539   H     0.22954   0.75965   0.35997   0.00000  Uiso   1.00
H540   H     0.16664   0.60674   0.29852   0.00000  Uiso   1.00
H541   H     0.24182   0.61850   0.77765   0.00000  Uiso   1.00
H542   H     0.24935   0.88036   0.48995   0.00000  Uiso   1.00
H543   H     0.11670   0.55792   0.36036   0.00000  Uiso   1.00
O544   O     0.23351   0.67641   0.56721   0.00000  Uiso   1.00
O545   O     0.24338   0.01996   0.50172   0.00000  Uiso   1.00
O546   O     0.06935   0.59693   0.33170   0.00000  Uiso   1.00
N547   N     0.20767   0.74410   0.68916   0.00000  Uiso   1.00
N548   N     0.21471   0.98893   0.35509   0.00000  Uiso   1.00
N549   N     0.09069   0.68748   0.23397   0.00000  Uiso   1.00
N550   N     0.22978   0.65926   0.77073   0.00000  Uiso   1.00
N551   N     0.23681   0.90409   0.43667   0.00000  Uiso   1.00
N552   N     0.11280   0.60265   0.31554   0.00000  Uiso   1.00
C553   C     0.83093   0.18572   0.08551   0.00000  Uiso   1.00
C554   C     0.81489   0.22580   0.99621   0.00000  Uiso   1.00
C555   C     0.81372   0.21224   0.87569   0.00000  Uiso   1.00
C556   C     0.79791   0.25483   0.80903   0.00000  Uiso   1.00
C557   C     0.77514   0.30880   0.66245   0.00000  Uiso   1.00
C558   C     0.81295   0.15832   0.17974   0.00000  Uiso   1.00
C559   C     0.81015   0.08803   0.21353   0.00000  Uiso   1.00
C560   C     0.79270   0.07382   0.30137   0.00000  Uiso   1.00
C561   C     0.76693   0.02303   0.43978   0.00000  Uiso   1.00
C562   C     0.84713   0.24141   0.14633   0.00000  Uiso   1.00
C563   C     0.87306   0.24096   0.15207   0.00000  Uiso   1.00
C564   C     0.88439   0.29669   0.21183   0.00000  Uiso   1.00
C565   C     0.91169   0.37490   0.29837   0.00000  Uiso   1.00
C566   C     0.80493   0.28549   0.18145   0.00000  Uiso   1.00
C567   C     0.80077   0.27999   0.04832   0.00000  Uiso   1.00
C568   C     0.78495   0.32262   0.98183   0.00000  Uiso   1.00
C569   C     0.78376   0.30912   0.86123   0.00000  Uiso   1.00
C570   C     0.79883   0.21251   0.23184   0.00000  Uiso   1.00
C571   C     0.78138   0.19840   0.31967   0.00000  Uiso   1.00
C572   C     0.77855   0.12810   0.35358   0.00000  Uiso   1.00
C573   C     0.83300   0.29559   0.19844   0.00000  Uiso   1.00
C574   C     0.84429   0.35134   0.25821   0.00000  Uiso   1.00
C575   C     0.87024   0.35097   0.26403   0.00000  Uiso   1.00
H576   H     0.84192   0.14353   0.04495   0.00000  Uiso   1.00
H577   H     0.82465   0.17030   0.83540   0.00000  Uiso   1.00
H578   H     0.82108   0.04611   0.17320   0.00000  Uiso   1.00
H579   H     0.88398   0.19902   0.11174   0.00000  Uiso   1.00
H580   H     0.79926   0.22385   0.62606   0.00000  Uiso   1.00
H581   H     0.79174   0.96198   0.33835   0.00000  Uiso   1.00
H582   H     0.92439   0.28442   0.20877   0.00000  Uiso   1.00
H583   H     0.79393   0.32767   0.22202   0.00000  Uiso   1.00
H584   H     0.77403   0.36454   0.02218   0.00000  Uiso   1.00
H585   H     0.77046   0.24035   0.35997   0.00000  Uiso   1.00
H586   H     0.83336   0.39326   0.29852   0.00000  Uiso   1.00
H587   H     0.75818   0.38150   0.77765   0.00000  Uiso   1.00
H588   H     0.75065   0.11964   0.48995   0.00000  Uiso   1.00
H589   H     0.88330   0.44208   0.36036   0.00000  Uiso   1.00
O590   O     0.76649   0.32359   0.56721   0.00000  Uiso   1.00
O591   O     0.75662   0.98004   0.50172   0.00000  Uiso   1.00
O592   O     0.93065   0.40307   0.33170   0.00000  Uiso   1.00
N593   N     0.79233   0.25590   0.68916   0.00000  Uiso   1.00
N594   N     0.78529   0.01107   0.35509   0.00000  Uiso   1.00
N595   N     0.90931   0.31252   0.23397   0.00000  Uiso   1.00
N596   N     0.77022   0.34074   0.77073   0.00000  Uiso   1.00
N597   N     0.76319   0.09591   0.43667   0.00000  Uiso   1.00
N598   N     0.88720   0.39735   0.31554   0.00000  Uiso   1.00
C599   C     0.83093   0.68572   0.58551   0.00000  Uiso   1.00
C600   C     0.81489   0.72580   0.49621   0.00000  Uiso   1.00
C601   C     0.81372   0.71224   0.37569   0.00000  Uiso   1.00
C602   C     0.79791   0.75483   0.30903   0.00000  Uiso   1.00
C603   C     0.77514   0.80880   0.16245   0.00000  Uiso   1.00
C604   C     0.81295   0.65832   0.67974   0.00000  Uiso   1.00
C605   C     0.81015   0.58803   0.71353   0.00000  Uiso   1.00
C606   C     0.79270   0.57382   0.80137   0.00000  Uiso   1.00
C607   C     0.76693   0.52303   0.93978   0.00000  Uiso   1.00
C608   C     0.84713   0.74141   0.64633   0.00000  Uiso   1.00
C609   C     0.87306   0.74096   0.65207   0.00000  Uiso   1.00
C610   C     0.88439   0.79669   0.71183   0.00000  Uiso   1.00
C611   C     0.91169   0.87490   0.79837   0.00000  Uiso   1.00
C612   C     0.80493   0.78549   0.68145   0.00000  Uiso   1.00
C613   C     0.80077   0.77999   0.54832   0.00000  Uiso   1.00
C614   C     0.78495   0.82262   0.48183   0.00000  Uiso   1.00
C615   C     0.78376   0.80912   0.36123   0.00000  Uiso   1.00
C616   C     0.79883   0.71251   0.73184   0.00000  Uiso   1.00
C617   C     0.78138   0.69840   0.81967   0.00000  Uiso   1.00
C618   C     0.77855   0.62810   0.85358   0.00000  Uiso   1.00
C619   C     0.83300   0.79559   0.69844   0.00000  Uiso   1.00
C620   C     0.84429   0.85134   0.75821   0.00000  Uiso   1.00
C621   C     0.87024   0.85097   0.76403   0.00000  Uiso   1.00
H622   H     0.84192   0.64353   0.54495   0.00000  Uiso   1.00
H623   H     0.82465   0.67030   0.33540   0.00000  Uiso   1.00
H624   H     0.82108   0.54611   0.67320   0.00000  Uiso   1.00
H625   H     0.88398   0.69902   0.61174   0.00000  Uiso   1.00
H626   H     0.79926   0.72385   0.12606   0.00000  Uiso   1.00
H627   H     0.79174   0.46198   0.83835   0.00000  Uiso   1.00
H628   H     0.92439   0.78442   0.70877   0.00000  Uiso   1.00
H629   H     0.79393   0.82767   0.72202   0.00000  Uiso   1.00
H630   H     0.77403   0.86454   0.52218   0.00000  Uiso   1.00
H631   H     0.77046   0.74035   0.85997   0.00000  Uiso   1.00
H632   H     0.83336   0.89326   0.79852   0.00000  Uiso   1.00
H633   H     0.75818   0.88150   0.27765   0.00000  Uiso   1.00
H634   H     0.75065   0.61964   0.98995   0.00000  Uiso   1.00
H635   H     0.88330   0.94208   0.86036   0.00000  Uiso   1.00
O636   O     0.76649   0.82359   0.06721   0.00000  Uiso   1.00
O637   O     0.75662   0.48004   0.00172   0.00000  Uiso   1.00
O638   O     0.93065   0.90307   0.83170   0.00000  Uiso   1.00
N639   N     0.79233   0.75590   0.18916   0.00000  Uiso   1.00
N640   N     0.78529   0.51107   0.85509   0.00000  Uiso   1.00
N641   N     0.90931   0.81252   0.73397   0.00000  Uiso   1.00
N642   N     0.77022   0.84074   0.27073   0.00000  Uiso   1.00
N643   N     0.76319   0.59591   0.93667   0.00000  Uiso   1.00
N644   N     0.88720   0.89735   0.81554   0.00000  Uiso   1.00
C645   C     0.33093   0.18572   0.58551   0.00000  Uiso   1.00
C646   C     0.31489   0.22580   0.49621   0.00000  Uiso   1.00
C647   C     0.31372   0.21224   0.37569   0.00000  Uiso   1.00
C648   C     0.29791   0.25483   0.30903   0.00000  Uiso   1.00
C649   C     0.27514   0.30880   0.16245   0.00000  Uiso   1.00
C650   C     0.31295   0.15832   0.67974   0.00000  Uiso   1.00
C651   C     0.31015   0.08803   0.71353   0.00000  Uiso   1.00
C652   C     0.29270   0.07382   0.80137   0.00000  Uiso   1.00
C653   C     0.26693   0.02303   0.93978   0.00000  Uiso   1.00
C654   C     0.34713   0.24141   0.64633   0.00000  Uiso   1.00
C655   C     0.37306   0.24096   0.65207   0.00000  Uiso   1.00
C656   C     0.38439   0.29669   0.71183   0.00000  Uiso   1.00
C657   C     0.41169   0.37490   0.79837   0.00000  Uiso   1.00
C658   C     0.30493   0.28549   0.68145   0.00000  Uiso   1.00
C659   C     0.30077   0.27999   0.54832   0.00000  Uiso   1.00
C660   C     0.28495   0.32262   0.48183   0.00000  Uiso   1.00
C661   C     0.28376   0.30912   0.36123   0.00000  Uiso   1.00
C662   C     0.29883   0.21251   0.73184   0.00000  Uiso   1.00
C663   C     0.28138   0.19840   0.81967   0.00000  Uiso   1.00
C664   C     0.27855   0.12810   0.85358   0.00000  Uiso   1.00
C665   C     0.33300   0.29559   0.69844   0.00000  Uiso   1.00
C666   C     0.34429   0.35134   0.75821   0.00000  Uiso   1.00
C667   C     0.37024   0.35097   0.76403   0.00000  Uiso   1.00
H668   H     0.34192   0.14353   0.54495   0.00000  Uiso   1.00
H669   H     0.32465   0.17030   0.33540   0.00000  Uiso   1.00
H670   H     0.32108   0.04611   0.67320   0.00000  Uiso   1.00
H671   H     0.38398   0.19902   0.61174   0.00000  Uiso   1.00
H672   H     0.29926   0.22385   0.12606   0.00000  Uiso   1.00
H673   H     0.29174   0.96198   0.83835   0.00000  Uiso   1.00
H674   H     0.42439   0.28442   0.70877   0.00000  Uiso   1.00
H675   H     0.29393   0.32767   0.72202   0.00000  Uiso   1.00
H676   H     0.27403   0.36454   0.52218   0.00000  Uiso   1.00
H677   H     0.27046   0.24035   0.85997   0.00000  Uiso   1.00
H678   H     0.33336   0.39326   0.79852   0.00000  Uiso   1.00
H679   H     0.25818   0.38150   0.27765   0.00000  Uiso   1.00
H680   H     0.25065   0.11964   0.98995   0.00000  Uiso   1.00
H681   H     0.38330   0.44208   0.86036   0.00000  Uiso   1.00
O682   O     0.26649   0.32359   0.06721   0.00000  Uiso   1.00
O683   O     0.25662   0.98004   0.00172   0.00000  Uiso   1.00
O684   O     0.43065   0.40307   0.83170   0.00000  Uiso   1.00
N685   N     0.29233   0.25590   0.18916   0.00000  Uiso   1.00
N686   N     0.28529   0.01107   0.85509   0.00000  Uiso   1.00
N687   N     0.40931   0.31252   0.73397   0.00000  Uiso   1.00
N688   N     0.27022   0.34074   0.27073   0.00000  Uiso   1.00
N689   N     0.26319   0.09591   0.93667   0.00000  Uiso   1.00
N690   N     0.38720   0.39735   0.81554   0.00000  Uiso   1.00
C691   C     0.33093   0.68572   0.08551   0.00000  Uiso   1.00
C692   C     0.31489   0.72580   0.99621   0.00000  Uiso   1.00
C693   C     0.31372   0.71224   0.87569   0.00000  Uiso   1.00
C694   C     0.29791   0.75483   0.80903   0.00000  Uiso   1.00
C695   C     0.27514   0.80880   0.66245   0.00000  Uiso   1.00
C696   C     0.31295   0.65832   0.17974   0.00000  Uiso   1.00
C697   C     0.31015   0.58803   0.21353   0.00000  Uiso   1.00
C698   C     0.29270   0.57382   0.30137   0.00000  Uiso   1.00
C699   C     0.26693   0.52303   0.43978   0.00000  Uiso   1.00
C700   C     0.34713   0.74141   0.14633   0.00000  Uiso   1.00
C701   C     0.37306   0.74096   0.15207   0.00000  Uiso   1.00
C702   C     0.38439   0.79669   0.21183   0.00000  Uiso   1.00
C703   C     0.41169   0.87490   0.29837   0.00000  Uiso   1.00
C704   C     0.30493   0.78549   0.18145   0.00000  Uiso   1.00
C705   C     0.30077   0.77999   0.04832   0.00000  Uiso   1.00
C706   C     0.28495   0.82262   0.98183   0.00000  Uiso   1.00
C707   C     0.28376   0.80912   0.86123   0.00000  Uiso   1.00
C708   C     0.29883   0.71251   0.23184   0.00000  Uiso   1.00
C709   C     0.28138   0.69840   0.31967   0.00000  Uiso   1.00
C710   C     0.27855   0.62810   0.35358   0.00000  Uiso   1.00
C711   C     0.33300   0.79559   0.19844   0.00000  Uiso   1.00
C712   C     0.34429   0.85134   0.25821   0.00000  Uiso   1.00
C713   C     0.37024   0.85097   0.26403   0.00000  Uiso   1.00
H714   H     0.34192   0.64353   0.04495   0.00000  Uiso   1.00
H715   H     0.32465   0.67030   0.83540   0.00000  Uiso   1.00
H716   H     0.32108   0.54611   0.17320   0.00000  Uiso   1.00
H717   H     0.38398   0.69902   0.11174   0.00000  Uiso   1.00
H718   H     0.29926   0.72385   0.62606   0.00000  Uiso   1.00
H719   H     0.29174   0.46198   0.33835   0.00000  Uiso   1.00
H720   H     0.42439   0.78442   0.20877   0.00000  Uiso   1.00
H721   H     0.29393   0.82767   0.22202   0.00000  Uiso   1.00
H722   H     0.27403   0.86454   0.02218   0.00000  Uiso   1.00
H723   H     0.27046   0.74035   0.35997   0.00000  Uiso   1.00
H724   H     0.33336   0.89326   0.29852   0.00000  Uiso   1.00
H725   H     0.25818   0.88150   0.77765   0.00000  Uiso   1.00
H726   H     0.25065   0.61964   0.48995   0.00000  Uiso   1.00
H727   H     0.38330   0.94208   0.36036   0.00000  Uiso   1.00
O728   O     0.26649   0.82359   0.56721   0.00000  Uiso   1.00
O729   O     0.25662   0.48004   0.50172   0.00000  Uiso   1.00
O730   O     0.43065   0.90307   0.33170   0.00000  Uiso   1.00
N731   N     0.29233   0.75590   0.68916   0.00000  Uiso   1.00
N732   N     0.28529   0.51107   0.35509   0.00000  Uiso   1.00
N733   N     0.40931   0.81252   0.23397   0.00000  Uiso   1.00
N734   N     0.27022   0.84074   0.77073   0.00000  Uiso   1.00
N735   N     0.26319   0.59591   0.43667   0.00000  Uiso   1.00
N736   N     0.38720   0.89735   0.31554   0.00000  Uiso   1.00
