data_job_04705
_audit_creation_date              2018-12-19
_audit_creation_method            'Materials Studio'
_symmetry_space_group_name_H-M    'P1'
_symmetry_Int_Tables_number       1
_symmetry_cell_setting            triclinic
loop_
_symmetry_equiv_pos_as_xyz
  x,y,z
_cell_length_a                    25.6499
_cell_length_b                    25.6499
_cell_length_c                    14.1888
_cell_angle_alpha                 90.0000
_cell_angle_beta                  90.0000
_cell_angle_gamma                 90.0000
loop_
_atom_site_label
_atom_site_type_symbol
_atom_site_fract_x
_atom_site_fract_y
_atom_site_fract_z
_atom_site_U_iso_or_equiv
_atom_site_adp_type
_atom_site_occupancy
C1     C     0.48847   0.22231   0.46763   0.00000  Uiso   1.00
C2     C     0.44046   0.25163   0.43288   0.00000  Uiso   1.00
C3     C     0.42038   0.29699   0.47195   0.00000  Uiso   1.00
C4     C     0.37615   0.31779   0.42991   0.00000  Uiso   1.00
C5     C     0.30513   0.36693   0.38789   0.00000  Uiso   1.00
C6     C     0.47040   0.16678   0.48787   0.00000  Uiso   1.00
C7     C     0.47551   0.14080   0.57316   0.00000  Uiso   1.00
C8     C     0.45650   0.09017   0.57740   0.00000  Uiso   1.00
C9     C     0.43200   0.00756   0.62072   0.00000  Uiso   1.00
C10    C     0.52518   0.21855   0.38338   0.00000  Uiso   1.00
C11    C     0.57635   0.23607   0.38082   0.00000  Uiso   1.00
C12    C     0.60345   0.22902   0.29708   0.00000  Uiso   1.00
C13    C     0.66400   0.22678   0.17816   0.00000  Uiso   1.00
C14    C     0.44562   0.17860   0.32349   0.00000  Uiso   1.00
C15    C     0.41719   0.22789   0.35459   0.00000  Uiso   1.00
C16    C     0.37298   0.24863   0.31247   0.00000  Uiso   1.00
C17    C     0.35284   0.29401   0.35147   0.00000  Uiso   1.00
C18    C     0.44713   0.14304   0.40958   0.00000  Uiso   1.00
C19    C     0.42811   0.09244   0.41368   0.00000  Uiso   1.00
C20    C     0.43318   0.06639   0.49896   0.00000  Uiso   1.00
C21    C     0.50191   0.19481   0.30508   0.00000  Uiso   1.00
C22    C     0.52894   0.18772   0.22133   0.00000  Uiso   1.00
C23    C     0.58014   0.20523   0.21864   0.00000  Uiso   1.00
H24    H     0.50658   0.24078   0.52859   0.00000  Uiso   1.00
H25    H     0.43840   0.31535   0.53255   0.00000  Uiso   1.00
H26    H     0.49353   0.15918   0.63374   0.00000  Uiso   1.00
H27    H     0.59434   0.25444   0.44142   0.00000  Uiso   1.00
H28    H     0.35253   0.38753   0.50243   0.00000  Uiso   1.00
H29    H     0.46878   0.05823   0.71578   0.00000  Uiso   1.00
H30    H     0.68138   0.25912   0.31024   0.00000  Uiso   1.00
H31    H     0.42750   0.16012   0.26253   0.00000  Uiso   1.00
H32    H     0.35498   0.23025   0.25188   0.00000  Uiso   1.00
H33    H     0.41011   0.07408   0.35308   0.00000  Uiso   1.00
H34    H     0.51092   0.16935   0.16076   0.00000  Uiso   1.00
H35    H     0.28482   0.31847   0.27463   0.00000  Uiso   1.00
H36    H     0.40108   0.98916   0.48799   0.00000  Uiso   1.00
H37    H     0.61367   0.19005   0.08244   0.00000  Uiso   1.00
O38    O     0.27238   0.40058   0.38635   0.00000  Uiso   1.00
O39    O     0.42491   0.96855   0.66626   0.00000  Uiso   1.00
O40    O     0.70383   0.23211   0.13419   0.00000  Uiso   1.00
N41    N     0.34655   0.36166   0.45027   0.00000  Uiso   1.00
N42    N     0.45524   0.05378   0.64975   0.00000  Uiso   1.00
N43    N     0.65400   0.24158   0.27060   0.00000  Uiso   1.00
N44    N     0.31012   0.32449   0.32769   0.00000  Uiso   1.00
N45    N     0.41880   0.01662   0.52717   0.00000  Uiso   1.00
N46    N     0.61756   0.20442   0.14803   0.00000  Uiso   1.00
C47    C     0.98847   0.72231   0.96763   0.00000  Uiso   1.00
C48    C     0.94046   0.75163   0.93288   0.00000  Uiso   1.00
C49    C     0.92038   0.79699   0.97195   0.00000  Uiso   1.00
C50    C     0.87615   0.81779   0.92991   0.00000  Uiso   1.00
C51    C     0.80513   0.86693   0.88789   0.00000  Uiso   1.00
C52    C     0.97040   0.66678   0.98787   0.00000  Uiso   1.00
C53    C     0.97551   0.64080   0.07316   0.00000  Uiso   1.00
C54    C     0.95650   0.59017   0.07740   0.00000  Uiso   1.00
C55    C     0.93200   0.50756   0.12072   0.00000  Uiso   1.00
C56    C     0.02518   0.71855   0.88338   0.00000  Uiso   1.00
C57    C     0.07635   0.73607   0.88082   0.00000  Uiso   1.00
C58    C     0.10345   0.72902   0.79708   0.00000  Uiso   1.00
C59    C     0.16400   0.72678   0.67816   0.00000  Uiso   1.00
C60    C     0.94562   0.67860   0.82349   0.00000  Uiso   1.00
C61    C     0.91719   0.72789   0.85459   0.00000  Uiso   1.00
C62    C     0.87298   0.74863   0.81247   0.00000  Uiso   1.00
C63    C     0.85284   0.79401   0.85147   0.00000  Uiso   1.00
C64    C     0.94713   0.64304   0.90958   0.00000  Uiso   1.00
C65    C     0.92811   0.59244   0.91368   0.00000  Uiso   1.00
C66    C     0.93318   0.56639   0.99896   0.00000  Uiso   1.00
C67    C     0.00191   0.69481   0.80508   0.00000  Uiso   1.00
C68    C     0.02894   0.68772   0.72133   0.00000  Uiso   1.00
C69    C     0.08014   0.70523   0.71864   0.00000  Uiso   1.00
H70    H     0.00658   0.74078   0.02859   0.00000  Uiso   1.00
H71    H     0.93840   0.81535   0.03255   0.00000  Uiso   1.00
H72    H     0.99353   0.65918   0.13374   0.00000  Uiso   1.00
H73    H     0.09434   0.75444   0.94142   0.00000  Uiso   1.00
H74    H     0.85253   0.88753   0.00243   0.00000  Uiso   1.00
H75    H     0.96878   0.55823   0.21578   0.00000  Uiso   1.00
H76    H     0.18138   0.75912   0.81024   0.00000  Uiso   1.00
H77    H     0.92750   0.66012   0.76253   0.00000  Uiso   1.00
H78    H     0.85498   0.73025   0.75188   0.00000  Uiso   1.00
H79    H     0.91011   0.57408   0.85308   0.00000  Uiso   1.00
H80    H     0.01092   0.66935   0.66076   0.00000  Uiso   1.00
H81    H     0.78482   0.81847   0.77463   0.00000  Uiso   1.00
H82    H     0.90108   0.48916   0.98799   0.00000  Uiso   1.00
H83    H     0.11367   0.69005   0.58244   0.00000  Uiso   1.00
O84    O     0.77238   0.90058   0.88635   0.00000  Uiso   1.00
O85    O     0.92491   0.46855   0.16626   0.00000  Uiso   1.00
O86    O     0.20383   0.73211   0.63419   0.00000  Uiso   1.00
N87    N     0.84655   0.86166   0.95027   0.00000  Uiso   1.00
N88    N     0.95524   0.55378   0.14975   0.00000  Uiso   1.00
N89    N     0.15400   0.74158   0.77060   0.00000  Uiso   1.00
N90    N     0.81012   0.82449   0.82769   0.00000  Uiso   1.00
N91    N     0.91880   0.51662   0.02717   0.00000  Uiso   1.00
N92    N     0.11756   0.70442   0.64803   0.00000  Uiso   1.00
C93    C     0.01153   0.27769   0.96763   0.00000  Uiso   1.00
C94    C     0.05954   0.24837   0.93288   0.00000  Uiso   1.00
C95    C     0.07962   0.20301   0.97195   0.00000  Uiso   1.00
C96    C     0.12385   0.18221   0.92991   0.00000  Uiso   1.00
C97    C     0.19487   0.13307   0.88789   0.00000  Uiso   1.00
C98    C     0.02960   0.33322   0.98787   0.00000  Uiso   1.00
C99    C     0.02449   0.35920   0.07316   0.00000  Uiso   1.00
C100   C     0.04350   0.40983   0.07740   0.00000  Uiso   1.00
C101   C     0.06800   0.49244   0.12072   0.00000  Uiso   1.00
C102   C     0.97482   0.28145   0.88338   0.00000  Uiso   1.00
C103   C     0.92365   0.26393   0.88082   0.00000  Uiso   1.00
C104   C     0.89655   0.27098   0.79708   0.00000  Uiso   1.00
C105   C     0.83600   0.27322   0.67816   0.00000  Uiso   1.00
C106   C     0.05438   0.32140   0.82349   0.00000  Uiso   1.00
C107   C     0.08281   0.27211   0.85459   0.00000  Uiso   1.00
C108   C     0.12702   0.25137   0.81247   0.00000  Uiso   1.00
C109   C     0.14716   0.20599   0.85147   0.00000  Uiso   1.00
C110   C     0.05287   0.35696   0.90958   0.00000  Uiso   1.00
C111   C     0.07189   0.40756   0.91368   0.00000  Uiso   1.00
C112   C     0.06682   0.43361   0.99896   0.00000  Uiso   1.00
C113   C     0.99809   0.30519   0.80508   0.00000  Uiso   1.00
C114   C     0.97106   0.31228   0.72133   0.00000  Uiso   1.00
C115   C     0.91986   0.29477   0.71864   0.00000  Uiso   1.00
H116   H     0.99342   0.25922   0.02859   0.00000  Uiso   1.00
H117   H     0.06160   0.18465   0.03255   0.00000  Uiso   1.00
H118   H     0.00647   0.34082   0.13374   0.00000  Uiso   1.00
H119   H     0.90566   0.24556   0.94142   0.00000  Uiso   1.00
H120   H     0.14747   0.11247   0.00243   0.00000  Uiso   1.00
H121   H     0.03122   0.44177   0.21578   0.00000  Uiso   1.00
H122   H     0.81862   0.24088   0.81024   0.00000  Uiso   1.00
H123   H     0.07250   0.33988   0.76253   0.00000  Uiso   1.00
H124   H     0.14502   0.26975   0.75188   0.00000  Uiso   1.00
H125   H     0.08989   0.42592   0.85308   0.00000  Uiso   1.00
H126   H     0.98908   0.33065   0.66076   0.00000  Uiso   1.00
H127   H     0.21518   0.18153   0.77463   0.00000  Uiso   1.00
H128   H     0.09892   0.51084   0.98799   0.00000  Uiso   1.00
H129   H     0.88633   0.30995   0.58244   0.00000  Uiso   1.00
O130   O     0.22762   0.09942   0.88635   0.00000  Uiso   1.00
O131   O     0.07509   0.53145   0.16626   0.00000  Uiso   1.00
O132   O     0.79617   0.26789   0.63419   0.00000  Uiso   1.00
N133   N     0.15345   0.13834   0.95027   0.00000  Uiso   1.00
N134   N     0.04476   0.44622   0.14975   0.00000  Uiso   1.00
N135   N     0.84600   0.25842   0.77060   0.00000  Uiso   1.00
N136   N     0.18988   0.17551   0.82769   0.00000  Uiso   1.00
N137   N     0.08120   0.48338   0.02717   0.00000  Uiso   1.00
N138   N     0.88244   0.29558   0.64803   0.00000  Uiso   1.00
C139   C     0.51153   0.77769   0.46763   0.00000  Uiso   1.00
C140   C     0.55954   0.74837   0.43288   0.00000  Uiso   1.00
C141   C     0.57962   0.70301   0.47195   0.00000  Uiso   1.00
C142   C     0.62385   0.68221   0.42991   0.00000  Uiso   1.00
C143   C     0.69487   0.63307   0.38789   0.00000  Uiso   1.00
C144   C     0.52960   0.83322   0.48787   0.00000  Uiso   1.00
C145   C     0.52449   0.85920   0.57316   0.00000  Uiso   1.00
C146   C     0.54350   0.90983   0.57740   0.00000  Uiso   1.00
C147   C     0.56800   0.99244   0.62072   0.00000  Uiso   1.00
C148   C     0.47482   0.78145   0.38338   0.00000  Uiso   1.00
C149   C     0.42365   0.76393   0.38082   0.00000  Uiso   1.00
C150   C     0.39655   0.77098   0.29708   0.00000  Uiso   1.00
C151   C     0.33600   0.77322   0.17816   0.00000  Uiso   1.00
C152   C     0.55438   0.82140   0.32349   0.00000  Uiso   1.00
C153   C     0.58281   0.77211   0.35459   0.00000  Uiso   1.00
C154   C     0.62702   0.75137   0.31247   0.00000  Uiso   1.00
C155   C     0.64716   0.70599   0.35147   0.00000  Uiso   1.00
C156   C     0.55287   0.85696   0.40958   0.00000  Uiso   1.00
C157   C     0.57189   0.90756   0.41368   0.00000  Uiso   1.00
C158   C     0.56682   0.93361   0.49896   0.00000  Uiso   1.00
C159   C     0.49809   0.80519   0.30508   0.00000  Uiso   1.00
C160   C     0.47106   0.81228   0.22133   0.00000  Uiso   1.00
C161   C     0.41986   0.79477   0.21864   0.00000  Uiso   1.00
H162   H     0.49342   0.75922   0.52859   0.00000  Uiso   1.00
H163   H     0.56160   0.68465   0.53255   0.00000  Uiso   1.00
H164   H     0.50647   0.84082   0.63374   0.00000  Uiso   1.00
H165   H     0.40566   0.74556   0.44142   0.00000  Uiso   1.00
H166   H     0.64747   0.61247   0.50243   0.00000  Uiso   1.00
H167   H     0.53122   0.94177   0.71578   0.00000  Uiso   1.00
H168   H     0.31862   0.74088   0.31024   0.00000  Uiso   1.00
H169   H     0.57250   0.83988   0.26253   0.00000  Uiso   1.00
H170   H     0.64502   0.76975   0.25188   0.00000  Uiso   1.00
H171   H     0.58989   0.92592   0.35308   0.00000  Uiso   1.00
H172   H     0.48908   0.83065   0.16076   0.00000  Uiso   1.00
H173   H     0.71518   0.68153   0.27463   0.00000  Uiso   1.00
H174   H     0.59892   0.01084   0.48799   0.00000  Uiso   1.00
H175   H     0.38633   0.80995   0.08244   0.00000  Uiso   1.00
O176   O     0.72762   0.59942   0.38635   0.00000  Uiso   1.00
O177   O     0.57509   0.03145   0.66626   0.00000  Uiso   1.00
O178   O     0.29617   0.76789   0.13419   0.00000  Uiso   1.00
N179   N     0.65345   0.63834   0.45027   0.00000  Uiso   1.00
N180   N     0.54476   0.94622   0.64975   0.00000  Uiso   1.00
N181   N     0.34600   0.75842   0.27060   0.00000  Uiso   1.00
N182   N     0.68988   0.67551   0.32769   0.00000  Uiso   1.00
N183   N     0.58120   0.98338   0.52717   0.00000  Uiso   1.00
N184   N     0.38244   0.79558   0.14803   0.00000  Uiso   1.00
C185   C     0.77769   0.98847   0.71763   0.00000  Uiso   1.00
C186   C     0.74837   0.94046   0.68288   0.00000  Uiso   1.00
C187   C     0.70301   0.92038   0.72195   0.00000  Uiso   1.00
C188   C     0.68221   0.87615   0.67991   0.00000  Uiso   1.00
C189   C     0.63307   0.80513   0.63789   0.00000  Uiso   1.00
C190   C     0.83322   0.97040   0.73787   0.00000  Uiso   1.00
C191   C     0.85920   0.97551   0.82316   0.00000  Uiso   1.00
C192   C     0.90983   0.95650   0.82740   0.00000  Uiso   1.00
C193   C     0.99244   0.93200   0.87072   0.00000  Uiso   1.00
C194   C     0.78145   0.02518   0.63338   0.00000  Uiso   1.00
C195   C     0.76393   0.07635   0.63082   0.00000  Uiso   1.00
C196   C     0.77098   0.10345   0.54708   0.00000  Uiso   1.00
C197   C     0.77322   0.16400   0.42816   0.00000  Uiso   1.00
C198   C     0.82140   0.94562   0.57349   0.00000  Uiso   1.00
C199   C     0.77211   0.91719   0.60459   0.00000  Uiso   1.00
C200   C     0.75137   0.87298   0.56247   0.00000  Uiso   1.00
C201   C     0.70599   0.85284   0.60147   0.00000  Uiso   1.00
C202   C     0.85696   0.94713   0.65958   0.00000  Uiso   1.00
C203   C     0.90756   0.92811   0.66368   0.00000  Uiso   1.00
C204   C     0.93361   0.93318   0.74896   0.00000  Uiso   1.00
C205   C     0.80519   0.00191   0.55508   0.00000  Uiso   1.00
C206   C     0.81228   0.02894   0.47133   0.00000  Uiso   1.00
C207   C     0.79477   0.08014   0.46864   0.00000  Uiso   1.00
H208   H     0.75922   0.00658   0.77859   0.00000  Uiso   1.00
H209   H     0.68465   0.93840   0.78255   0.00000  Uiso   1.00
H210   H     0.84082   0.99353   0.88374   0.00000  Uiso   1.00
H211   H     0.74556   0.09434   0.69142   0.00000  Uiso   1.00
H212   H     0.61247   0.85253   0.75243   0.00000  Uiso   1.00
H213   H     0.94177   0.96878   0.96578   0.00000  Uiso   1.00
H214   H     0.74088   0.18138   0.56024   0.00000  Uiso   1.00
H215   H     0.83988   0.92750   0.51253   0.00000  Uiso   1.00
H216   H     0.76975   0.85498   0.50188   0.00000  Uiso   1.00
H217   H     0.92592   0.91011   0.60308   0.00000  Uiso   1.00
H218   H     0.83065   0.01092   0.41076   0.00000  Uiso   1.00
H219   H     0.68153   0.78482   0.52463   0.00000  Uiso   1.00
H220   H     0.01084   0.90108   0.73799   0.00000  Uiso   1.00
H221   H     0.80995   0.11367   0.33244   0.00000  Uiso   1.00
O222   O     0.59942   0.77238   0.63635   0.00000  Uiso   1.00
O223   O     0.03145   0.92491   0.91626   0.00000  Uiso   1.00
O224   O     0.76789   0.20383   0.38419   0.00000  Uiso   1.00
N225   N     0.63834   0.84655   0.70027   0.00000  Uiso   1.00
N226   N     0.94622   0.95524   0.89975   0.00000  Uiso   1.00
N227   N     0.75842   0.15400   0.52060   0.00000  Uiso   1.00
N228   N     0.67551   0.81012   0.57769   0.00000  Uiso   1.00
N229   N     0.98338   0.91880   0.77717   0.00000  Uiso   1.00
N230   N     0.79558   0.11756   0.39803   0.00000  Uiso   1.00
C231   C     0.27769   0.48847   0.21763   0.00000  Uiso   1.00
C232   C     0.24837   0.44046   0.18288   0.00000  Uiso   1.00
C233   C     0.20301   0.42038   0.22195   0.00000  Uiso   1.00
C234   C     0.18221   0.37615   0.17991   0.00000  Uiso   1.00
C235   C     0.13307   0.30513   0.13789   0.00000  Uiso   1.00
C236   C     0.33322   0.47040   0.23787   0.00000  Uiso   1.00
C237   C     0.35920   0.47551   0.32316   0.00000  Uiso   1.00
C238   C     0.40983   0.45650   0.32740   0.00000  Uiso   1.00
C239   C     0.49244   0.43200   0.37072   0.00000  Uiso   1.00
C240   C     0.28145   0.52518   0.13338   0.00000  Uiso   1.00
C241   C     0.26393   0.57635   0.13082   0.00000  Uiso   1.00
C242   C     0.27098   0.60345   0.04708   0.00000  Uiso   1.00
C243   C     0.27322   0.66400   0.92816   0.00000  Uiso   1.00
C244   C     0.32140   0.44562   0.07349   0.00000  Uiso   1.00
C245   C     0.27211   0.41719   0.10459   0.00000  Uiso   1.00
C246   C     0.25137   0.37298   0.06247   0.00000  Uiso   1.00
C247   C     0.20599   0.35284   0.10147   0.00000  Uiso   1.00
C248   C     0.35696   0.44713   0.15958   0.00000  Uiso   1.00
C249   C     0.40756   0.42811   0.16368   0.00000  Uiso   1.00
C250   C     0.43361   0.43318   0.24896   0.00000  Uiso   1.00
C251   C     0.30519   0.50191   0.05508   0.00000  Uiso   1.00
C252   C     0.31228   0.52894   0.97133   0.00000  Uiso   1.00
C253   C     0.29477   0.58014   0.96864   0.00000  Uiso   1.00
H254   H     0.25922   0.50658   0.27859   0.00000  Uiso   1.00
H255   H     0.18465   0.43840   0.28255   0.00000  Uiso   1.00
H256   H     0.34082   0.49353   0.38374   0.00000  Uiso   1.00
H257   H     0.24556   0.59434   0.19142   0.00000  Uiso   1.00
H258   H     0.11247   0.35253   0.25243   0.00000  Uiso   1.00
H259   H     0.44177   0.46878   0.46578   0.00000  Uiso   1.00
H260   H     0.24088   0.68138   0.06024   0.00000  Uiso   1.00
H261   H     0.33988   0.42750   0.01253   0.00000  Uiso   1.00
H262   H     0.26975   0.35498   0.00188   0.00000  Uiso   1.00
H263   H     0.42592   0.41011   0.10308   0.00000  Uiso   1.00
H264   H     0.33065   0.51092   0.91076   0.00000  Uiso   1.00
H265   H     0.18153   0.28482   0.02463   0.00000  Uiso   1.00
H266   H     0.51084   0.40108   0.23799   0.00000  Uiso   1.00
H267   H     0.30995   0.61367   0.83244   0.00000  Uiso   1.00
O268   O     0.09942   0.27238   0.13635   0.00000  Uiso   1.00
O269   O     0.53145   0.42491   0.41626   0.00000  Uiso   1.00
O270   O     0.26789   0.70383   0.88419   0.00000  Uiso   1.00
N271   N     0.13834   0.34655   0.20027   0.00000  Uiso   1.00
N272   N     0.44622   0.45524   0.39975   0.00000  Uiso   1.00
N273   N     0.25842   0.65400   0.02060   0.00000  Uiso   1.00
N274   N     0.17551   0.31012   0.07769   0.00000  Uiso   1.00
N275   N     0.48338   0.41880   0.27717   0.00000  Uiso   1.00
N276   N     0.29558   0.61756   0.89803   0.00000  Uiso   1.00
C277   C     0.72231   0.51153   0.21763   0.00000  Uiso   1.00
C278   C     0.75163   0.55954   0.18288   0.00000  Uiso   1.00
C279   C     0.79699   0.57962   0.22195   0.00000  Uiso   1.00
C280   C     0.81779   0.62385   0.17991   0.00000  Uiso   1.00
C281   C     0.86693   0.69487   0.13789   0.00000  Uiso   1.00
C282   C     0.66678   0.52960   0.23787   0.00000  Uiso   1.00
C283   C     0.64080   0.52449   0.32316   0.00000  Uiso   1.00
C284   C     0.59017   0.54350   0.32740   0.00000  Uiso   1.00
C285   C     0.50756   0.56800   0.37072   0.00000  Uiso   1.00
C286   C     0.71855   0.47482   0.13338   0.00000  Uiso   1.00
C287   C     0.73607   0.42365   0.13082   0.00000  Uiso   1.00
C288   C     0.72902   0.39655   0.04708   0.00000  Uiso   1.00
C289   C     0.72678   0.33600   0.92816   0.00000  Uiso   1.00
C290   C     0.67860   0.55438   0.07349   0.00000  Uiso   1.00
C291   C     0.72789   0.58281   0.10459   0.00000  Uiso   1.00
C292   C     0.74863   0.62702   0.06247   0.00000  Uiso   1.00
C293   C     0.79401   0.64716   0.10147   0.00000  Uiso   1.00
C294   C     0.64304   0.55287   0.15958   0.00000  Uiso   1.00
C295   C     0.59244   0.57189   0.16368   0.00000  Uiso   1.00
C296   C     0.56639   0.56682   0.24896   0.00000  Uiso   1.00
C297   C     0.69481   0.49809   0.05508   0.00000  Uiso   1.00
C298   C     0.68772   0.47106   0.97133   0.00000  Uiso   1.00
C299   C     0.70523   0.41986   0.96864   0.00000  Uiso   1.00
H300   H     0.74078   0.49342   0.27859   0.00000  Uiso   1.00
H301   H     0.81535   0.56160   0.28255   0.00000  Uiso   1.00
H302   H     0.65918   0.50647   0.38374   0.00000  Uiso   1.00
H303   H     0.75444   0.40566   0.19142   0.00000  Uiso   1.00
H304   H     0.88753   0.64747   0.25243   0.00000  Uiso   1.00
H305   H     0.55823   0.53122   0.46578   0.00000  Uiso   1.00
H306   H     0.75912   0.31862   0.06024   0.00000  Uiso   1.00
H307   H     0.66012   0.57250   0.01253   0.00000  Uiso   1.00
H308   H     0.73025   0.64502   0.00188   0.00000  Uiso   1.00
H309   H     0.57408   0.58989   0.10308   0.00000  Uiso   1.00
H310   H     0.66935   0.48908   0.91076   0.00000  Uiso   1.00
H311   H     0.81847   0.71518   0.02463   0.00000  Uiso   1.00
H312   H     0.48916   0.59892   0.23799   0.00000  Uiso   1.00
H313   H     0.69005   0.38633   0.83244   0.00000  Uiso   1.00
O314   O     0.90058   0.72762   0.13635   0.00000  Uiso   1.00
O315   O     0.46855   0.57509   0.41626   0.00000  Uiso   1.00
O316   O     0.73211   0.29617   0.88419   0.00000  Uiso   1.00
N317   N     0.86166   0.65345   0.20027   0.00000  Uiso   1.00
N318   N     0.55378   0.54476   0.39975   0.00000  Uiso   1.00
N319   N     0.74158   0.34600   0.02060   0.00000  Uiso   1.00
N320   N     0.82449   0.68988   0.07769   0.00000  Uiso   1.00
N321   N     0.51662   0.58120   0.27717   0.00000  Uiso   1.00
N322   N     0.70442   0.38244   0.89803   0.00000  Uiso   1.00
C323   C     0.22231   0.01153   0.71763   0.00000  Uiso   1.00
C324   C     0.25163   0.05954   0.68288   0.00000  Uiso   1.00
C325   C     0.29699   0.07962   0.72195   0.00000  Uiso   1.00
C326   C     0.31779   0.12385   0.67991   0.00000  Uiso   1.00
C327   C     0.36693   0.19487   0.63789   0.00000  Uiso   1.00
C328   C     0.16678   0.02960   0.73787   0.00000  Uiso   1.00
C329   C     0.14080   0.02449   0.82316   0.00000  Uiso   1.00
C330   C     0.09017   0.04350   0.82740   0.00000  Uiso   1.00
C331   C     0.00756   0.06800   0.87072   0.00000  Uiso   1.00
C332   C     0.21855   0.97482   0.63338   0.00000  Uiso   1.00
C333   C     0.23607   0.92365   0.63082   0.00000  Uiso   1.00
C334   C     0.22902   0.89655   0.54708   0.00000  Uiso   1.00
C335   C     0.22678   0.83600   0.42816   0.00000  Uiso   1.00
C336   C     0.17860   0.05438   0.57349   0.00000  Uiso   1.00
C337   C     0.22789   0.08281   0.60459   0.00000  Uiso   1.00
C338   C     0.24863   0.12702   0.56247   0.00000  Uiso   1.00
C339   C     0.29401   0.14716   0.60147   0.00000  Uiso   1.00
C340   C     0.14304   0.05287   0.65958   0.00000  Uiso   1.00
C341   C     0.09244   0.07189   0.66368   0.00000  Uiso   1.00
C342   C     0.06639   0.06682   0.74896   0.00000  Uiso   1.00
C343   C     0.19481   0.99809   0.55508   0.00000  Uiso   1.00
C344   C     0.18772   0.97106   0.47133   0.00000  Uiso   1.00
C345   C     0.20523   0.91986   0.46864   0.00000  Uiso   1.00
H346   H     0.24078   0.99342   0.77859   0.00000  Uiso   1.00
H347   H     0.31535   0.06160   0.78255   0.00000  Uiso   1.00
H348   H     0.15918   0.00647   0.88374   0.00000  Uiso   1.00
H349   H     0.25444   0.90566   0.69142   0.00000  Uiso   1.00
H350   H     0.38753   0.14747   0.75243   0.00000  Uiso   1.00
H351   H     0.05823   0.03122   0.96578   0.00000  Uiso   1.00
H352   H     0.25912   0.81862   0.56024   0.00000  Uiso   1.00
H353   H     0.16012   0.07250   0.51253   0.00000  Uiso   1.00
H354   H     0.23025   0.14502   0.50188   0.00000  Uiso   1.00
H355   H     0.07408   0.08989   0.60308   0.00000  Uiso   1.00
H356   H     0.16935   0.98908   0.41076   0.00000  Uiso   1.00
H357   H     0.31847   0.21518   0.52463   0.00000  Uiso   1.00
H358   H     0.98916   0.09892   0.73799   0.00000  Uiso   1.00
H359   H     0.19005   0.88633   0.33244   0.00000  Uiso   1.00
O360   O     0.40058   0.22762   0.63635   0.00000  Uiso   1.00
O361   O     0.96855   0.07509   0.91626   0.00000  Uiso   1.00
O362   O     0.23211   0.79617   0.38419   0.00000  Uiso   1.00
N363   N     0.36166   0.15345   0.70027   0.00000  Uiso   1.00
N364   N     0.05378   0.04476   0.89975   0.00000  Uiso   1.00
N365   N     0.24158   0.84600   0.52060   0.00000  Uiso   1.00
N366   N     0.32449   0.18988   0.57769   0.00000  Uiso   1.00
N367   N     0.01662   0.08120   0.77717   0.00000  Uiso   1.00
N368   N     0.20442   0.88244   0.39803   0.00000  Uiso   1.00
C369   C     0.51153   0.27769   0.78237   0.00000  Uiso   1.00
C370   C     0.55954   0.24837   0.81712   0.00000  Uiso   1.00
C371   C     0.57962   0.20301   0.77805   0.00000  Uiso   1.00
C372   C     0.62385   0.18221   0.82009   0.00000  Uiso   1.00
C373   C     0.69487   0.13307   0.86211   0.00000  Uiso   1.00
C374   C     0.52960   0.33322   0.76213   0.00000  Uiso   1.00
C375   C     0.52449   0.35920   0.67684   0.00000  Uiso   1.00
C376   C     0.54350   0.40983   0.67260   0.00000  Uiso   1.00
C377   C     0.56800   0.49244   0.62928   0.00000  Uiso   1.00
C378   C     0.47482   0.28145   0.86662   0.00000  Uiso   1.00
C379   C     0.42365   0.26393   0.86918   0.00000  Uiso   1.00
C380   C     0.39655   0.27098   0.95292   0.00000  Uiso   1.00
C381   C     0.33600   0.27322   0.07184   0.00000  Uiso   1.00
C382   C     0.55438   0.32140   0.92651   0.00000  Uiso   1.00
C383   C     0.58281   0.27211   0.89541   0.00000  Uiso   1.00
C384   C     0.62702   0.25137   0.93753   0.00000  Uiso   1.00
C385   C     0.64716   0.20599   0.89853   0.00000  Uiso   1.00
C386   C     0.55287   0.35696   0.84042   0.00000  Uiso   1.00
C387   C     0.57189   0.40756   0.83632   0.00000  Uiso   1.00
C388   C     0.56682   0.43361   0.75104   0.00000  Uiso   1.00
C389   C     0.49809   0.30519   0.94492   0.00000  Uiso   1.00
C390   C     0.47106   0.31228   0.02867   0.00000  Uiso   1.00
C391   C     0.41986   0.29477   0.03136   0.00000  Uiso   1.00
H392   H     0.49342   0.25922   0.72141   0.00000  Uiso   1.00
H393   H     0.56160   0.18465   0.71745   0.00000  Uiso   1.00
H394   H     0.50647   0.34082   0.61626   0.00000  Uiso   1.00
H395   H     0.40566   0.24556   0.80858   0.00000  Uiso   1.00
H396   H     0.64747   0.11247   0.74757   0.00000  Uiso   1.00
H397   H     0.53122   0.44177   0.53422   0.00000  Uiso   1.00
H398   H     0.31862   0.24088   0.93976   0.00000  Uiso   1.00
H399   H     0.57250   0.33988   0.98747   0.00000  Uiso   1.00
H400   H     0.64502   0.26975   0.99812   0.00000  Uiso   1.00
H401   H     0.58989   0.42592   0.89692   0.00000  Uiso   1.00
H402   H     0.48908   0.33065   0.08924   0.00000  Uiso   1.00
H403   H     0.71518   0.18153   0.97537   0.00000  Uiso   1.00
H404   H     0.59892   0.51084   0.76201   0.00000  Uiso   1.00
H405   H     0.38633   0.30995   0.16756   0.00000  Uiso   1.00
O406   O     0.72762   0.09942   0.86365   0.00000  Uiso   1.00
O407   O     0.57509   0.53145   0.58374   0.00000  Uiso   1.00
O408   O     0.29617   0.26789   0.11581   0.00000  Uiso   1.00
N409   N     0.65345   0.13834   0.79973   0.00000  Uiso   1.00
N410   N     0.54476   0.44622   0.60025   0.00000  Uiso   1.00
N411   N     0.34600   0.25842   0.97940   0.00000  Uiso   1.00
N412   N     0.68988   0.17551   0.92231   0.00000  Uiso   1.00
N413   N     0.58120   0.48338   0.72283   0.00000  Uiso   1.00
N414   N     0.38244   0.29558   0.10197   0.00000  Uiso   1.00
C415   C     0.01153   0.77769   0.28237   0.00000  Uiso   1.00
C416   C     0.05954   0.74837   0.31712   0.00000  Uiso   1.00
C417   C     0.07962   0.70301   0.27805   0.00000  Uiso   1.00
C418   C     0.12385   0.68221   0.32009   0.00000  Uiso   1.00
C419   C     0.19487   0.63307   0.36211   0.00000  Uiso   1.00
C420   C     0.02960   0.83322   0.26213   0.00000  Uiso   1.00
C421   C     0.02449   0.85920   0.17684   0.00000  Uiso   1.00
C422   C     0.04350   0.90983   0.17260   0.00000  Uiso   1.00
C423   C     0.06800   0.99244   0.12928   0.00000  Uiso   1.00
C424   C     0.97482   0.78145   0.36662   0.00000  Uiso   1.00
C425   C     0.92365   0.76393   0.36918   0.00000  Uiso   1.00
C426   C     0.89655   0.77098   0.45292   0.00000  Uiso   1.00
C427   C     0.83600   0.77322   0.57184   0.00000  Uiso   1.00
C428   C     0.05438   0.82140   0.42651   0.00000  Uiso   1.00
C429   C     0.08281   0.77211   0.39541   0.00000  Uiso   1.00
C430   C     0.12702   0.75137   0.43753   0.00000  Uiso   1.00
C431   C     0.14716   0.70599   0.39853   0.00000  Uiso   1.00
C432   C     0.05287   0.85696   0.34042   0.00000  Uiso   1.00
C433   C     0.07189   0.90756   0.33632   0.00000  Uiso   1.00
C434   C     0.06682   0.93361   0.25104   0.00000  Uiso   1.00
C435   C     0.99809   0.80519   0.44492   0.00000  Uiso   1.00
C436   C     0.97106   0.81228   0.52867   0.00000  Uiso   1.00
C437   C     0.91986   0.79477   0.53136   0.00000  Uiso   1.00
H438   H     0.99342   0.75922   0.22141   0.00000  Uiso   1.00
H439   H     0.06160   0.68465   0.21745   0.00000  Uiso   1.00
H440   H     0.00647   0.84082   0.11626   0.00000  Uiso   1.00
H441   H     0.90566   0.74556   0.30858   0.00000  Uiso   1.00
H442   H     0.14747   0.61247   0.24757   0.00000  Uiso   1.00
H443   H     0.03122   0.94177   0.03422   0.00000  Uiso   1.00
H444   H     0.81862   0.74088   0.43976   0.00000  Uiso   1.00
H445   H     0.07250   0.83988   0.48747   0.00000  Uiso   1.00
H446   H     0.14502   0.76975   0.49812   0.00000  Uiso   1.00
H447   H     0.08989   0.92592   0.39692   0.00000  Uiso   1.00
H448   H     0.98908   0.83065   0.58924   0.00000  Uiso   1.00
H449   H     0.21518   0.68153   0.47537   0.00000  Uiso   1.00
H450   H     0.09892   0.01084   0.26201   0.00000  Uiso   1.00
H451   H     0.88633   0.80995   0.66756   0.00000  Uiso   1.00
O452   O     0.22762   0.59942   0.36365   0.00000  Uiso   1.00
O453   O     0.07509   0.03145   0.08374   0.00000  Uiso   1.00
O454   O     0.79617   0.76789   0.61581   0.00000  Uiso   1.00
N455   N     0.15345   0.63834   0.29973   0.00000  Uiso   1.00
N456   N     0.04476   0.94622   0.10025   0.00000  Uiso   1.00
N457   N     0.84600   0.75842   0.47940   0.00000  Uiso   1.00
N458   N     0.18988   0.67551   0.42231   0.00000  Uiso   1.00
N459   N     0.08120   0.98338   0.22283   0.00000  Uiso   1.00
N460   N     0.88244   0.79558   0.60197   0.00000  Uiso   1.00
C461   C     0.98847   0.22231   0.28237   0.00000  Uiso   1.00
C462   C     0.94046   0.25163   0.31712   0.00000  Uiso   1.00
C463   C     0.92038   0.29699   0.27805   0.00000  Uiso   1.00
C464   C     0.87615   0.31779   0.32009   0.00000  Uiso   1.00
C465   C     0.80513   0.36693   0.36211   0.00000  Uiso   1.00
C466   C     0.97040   0.16678   0.26213   0.00000  Uiso   1.00
C467   C     0.97551   0.14080   0.17684   0.00000  Uiso   1.00
C468   C     0.95650   0.09017   0.17260   0.00000  Uiso   1.00
C469   C     0.93200   0.00756   0.12928   0.00000  Uiso   1.00
C470   C     0.02518   0.21855   0.36662   0.00000  Uiso   1.00
C471   C     0.07635   0.23607   0.36918   0.00000  Uiso   1.00
C472   C     0.10345   0.22902   0.45292   0.00000  Uiso   1.00
C473   C     0.16400   0.22678   0.57184   0.00000  Uiso   1.00
C474   C     0.94562   0.17860   0.42651   0.00000  Uiso   1.00
C475   C     0.91719   0.22789   0.39541   0.00000  Uiso   1.00
C476   C     0.87298   0.24863   0.43753   0.00000  Uiso   1.00
C477   C     0.85284   0.29401   0.39853   0.00000  Uiso   1.00
C478   C     0.94713   0.14304   0.34042   0.00000  Uiso   1.00
C479   C     0.92811   0.09244   0.33632   0.00000  Uiso   1.00
C480   C     0.93318   0.06639   0.25104   0.00000  Uiso   1.00
C481   C     0.00191   0.19481   0.44492   0.00000  Uiso   1.00
C482   C     0.02894   0.18772   0.52867   0.00000  Uiso   1.00
C483   C     0.08014   0.20523   0.53136   0.00000  Uiso   1.00
H484   H     0.00658   0.24078   0.22141   0.00000  Uiso   1.00
H485   H     0.93840   0.31535   0.21745   0.00000  Uiso   1.00
H486   H     0.99353   0.15918   0.11626   0.00000  Uiso   1.00
H487   H     0.09434   0.25444   0.30858   0.00000  Uiso   1.00
H488   H     0.85253   0.38753   0.24757   0.00000  Uiso   1.00
H489   H     0.96878   0.05823   0.03422   0.00000  Uiso   1.00
H490   H     0.18138   0.25912   0.43976   0.00000  Uiso   1.00
H491   H     0.92750   0.16012   0.48747   0.00000  Uiso   1.00
H492   H     0.85498   0.23025   0.49812   0.00000  Uiso   1.00
H493   H     0.91011   0.07408   0.39692   0.00000  Uiso   1.00
H494   H     0.01092   0.16935   0.58924   0.00000  Uiso   1.00
H495   H     0.78482   0.31847   0.47537   0.00000  Uiso   1.00
H496   H     0.90108   0.98916   0.26201   0.00000  Uiso   1.00
H497   H     0.11367   0.19005   0.66756   0.00000  Uiso   1.00
O498   O     0.77238   0.40058   0.36365   0.00000  Uiso   1.00
O499   O     0.92491   0.96855   0.08374   0.00000  Uiso   1.00
O500   O     0.20383   0.23211   0.61581   0.00000  Uiso   1.00
N501   N     0.84655   0.36166   0.29973   0.00000  Uiso   1.00
N502   N     0.95524   0.05378   0.10025   0.00000  Uiso   1.00
N503   N     0.15400   0.24158   0.47940   0.00000  Uiso   1.00
N504   N     0.81012   0.32449   0.42231   0.00000  Uiso   1.00
N505   N     0.91880   0.01662   0.22283   0.00000  Uiso   1.00
N506   N     0.11756   0.20442   0.60197   0.00000  Uiso   1.00
C507   C     0.48847   0.72231   0.78237   0.00000  Uiso   1.00
C508   C     0.44046   0.75163   0.81712   0.00000  Uiso   1.00
C509   C     0.42038   0.79699   0.77805   0.00000  Uiso   1.00
C510   C     0.37615   0.81779   0.82009   0.00000  Uiso   1.00
C511   C     0.30513   0.86693   0.86211   0.00000  Uiso   1.00
C512   C     0.47040   0.66678   0.76213   0.00000  Uiso   1.00
C513   C     0.47551   0.64080   0.67684   0.00000  Uiso   1.00
C514   C     0.45650   0.59017   0.67260   0.00000  Uiso   1.00
C515   C     0.43200   0.50756   0.62928   0.00000  Uiso   1.00
C516   C     0.52518   0.71855   0.86662   0.00000  Uiso   1.00
C517   C     0.57635   0.73607   0.86918   0.00000  Uiso   1.00
C518   C     0.60345   0.72902   0.95292   0.00000  Uiso   1.00
C519   C     0.66400   0.72678   0.07184   0.00000  Uiso   1.00
C520   C     0.44562   0.67860   0.92651   0.00000  Uiso   1.00
C521   C     0.41719   0.72789   0.89541   0.00000  Uiso   1.00
C522   C     0.37298   0.74863   0.93753   0.00000  Uiso   1.00
C523   C     0.35284   0.79401   0.89853   0.00000  Uiso   1.00
C524   C     0.44713   0.64304   0.84042   0.00000  Uiso   1.00
C525   C     0.42811   0.59244   0.83632   0.00000  Uiso   1.00
C526   C     0.43318   0.56639   0.75104   0.00000  Uiso   1.00
C527   C     0.50191   0.69481   0.94492   0.00000  Uiso   1.00
C528   C     0.52894   0.68772   0.02867   0.00000  Uiso   1.00
C529   C     0.58014   0.70523   0.03136   0.00000  Uiso   1.00
H530   H     0.50658   0.74078   0.72141   0.00000  Uiso   1.00
H531   H     0.43840   0.81535   0.71745   0.00000  Uiso   1.00
H532   H     0.49353   0.65918   0.61626   0.00000  Uiso   1.00
H533   H     0.59434   0.75444   0.80858   0.00000  Uiso   1.00
H534   H     0.35253   0.88753   0.74757   0.00000  Uiso   1.00
H535   H     0.46878   0.55823   0.53422   0.00000  Uiso   1.00
H536   H     0.68138   0.75912   0.93976   0.00000  Uiso   1.00
H537   H     0.42750   0.66012   0.98747   0.00000  Uiso   1.00
H538   H     0.35498   0.73025   0.99812   0.00000  Uiso   1.00
H539   H     0.41011   0.57408   0.89692   0.00000  Uiso   1.00
H540   H     0.51092   0.66935   0.08924   0.00000  Uiso   1.00
H541   H     0.28482   0.81847   0.97537   0.00000  Uiso   1.00
H542   H     0.40108   0.48916   0.76201   0.00000  Uiso   1.00
H543   H     0.61367   0.69005   0.16756   0.00000  Uiso   1.00
O544   O     0.27238   0.90058   0.86365   0.00000  Uiso   1.00
O545   O     0.42491   0.46855   0.58374   0.00000  Uiso   1.00
O546   O     0.70383   0.73211   0.11581   0.00000  Uiso   1.00
N547   N     0.34655   0.86166   0.79973   0.00000  Uiso   1.00
N548   N     0.45524   0.55378   0.60025   0.00000  Uiso   1.00
N549   N     0.65400   0.74158   0.97940   0.00000  Uiso   1.00
N550   N     0.31012   0.82449   0.92231   0.00000  Uiso   1.00
N551   N     0.41880   0.51662   0.72283   0.00000  Uiso   1.00
N552   N     0.61756   0.70442   0.10197   0.00000  Uiso   1.00
C553   C     0.22231   0.51153   0.53237   0.00000  Uiso   1.00
C554   C     0.25163   0.55954   0.56712   0.00000  Uiso   1.00
C555   C     0.29699   0.57962   0.52805   0.00000  Uiso   1.00
C556   C     0.31779   0.62385   0.57009   0.00000  Uiso   1.00
C557   C     0.36693   0.69487   0.61211   0.00000  Uiso   1.00
C558   C     0.16678   0.52960   0.51213   0.00000  Uiso   1.00
C559   C     0.14080   0.52449   0.42684   0.00000  Uiso   1.00
C560   C     0.09017   0.54350   0.42260   0.00000  Uiso   1.00
C561   C     0.00756   0.56800   0.37928   0.00000  Uiso   1.00
C562   C     0.21855   0.47482   0.61662   0.00000  Uiso   1.00
C563   C     0.23607   0.42365   0.61918   0.00000  Uiso   1.00
C564   C     0.22902   0.39655   0.70292   0.00000  Uiso   1.00
C565   C     0.22678   0.33600   0.82184   0.00000  Uiso   1.00
C566   C     0.17860   0.55438   0.67651   0.00000  Uiso   1.00
C567   C     0.22789   0.58281   0.64541   0.00000  Uiso   1.00
C568   C     0.24863   0.62702   0.68753   0.00000  Uiso   1.00
C569   C     0.29401   0.64716   0.64853   0.00000  Uiso   1.00
C570   C     0.14304   0.55287   0.59042   0.00000  Uiso   1.00
C571   C     0.09244   0.57189   0.58632   0.00000  Uiso   1.00
C572   C     0.06639   0.56682   0.50104   0.00000  Uiso   1.00
C573   C     0.19481   0.49809   0.69492   0.00000  Uiso   1.00
C574   C     0.18772   0.47106   0.77867   0.00000  Uiso   1.00
C575   C     0.20523   0.41986   0.78136   0.00000  Uiso   1.00
H576   H     0.24078   0.49342   0.47141   0.00000  Uiso   1.00
H577   H     0.31535   0.56160   0.46745   0.00000  Uiso   1.00
H578   H     0.15918   0.50647   0.36626   0.00000  Uiso   1.00
H579   H     0.25444   0.40566   0.55858   0.00000  Uiso   1.00
H580   H     0.38753   0.64747   0.49757   0.00000  Uiso   1.00
H581   H     0.05823   0.53122   0.28422   0.00000  Uiso   1.00
H582   H     0.25912   0.31862   0.68976   0.00000  Uiso   1.00
H583   H     0.16012   0.57250   0.73747   0.00000  Uiso   1.00
H584   H     0.23025   0.64502   0.74812   0.00000  Uiso   1.00
H585   H     0.07408   0.58989   0.64692   0.00000  Uiso   1.00
H586   H     0.16935   0.48908   0.83924   0.00000  Uiso   1.00
H587   H     0.31847   0.71518   0.72537   0.00000  Uiso   1.00
H588   H     0.98916   0.59892   0.51201   0.00000  Uiso   1.00
H589   H     0.19005   0.38633   0.91756   0.00000  Uiso   1.00
O590   O     0.40058   0.72762   0.61365   0.00000  Uiso   1.00
O591   O     0.96855   0.57509   0.33374   0.00000  Uiso   1.00
O592   O     0.23211   0.29617   0.86581   0.00000  Uiso   1.00
N593   N     0.36166   0.65345   0.54973   0.00000  Uiso   1.00
N594   N     0.05378   0.54476   0.35025   0.00000  Uiso   1.00
N595   N     0.24158   0.34600   0.72940   0.00000  Uiso   1.00
N596   N     0.32449   0.68988   0.67231   0.00000  Uiso   1.00
N597   N     0.01662   0.58120   0.47283   0.00000  Uiso   1.00
N598   N     0.20442   0.38244   0.85197   0.00000  Uiso   1.00
C599   C     0.72231   0.01153   0.03237   0.00000  Uiso   1.00
C600   C     0.75163   0.05954   0.06712   0.00000  Uiso   1.00
C601   C     0.79699   0.07962   0.02805   0.00000  Uiso   1.00
C602   C     0.81779   0.12385   0.07009   0.00000  Uiso   1.00
C603   C     0.86693   0.19487   0.11211   0.00000  Uiso   1.00
C604   C     0.66678   0.02960   0.01213   0.00000  Uiso   1.00
C605   C     0.64080   0.02449   0.92684   0.00000  Uiso   1.00
C606   C     0.59017   0.04350   0.92260   0.00000  Uiso   1.00
C607   C     0.50756   0.06800   0.87928   0.00000  Uiso   1.00
C608   C     0.71855   0.97482   0.11662   0.00000  Uiso   1.00
C609   C     0.73607   0.92365   0.11918   0.00000  Uiso   1.00
C610   C     0.72902   0.89655   0.20292   0.00000  Uiso   1.00
C611   C     0.72678   0.83600   0.32184   0.00000  Uiso   1.00
C612   C     0.67860   0.05438   0.17651   0.00000  Uiso   1.00
C613   C     0.72789   0.08281   0.14541   0.00000  Uiso   1.00
C614   C     0.74863   0.12702   0.18753   0.00000  Uiso   1.00
C615   C     0.79401   0.14716   0.14853   0.00000  Uiso   1.00
C616   C     0.64304   0.05287   0.09042   0.00000  Uiso   1.00
C617   C     0.59244   0.07189   0.08632   0.00000  Uiso   1.00
C618   C     0.56639   0.06682   0.00104   0.00000  Uiso   1.00
C619   C     0.69481   0.99809   0.19492   0.00000  Uiso   1.00
C620   C     0.68772   0.97106   0.27867   0.00000  Uiso   1.00
C621   C     0.70523   0.91986   0.28136   0.00000  Uiso   1.00
H622   H     0.74078   0.99342   0.97141   0.00000  Uiso   1.00
H623   H     0.81535   0.06160   0.96745   0.00000  Uiso   1.00
H624   H     0.65918   0.00647   0.86626   0.00000  Uiso   1.00
H625   H     0.75444   0.90566   0.05858   0.00000  Uiso   1.00
H626   H     0.88753   0.14747   0.99757   0.00000  Uiso   1.00
H627   H     0.55823   0.03122   0.78422   0.00000  Uiso   1.00
H628   H     0.75912   0.81862   0.18976   0.00000  Uiso   1.00
H629   H     0.66012   0.07250   0.23747   0.00000  Uiso   1.00
H630   H     0.73025   0.14502   0.24812   0.00000  Uiso   1.00
H631   H     0.57408   0.08989   0.14692   0.00000  Uiso   1.00
H632   H     0.66935   0.98908   0.33924   0.00000  Uiso   1.00
H633   H     0.81847   0.21518   0.22537   0.00000  Uiso   1.00
H634   H     0.48916   0.09892   0.01201   0.00000  Uiso   1.00
H635   H     0.69005   0.88633   0.41756   0.00000  Uiso   1.00
O636   O     0.90058   0.22762   0.11365   0.00000  Uiso   1.00
O637   O     0.46855   0.07509   0.83374   0.00000  Uiso   1.00
O638   O     0.73211   0.79617   0.36581   0.00000  Uiso   1.00
N639   N     0.86166   0.15345   0.04973   0.00000  Uiso   1.00
N640   N     0.55378   0.04476   0.85025   0.00000  Uiso   1.00
N641   N     0.74158   0.84600   0.22940   0.00000  Uiso   1.00
N642   N     0.82449   0.18988   0.17231   0.00000  Uiso   1.00
N643   N     0.51662   0.08120   0.97283   0.00000  Uiso   1.00
N644   N     0.70442   0.88244   0.35197   0.00000  Uiso   1.00
C645   C     0.27769   0.98847   0.03237   0.00000  Uiso   1.00
C646   C     0.24837   0.94046   0.06712   0.00000  Uiso   1.00
C647   C     0.20301   0.92038   0.02805   0.00000  Uiso   1.00
C648   C     0.18221   0.87615   0.07009   0.00000  Uiso   1.00
C649   C     0.13307   0.80513   0.11211   0.00000  Uiso   1.00
C650   C     0.33322   0.97040   0.01213   0.00000  Uiso   1.00
C651   C     0.35920   0.97551   0.92684   0.00000  Uiso   1.00
C652   C     0.40983   0.95650   0.92260   0.00000  Uiso   1.00
C653   C     0.49244   0.93200   0.87928   0.00000  Uiso   1.00
C654   C     0.28145   0.02518   0.11662   0.00000  Uiso   1.00
C655   C     0.26393   0.07635   0.11918   0.00000  Uiso   1.00
C656   C     0.27098   0.10345   0.20292   0.00000  Uiso   1.00
C657   C     0.27322   0.16400   0.32184   0.00000  Uiso   1.00
C658   C     0.32140   0.94562   0.17651   0.00000  Uiso   1.00
C659   C     0.27211   0.91719   0.14541   0.00000  Uiso   1.00
C660   C     0.25137   0.87298   0.18753   0.00000  Uiso   1.00
C661   C     0.20599   0.85284   0.14853   0.00000  Uiso   1.00
C662   C     0.35696   0.94713   0.09042   0.00000  Uiso   1.00
C663   C     0.40756   0.92811   0.08632   0.00000  Uiso   1.00
C664   C     0.43361   0.93318   0.00104   0.00000  Uiso   1.00
C665   C     0.30519   0.00191   0.19492   0.00000  Uiso   1.00
C666   C     0.31228   0.02894   0.27867   0.00000  Uiso   1.00
C667   C     0.29477   0.08014   0.28136   0.00000  Uiso   1.00
H668   H     0.25922   0.00658   0.97141   0.00000  Uiso   1.00
H669   H     0.18465   0.93840   0.96745   0.00000  Uiso   1.00
H670   H     0.34082   0.99353   0.86626   0.00000  Uiso   1.00
H671   H     0.24556   0.09434   0.05858   0.00000  Uiso   1.00
H672   H     0.11247   0.85253   0.99757   0.00000  Uiso   1.00
H673   H     0.44177   0.96878   0.78422   0.00000  Uiso   1.00
H674   H     0.24088   0.18138   0.18976   0.00000  Uiso   1.00
H675   H     0.33988   0.92750   0.23747   0.00000  Uiso   1.00
H676   H     0.26975   0.85498   0.24812   0.00000  Uiso   1.00
H677   H     0.42592   0.91011   0.14692   0.00000  Uiso   1.00
H678   H     0.33065   0.01092   0.33924   0.00000  Uiso   1.00
H679   H     0.18153   0.78482   0.22537   0.00000  Uiso   1.00
H680   H     0.51084   0.90108   0.01201   0.00000  Uiso   1.00
H681   H     0.30995   0.11367   0.41756   0.00000  Uiso   1.00
O682   O     0.09942   0.77238   0.11365   0.00000  Uiso   1.00
O683   O     0.53145   0.92491   0.83374   0.00000  Uiso   1.00
O684   O     0.26789   0.20383   0.36581   0.00000  Uiso   1.00
N685   N     0.13834   0.84655   0.04973   0.00000  Uiso   1.00
N686   N     0.44622   0.95524   0.85025   0.00000  Uiso   1.00
N687   N     0.25842   0.15400   0.22940   0.00000  Uiso   1.00
N688   N     0.17551   0.81012   0.17231   0.00000  Uiso   1.00
N689   N     0.48338   0.91880   0.97283   0.00000  Uiso   1.00
N690   N     0.29558   0.11756   0.35197   0.00000  Uiso   1.00
C691   C     0.77769   0.48847   0.53237   0.00000  Uiso   1.00
C692   C     0.74837   0.44046   0.56712   0.00000  Uiso   1.00
C693   C     0.70301   0.42038   0.52805   0.00000  Uiso   1.00
C694   C     0.68221   0.37615   0.57009   0.00000  Uiso   1.00
C695   C     0.63307   0.30513   0.61211   0.00000  Uiso   1.00
C696   C     0.83322   0.47040   0.51213   0.00000  Uiso   1.00
C697   C     0.85920   0.47551   0.42684   0.00000  Uiso   1.00
C698   C     0.90983   0.45650   0.42260   0.00000  Uiso   1.00
C699   C     0.99244   0.43200   0.37928   0.00000  Uiso   1.00
C700   C     0.78145   0.52518   0.61662   0.00000  Uiso   1.00
C701   C     0.76393   0.57635   0.61918   0.00000  Uiso   1.00
C702   C     0.77098   0.60345   0.70292   0.00000  Uiso   1.00
C703   C     0.77322   0.66400   0.82184   0.00000  Uiso   1.00
C704   C     0.82140   0.44562   0.67651   0.00000  Uiso   1.00
C705   C     0.77211   0.41719   0.64541   0.00000  Uiso   1.00
C706   C     0.75137   0.37298   0.68753   0.00000  Uiso   1.00
C707   C     0.70599   0.35284   0.64853   0.00000  Uiso   1.00
C708   C     0.85696   0.44713   0.59042   0.00000  Uiso   1.00
C709   C     0.90756   0.42811   0.58632   0.00000  Uiso   1.00
C710   C     0.93361   0.43318   0.50104   0.00000  Uiso   1.00
C711   C     0.80519   0.50191   0.69492   0.00000  Uiso   1.00
C712   C     0.81228   0.52894   0.77867   0.00000  Uiso   1.00
C713   C     0.79477   0.58014   0.78136   0.00000  Uiso   1.00
H714   H     0.75922   0.50658   0.47141   0.00000  Uiso   1.00
H715   H     0.68465   0.43840   0.46745   0.00000  Uiso   1.00
H716   H     0.84082   0.49353   0.36626   0.00000  Uiso   1.00
H717   H     0.74556   0.59434   0.55858   0.00000  Uiso   1.00
H718   H     0.61247   0.35253   0.49757   0.00000  Uiso   1.00
H719   H     0.94177   0.46878   0.28422   0.00000  Uiso   1.00
H720   H     0.74088   0.68138   0.68976   0.00000  Uiso   1.00
H721   H     0.83988   0.42750   0.73747   0.00000  Uiso   1.00
H722   H     0.76975   0.35498   0.74812   0.00000  Uiso   1.00
H723   H     0.92592   0.41011   0.64692   0.00000  Uiso   1.00
H724   H     0.83065   0.51092   0.83924   0.00000  Uiso   1.00
H725   H     0.68153   0.28482   0.72537   0.00000  Uiso   1.00
H726   H     0.01084   0.40108   0.51201   0.00000  Uiso   1.00
H727   H     0.80995   0.61367   0.91756   0.00000  Uiso   1.00
O728   O     0.59942   0.27238   0.61365   0.00000  Uiso   1.00
O729   O     0.03145   0.42491   0.33374   0.00000  Uiso   1.00
O730   O     0.76789   0.70383   0.86581   0.00000  Uiso   1.00
N731   N     0.63834   0.34655   0.54973   0.00000  Uiso   1.00
N732   N     0.94622   0.45524   0.35025   0.00000  Uiso   1.00
N733   N     0.75842   0.65400   0.72940   0.00000  Uiso   1.00
N734   N     0.67551   0.31012   0.67231   0.00000  Uiso   1.00
N735   N     0.98338   0.41880   0.47283   0.00000  Uiso   1.00
N736   N     0.79558   0.61756   0.85197   0.00000  Uiso   1.00
