data_job_03537
_audit_creation_date              2018-12-19
_audit_creation_method            'Materials Studio'
_symmetry_space_group_name_H-M    'P1'
_symmetry_Int_Tables_number       1
_symmetry_cell_setting            triclinic
loop_
_symmetry_equiv_pos_as_xyz
  x,y,z
_cell_length_a                    19.6958
_cell_length_b                    19.6958
_cell_length_c                    34.5289
_cell_angle_alpha                 90.0000
_cell_angle_beta                  90.0000
_cell_angle_gamma                 90.0000
loop_
_atom_site_label
_atom_site_type_symbol
_atom_site_fract_x
_atom_site_fract_y
_atom_site_fract_z
_atom_site_U_iso_or_equiv
_atom_site_adp_type
_atom_site_occupancy
C1     C     0.33643   0.71629   0.83306   0.00000  Uiso   1.00
C2     C     0.31931   0.66959   0.79921   0.00000  Uiso   1.00
C3     C     0.36171   0.65481   0.76824   0.00000  Uiso   1.00
C4     C     0.33664   0.61092   0.74021   0.00000  Uiso   1.00
C5     C     0.31994   0.54271   0.68721   0.00000  Uiso   1.00
C6     C     0.28075   0.77006   0.83400   0.00000  Uiso   1.00
C7     C     0.29074   0.83975   0.83229   0.00000  Uiso   1.00
C8     C     0.23321   0.88043   0.83356   0.00000  Uiso   1.00
C9     C     0.15666   0.96820   0.83460   0.00000  Uiso   1.00
C10    C     0.32705   0.67381   0.86959   0.00000  Uiso   1.00
C11    C     0.37596   0.66259   0.89781   0.00000  Uiso   1.00
C12    C     0.35741   0.62225   0.92904   0.00000  Uiso   1.00
C13    C     0.35276   0.56058   0.98534   0.00000  Uiso   1.00
C14    C     0.21651   0.66463   0.83836   0.00000  Uiso   1.00
C15    C     0.25417   0.64154   0.80209   0.00000  Uiso   1.00
C16    C     0.22903   0.59765   0.77410   0.00000  Uiso   1.00
C17    C     0.27139   0.58281   0.74310   0.00000  Uiso   1.00
C18    C     0.21561   0.74200   0.83688   0.00000  Uiso   1.00
C19    C     0.15806   0.78259   0.83816   0.00000  Uiso   1.00
C20    C     0.16795   0.85232   0.83644   0.00000  Uiso   1.00
C21    C     0.26192   0.64575   0.87247   0.00000  Uiso   1.00
C22    C     0.24329   0.60543   0.90367   0.00000  Uiso   1.00
C23    C     0.29216   0.59414   0.93193   0.00000  Uiso   1.00
H24    H     0.38714   0.73814   0.83082   0.00000  Uiso   1.00
H25    H     0.41211   0.67654   0.76602   0.00000  Uiso   1.00
H26    H     0.34115   0.86145   0.83006   0.00000  Uiso   1.00
H27    H     0.42636   0.68431   0.89557   0.00000  Uiso   1.00
H28    H     0.41106   0.59590   0.69544   0.00000  Uiso   1.00
H29    H     0.26143   0.98578   0.83050   0.00000  Uiso   1.00
H30    H     0.44113   0.61226   0.96863   0.00000  Uiso   1.00
H31    H     0.16580   0.64278   0.84060   0.00000  Uiso   1.00
H32    H     0.17862   0.57595   0.77634   0.00000  Uiso   1.00
H33    H     0.10766   0.76085   0.84039   0.00000  Uiso   1.00
H34    H     0.19288   0.58372   0.90589   0.00000  Uiso   1.00
H35    H     0.22155   0.51425   0.70382   0.00000  Uiso   1.00
H36    H     0.07193   0.90414   0.83888   0.00000  Uiso   1.00
H37    H     0.25162   0.53062   0.97700   0.00000  Uiso   1.00
O38    O     0.32873   0.51285   0.65717   0.00000  Uiso   1.00
O39    O     0.13243   0.02436   0.83437   0.00000  Uiso   1.00
O40    O     0.36818   0.53431   0.01559   0.00000  Uiso   1.00
N41    N     0.36470   0.58584   0.70624   0.00000  Uiso   1.00
N42    N     0.22481   0.95036   0.83250   0.00000  Uiso   1.00
N43    N     0.39281   0.60117   0.96164   0.00000  Uiso   1.00
N44    N     0.26273   0.54191   0.71074   0.00000  Uiso   1.00
N45    N     0.12284   0.90643   0.83701   0.00000  Uiso   1.00
N46    N     0.29083   0.55723   0.96615   0.00000  Uiso   1.00
C47    C     0.83643   0.21629   0.33306   0.00000  Uiso   1.00
C48    C     0.81931   0.16959   0.29921   0.00000  Uiso   1.00
C49    C     0.86171   0.15481   0.26824   0.00000  Uiso   1.00
C50    C     0.83664   0.11092   0.24021   0.00000  Uiso   1.00
C51    C     0.81994   0.04271   0.18721   0.00000  Uiso   1.00
C52    C     0.78075   0.27006   0.33400   0.00000  Uiso   1.00
C53    C     0.79074   0.33975   0.33229   0.00000  Uiso   1.00
C54    C     0.73321   0.38043   0.33356   0.00000  Uiso   1.00
C55    C     0.65666   0.46820   0.33460   0.00000  Uiso   1.00
C56    C     0.82705   0.17381   0.36959   0.00000  Uiso   1.00
C57    C     0.87596   0.16259   0.39781   0.00000  Uiso   1.00
C58    C     0.85741   0.12225   0.42904   0.00000  Uiso   1.00
C59    C     0.85276   0.06058   0.48534   0.00000  Uiso   1.00
C60    C     0.71651   0.16463   0.33836   0.00000  Uiso   1.00
C61    C     0.75417   0.14154   0.30209   0.00000  Uiso   1.00
C62    C     0.72903   0.09765   0.27410   0.00000  Uiso   1.00
C63    C     0.77139   0.08281   0.24310   0.00000  Uiso   1.00
C64    C     0.71561   0.24200   0.33688   0.00000  Uiso   1.00
C65    C     0.65806   0.28259   0.33816   0.00000  Uiso   1.00
C66    C     0.66795   0.35232   0.33644   0.00000  Uiso   1.00
C67    C     0.76192   0.14575   0.37247   0.00000  Uiso   1.00
C68    C     0.74329   0.10543   0.40367   0.00000  Uiso   1.00
C69    C     0.79216   0.09414   0.43193   0.00000  Uiso   1.00
H70    H     0.88714   0.23814   0.33082   0.00000  Uiso   1.00
H71    H     0.91211   0.17654   0.26602   0.00000  Uiso   1.00
H72    H     0.84115   0.36145   0.33006   0.00000  Uiso   1.00
H73    H     0.92636   0.18431   0.39557   0.00000  Uiso   1.00
H74    H     0.91106   0.09590   0.19544   0.00000  Uiso   1.00
H75    H     0.76143   0.48578   0.33050   0.00000  Uiso   1.00
H76    H     0.94113   0.11226   0.46863   0.00000  Uiso   1.00
H77    H     0.66580   0.14278   0.34060   0.00000  Uiso   1.00
H78    H     0.67862   0.07595   0.27634   0.00000  Uiso   1.00
H79    H     0.60766   0.26085   0.34039   0.00000  Uiso   1.00
H80    H     0.69288   0.08372   0.40589   0.00000  Uiso   1.00
H81    H     0.72155   0.01425   0.20382   0.00000  Uiso   1.00
H82    H     0.57193   0.40414   0.33888   0.00000  Uiso   1.00
H83    H     0.75162   0.03062   0.47700   0.00000  Uiso   1.00
O84    O     0.82873   0.01285   0.15717   0.00000  Uiso   1.00
O85    O     0.63243   0.52436   0.33437   0.00000  Uiso   1.00
O86    O     0.86818   0.03431   0.51559   0.00000  Uiso   1.00
N87    N     0.86470   0.08584   0.20624   0.00000  Uiso   1.00
N88    N     0.72481   0.45036   0.33250   0.00000  Uiso   1.00
N89    N     0.89281   0.10117   0.46164   0.00000  Uiso   1.00
N90    N     0.76273   0.04191   0.21074   0.00000  Uiso   1.00
N91    N     0.62284   0.40643   0.33701   0.00000  Uiso   1.00
N92    N     0.79083   0.05723   0.46615   0.00000  Uiso   1.00
C93    C     0.16357   0.78371   0.33306   0.00000  Uiso   1.00
C94    C     0.18069   0.83041   0.29921   0.00000  Uiso   1.00
C95    C     0.13829   0.84519   0.26824   0.00000  Uiso   1.00
C96    C     0.16336   0.88908   0.24021   0.00000  Uiso   1.00
C97    C     0.18006   0.95729   0.18721   0.00000  Uiso   1.00
C98    C     0.21925   0.72994   0.33400   0.00000  Uiso   1.00
C99    C     0.20926   0.66025   0.33229   0.00000  Uiso   1.00
C100   C     0.26679   0.61957   0.33356   0.00000  Uiso   1.00
C101   C     0.34334   0.53180   0.33460   0.00000  Uiso   1.00
C102   C     0.17295   0.82619   0.36959   0.00000  Uiso   1.00
C103   C     0.12404   0.83741   0.39781   0.00000  Uiso   1.00
C104   C     0.14259   0.87775   0.42904   0.00000  Uiso   1.00
C105   C     0.14724   0.93942   0.48534   0.00000  Uiso   1.00
C106   C     0.28349   0.83537   0.33836   0.00000  Uiso   1.00
C107   C     0.24583   0.85846   0.30209   0.00000  Uiso   1.00
C108   C     0.27097   0.90235   0.27410   0.00000  Uiso   1.00
C109   C     0.22861   0.91719   0.24310   0.00000  Uiso   1.00
C110   C     0.28439   0.75800   0.33688   0.00000  Uiso   1.00
C111   C     0.34194   0.71741   0.33816   0.00000  Uiso   1.00
C112   C     0.33205   0.64768   0.33644   0.00000  Uiso   1.00
C113   C     0.23808   0.85425   0.37247   0.00000  Uiso   1.00
C114   C     0.25671   0.89457   0.40367   0.00000  Uiso   1.00
C115   C     0.20784   0.90586   0.43193   0.00000  Uiso   1.00
H116   H     0.11286   0.76186   0.33082   0.00000  Uiso   1.00
H117   H     0.08789   0.82346   0.26602   0.00000  Uiso   1.00
H118   H     0.15885   0.63855   0.33006   0.00000  Uiso   1.00
H119   H     0.07364   0.81569   0.39557   0.00000  Uiso   1.00
H120   H     0.08894   0.90410   0.19544   0.00000  Uiso   1.00
H121   H     0.23857   0.51422   0.33050   0.00000  Uiso   1.00
H122   H     0.05887   0.88774   0.46863   0.00000  Uiso   1.00
H123   H     0.33420   0.85722   0.34060   0.00000  Uiso   1.00
H124   H     0.32138   0.92405   0.27634   0.00000  Uiso   1.00
H125   H     0.39234   0.73915   0.34039   0.00000  Uiso   1.00
H126   H     0.30712   0.91628   0.40589   0.00000  Uiso   1.00
H127   H     0.27845   0.98575   0.20382   0.00000  Uiso   1.00
H128   H     0.42807   0.59586   0.33888   0.00000  Uiso   1.00
H129   H     0.24838   0.96938   0.47700   0.00000  Uiso   1.00
O130   O     0.17127   0.98715   0.15717   0.00000  Uiso   1.00
O131   O     0.36757   0.47564   0.33437   0.00000  Uiso   1.00
O132   O     0.13182   0.96569   0.51559   0.00000  Uiso   1.00
N133   N     0.13530   0.91416   0.20624   0.00000  Uiso   1.00
N134   N     0.27519   0.54964   0.33250   0.00000  Uiso   1.00
N135   N     0.10719   0.89883   0.46164   0.00000  Uiso   1.00
N136   N     0.23727   0.95809   0.21074   0.00000  Uiso   1.00
N137   N     0.37716   0.59357   0.33701   0.00000  Uiso   1.00
N138   N     0.20917   0.94277   0.46615   0.00000  Uiso   1.00
C139   C     0.66357   0.28371   0.83306   0.00000  Uiso   1.00
C140   C     0.68069   0.33041   0.79921   0.00000  Uiso   1.00
C141   C     0.63829   0.34519   0.76824   0.00000  Uiso   1.00
C142   C     0.66336   0.38908   0.74021   0.00000  Uiso   1.00
C143   C     0.68006   0.45729   0.68721   0.00000  Uiso   1.00
C144   C     0.71925   0.22994   0.83400   0.00000  Uiso   1.00
C145   C     0.70926   0.16025   0.83229   0.00000  Uiso   1.00
C146   C     0.76679   0.11957   0.83356   0.00000  Uiso   1.00
C147   C     0.84334   0.03180   0.83460   0.00000  Uiso   1.00
C148   C     0.67295   0.32619   0.86959   0.00000  Uiso   1.00
C149   C     0.62404   0.33741   0.89781   0.00000  Uiso   1.00
C150   C     0.64259   0.37775   0.92904   0.00000  Uiso   1.00
C151   C     0.64724   0.43942   0.98534   0.00000  Uiso   1.00
C152   C     0.78349   0.33537   0.83836   0.00000  Uiso   1.00
C153   C     0.74583   0.35846   0.80209   0.00000  Uiso   1.00
C154   C     0.77097   0.40235   0.77410   0.00000  Uiso   1.00
C155   C     0.72861   0.41719   0.74310   0.00000  Uiso   1.00
C156   C     0.78439   0.25800   0.83688   0.00000  Uiso   1.00
C157   C     0.84194   0.21741   0.83816   0.00000  Uiso   1.00
C158   C     0.83205   0.14768   0.83644   0.00000  Uiso   1.00
C159   C     0.73808   0.35425   0.87247   0.00000  Uiso   1.00
C160   C     0.75671   0.39457   0.90367   0.00000  Uiso   1.00
C161   C     0.70784   0.40586   0.93193   0.00000  Uiso   1.00
H162   H     0.61286   0.26186   0.83082   0.00000  Uiso   1.00
H163   H     0.58789   0.32346   0.76602   0.00000  Uiso   1.00
H164   H     0.65885   0.13855   0.83006   0.00000  Uiso   1.00
H165   H     0.57364   0.31569   0.89557   0.00000  Uiso   1.00
H166   H     0.58894   0.40410   0.69544   0.00000  Uiso   1.00
H167   H     0.73857   0.01422   0.83050   0.00000  Uiso   1.00
H168   H     0.55887   0.38774   0.96863   0.00000  Uiso   1.00
H169   H     0.83420   0.35722   0.84060   0.00000  Uiso   1.00
H170   H     0.82138   0.42405   0.77634   0.00000  Uiso   1.00
H171   H     0.89234   0.23915   0.84039   0.00000  Uiso   1.00
H172   H     0.80712   0.41628   0.90589   0.00000  Uiso   1.00
H173   H     0.77845   0.48575   0.70382   0.00000  Uiso   1.00
H174   H     0.92807   0.09586   0.83888   0.00000  Uiso   1.00
H175   H     0.74838   0.46938   0.97700   0.00000  Uiso   1.00
O176   O     0.67127   0.48715   0.65717   0.00000  Uiso   1.00
O177   O     0.86757   0.97564   0.83437   0.00000  Uiso   1.00
O178   O     0.63182   0.46569   0.01559   0.00000  Uiso   1.00
N179   N     0.63530   0.41416   0.70624   0.00000  Uiso   1.00
N180   N     0.77519   0.04964   0.83250   0.00000  Uiso   1.00
N181   N     0.60719   0.39883   0.96164   0.00000  Uiso   1.00
N182   N     0.73727   0.45809   0.71074   0.00000  Uiso   1.00
N183   N     0.87716   0.09357   0.83701   0.00000  Uiso   1.00
N184   N     0.70917   0.44277   0.96615   0.00000  Uiso   1.00
C185   C     0.28371   0.83643   0.08306   0.00000  Uiso   1.00
C186   C     0.33041   0.81931   0.04921   0.00000  Uiso   1.00
C187   C     0.34519   0.86171   0.01824   0.00000  Uiso   1.00
C188   C     0.38908   0.83664   0.99021   0.00000  Uiso   1.00
C189   C     0.45729   0.81994   0.93721   0.00000  Uiso   1.00
C190   C     0.22994   0.78075   0.08400   0.00000  Uiso   1.00
C191   C     0.16025   0.79074   0.08229   0.00000  Uiso   1.00
C192   C     0.11957   0.73321   0.08356   0.00000  Uiso   1.00
C193   C     0.03180   0.65666   0.08460   0.00000  Uiso   1.00
C194   C     0.32619   0.82705   0.11959   0.00000  Uiso   1.00
C195   C     0.33741   0.87596   0.14781   0.00000  Uiso   1.00
C196   C     0.37775   0.85741   0.17904   0.00000  Uiso   1.00
C197   C     0.43942   0.85276   0.23534   0.00000  Uiso   1.00
C198   C     0.33537   0.71651   0.08836   0.00000  Uiso   1.00
C199   C     0.35846   0.75417   0.05209   0.00000  Uiso   1.00
C200   C     0.40235   0.72903   0.02410   0.00000  Uiso   1.00
C201   C     0.41719   0.77139   0.99310   0.00000  Uiso   1.00
C202   C     0.25800   0.71561   0.08688   0.00000  Uiso   1.00
C203   C     0.21741   0.65806   0.08816   0.00000  Uiso   1.00
C204   C     0.14768   0.66795   0.08644   0.00000  Uiso   1.00
C205   C     0.35425   0.76192   0.12247   0.00000  Uiso   1.00
C206   C     0.39457   0.74329   0.15367   0.00000  Uiso   1.00
C207   C     0.40586   0.79216   0.18193   0.00000  Uiso   1.00
H208   H     0.26186   0.88714   0.08082   0.00000  Uiso   1.00
H209   H     0.32346   0.91211   0.01602   0.00000  Uiso   1.00
H210   H     0.13855   0.84115   0.08006   0.00000  Uiso   1.00
H211   H     0.31569   0.92636   0.14557   0.00000  Uiso   1.00
H212   H     0.40410   0.91106   0.94544   0.00000  Uiso   1.00
H213   H     0.01422   0.76143   0.08050   0.00000  Uiso   1.00
H214   H     0.38774   0.94113   0.21863   0.00000  Uiso   1.00
H215   H     0.35722   0.66580   0.09060   0.00000  Uiso   1.00
H216   H     0.42405   0.67862   0.02634   0.00000  Uiso   1.00
H217   H     0.23915   0.60766   0.09039   0.00000  Uiso   1.00
H218   H     0.41628   0.69288   0.15589   0.00000  Uiso   1.00
H219   H     0.48575   0.72155   0.95382   0.00000  Uiso   1.00
H220   H     0.09586   0.57193   0.08888   0.00000  Uiso   1.00
H221   H     0.46938   0.75162   0.22700   0.00000  Uiso   1.00
O222   O     0.48715   0.82873   0.90717   0.00000  Uiso   1.00
O223   O     0.97564   0.63243   0.08437   0.00000  Uiso   1.00
O224   O     0.46569   0.86818   0.26559   0.00000  Uiso   1.00
N225   N     0.41416   0.86470   0.95624   0.00000  Uiso   1.00
N226   N     0.04964   0.72481   0.08250   0.00000  Uiso   1.00
N227   N     0.39883   0.89281   0.21164   0.00000  Uiso   1.00
N228   N     0.45809   0.76273   0.96074   0.00000  Uiso   1.00
N229   N     0.09357   0.62284   0.08701   0.00000  Uiso   1.00
N230   N     0.44277   0.79083   0.21615   0.00000  Uiso   1.00
C231   C     0.78371   0.33643   0.58306   0.00000  Uiso   1.00
C232   C     0.83041   0.31931   0.54921   0.00000  Uiso   1.00
C233   C     0.84519   0.36171   0.51824   0.00000  Uiso   1.00
C234   C     0.88908   0.33664   0.49021   0.00000  Uiso   1.00
C235   C     0.95729   0.31994   0.43721   0.00000  Uiso   1.00
C236   C     0.72994   0.28075   0.58400   0.00000  Uiso   1.00
C237   C     0.66025   0.29074   0.58229   0.00000  Uiso   1.00
C238   C     0.61957   0.23321   0.58356   0.00000  Uiso   1.00
C239   C     0.53180   0.15666   0.58460   0.00000  Uiso   1.00
C240   C     0.82619   0.32705   0.61959   0.00000  Uiso   1.00
C241   C     0.83741   0.37596   0.64781   0.00000  Uiso   1.00
C242   C     0.87775   0.35741   0.67904   0.00000  Uiso   1.00
C243   C     0.93942   0.35276   0.73534   0.00000  Uiso   1.00
C244   C     0.83537   0.21651   0.58836   0.00000  Uiso   1.00
C245   C     0.85846   0.25417   0.55209   0.00000  Uiso   1.00
C246   C     0.90235   0.22903   0.52410   0.00000  Uiso   1.00
C247   C     0.91719   0.27139   0.49310   0.00000  Uiso   1.00
C248   C     0.75800   0.21561   0.58688   0.00000  Uiso   1.00
C249   C     0.71741   0.15806   0.58816   0.00000  Uiso   1.00
C250   C     0.64768   0.16795   0.58644   0.00000  Uiso   1.00
C251   C     0.85425   0.26192   0.62247   0.00000  Uiso   1.00
C252   C     0.89457   0.24329   0.65367   0.00000  Uiso   1.00
C253   C     0.90586   0.29216   0.68193   0.00000  Uiso   1.00
H254   H     0.76186   0.38714   0.58082   0.00000  Uiso   1.00
H255   H     0.82346   0.41211   0.51602   0.00000  Uiso   1.00
H256   H     0.63855   0.34115   0.58006   0.00000  Uiso   1.00
H257   H     0.81569   0.42636   0.64557   0.00000  Uiso   1.00
H258   H     0.90410   0.41106   0.44544   0.00000  Uiso   1.00
H259   H     0.51422   0.26143   0.58050   0.00000  Uiso   1.00
H260   H     0.88774   0.44113   0.71863   0.00000  Uiso   1.00
H261   H     0.85722   0.16580   0.59060   0.00000  Uiso   1.00
H262   H     0.92405   0.17862   0.52634   0.00000  Uiso   1.00
H263   H     0.73915   0.10766   0.59039   0.00000  Uiso   1.00
H264   H     0.91628   0.19288   0.65589   0.00000  Uiso   1.00
H265   H     0.98575   0.22155   0.45382   0.00000  Uiso   1.00
H266   H     0.59586   0.07193   0.58888   0.00000  Uiso   1.00
H267   H     0.96938   0.25162   0.72700   0.00000  Uiso   1.00
O268   O     0.98715   0.32873   0.40717   0.00000  Uiso   1.00
O269   O     0.47564   0.13243   0.58437   0.00000  Uiso   1.00
O270   O     0.96569   0.36818   0.76559   0.00000  Uiso   1.00
N271   N     0.91416   0.36470   0.45624   0.00000  Uiso   1.00
N272   N     0.54964   0.22481   0.58250   0.00000  Uiso   1.00
N273   N     0.89883   0.39281   0.71164   0.00000  Uiso   1.00
N274   N     0.95809   0.26273   0.46074   0.00000  Uiso   1.00
N275   N     0.59357   0.12284   0.58701   0.00000  Uiso   1.00
N276   N     0.94277   0.29083   0.71615   0.00000  Uiso   1.00
C277   C     0.21629   0.66357   0.58306   0.00000  Uiso   1.00
C278   C     0.16959   0.68069   0.54921   0.00000  Uiso   1.00
C279   C     0.15481   0.63829   0.51824   0.00000  Uiso   1.00
C280   C     0.11092   0.66336   0.49021   0.00000  Uiso   1.00
C281   C     0.04271   0.68006   0.43721   0.00000  Uiso   1.00
C282   C     0.27006   0.71925   0.58400   0.00000  Uiso   1.00
C283   C     0.33975   0.70926   0.58229   0.00000  Uiso   1.00
C284   C     0.38043   0.76679   0.58356   0.00000  Uiso   1.00
C285   C     0.46820   0.84334   0.58460   0.00000  Uiso   1.00
C286   C     0.17381   0.67295   0.61959   0.00000  Uiso   1.00
C287   C     0.16259   0.62404   0.64781   0.00000  Uiso   1.00
C288   C     0.12225   0.64259   0.67904   0.00000  Uiso   1.00
C289   C     0.06058   0.64724   0.73534   0.00000  Uiso   1.00
C290   C     0.16463   0.78349   0.58836   0.00000  Uiso   1.00
C291   C     0.14154   0.74583   0.55209   0.00000  Uiso   1.00
C292   C     0.09765   0.77097   0.52410   0.00000  Uiso   1.00
C293   C     0.08281   0.72861   0.49310   0.00000  Uiso   1.00
C294   C     0.24200   0.78439   0.58688   0.00000  Uiso   1.00
C295   C     0.28259   0.84194   0.58816   0.00000  Uiso   1.00
C296   C     0.35232   0.83205   0.58644   0.00000  Uiso   1.00
C297   C     0.14575   0.73808   0.62247   0.00000  Uiso   1.00
C298   C     0.10543   0.75671   0.65367   0.00000  Uiso   1.00
C299   C     0.09414   0.70784   0.68193   0.00000  Uiso   1.00
H300   H     0.23814   0.61286   0.58082   0.00000  Uiso   1.00
H301   H     0.17654   0.58789   0.51602   0.00000  Uiso   1.00
H302   H     0.36145   0.65885   0.58006   0.00000  Uiso   1.00
H303   H     0.18431   0.57364   0.64557   0.00000  Uiso   1.00
H304   H     0.09590   0.58894   0.44544   0.00000  Uiso   1.00
H305   H     0.48578   0.73857   0.58050   0.00000  Uiso   1.00
H306   H     0.11226   0.55887   0.71863   0.00000  Uiso   1.00
H307   H     0.14278   0.83420   0.59060   0.00000  Uiso   1.00
H308   H     0.07595   0.82138   0.52634   0.00000  Uiso   1.00
H309   H     0.26085   0.89234   0.59039   0.00000  Uiso   1.00
H310   H     0.08372   0.80712   0.65589   0.00000  Uiso   1.00
H311   H     0.01425   0.77845   0.45382   0.00000  Uiso   1.00
H312   H     0.40414   0.92807   0.58888   0.00000  Uiso   1.00
H313   H     0.03062   0.74838   0.72700   0.00000  Uiso   1.00
O314   O     0.01285   0.67127   0.40717   0.00000  Uiso   1.00
O315   O     0.52436   0.86757   0.58437   0.00000  Uiso   1.00
O316   O     0.03431   0.63182   0.76559   0.00000  Uiso   1.00
N317   N     0.08584   0.63530   0.45624   0.00000  Uiso   1.00
N318   N     0.45036   0.77519   0.58250   0.00000  Uiso   1.00
N319   N     0.10117   0.60719   0.71164   0.00000  Uiso   1.00
N320   N     0.04191   0.73727   0.46074   0.00000  Uiso   1.00
N321   N     0.40643   0.87716   0.58701   0.00000  Uiso   1.00
N322   N     0.05723   0.70917   0.71615   0.00000  Uiso   1.00
C323   C     0.71629   0.16357   0.08306   0.00000  Uiso   1.00
C324   C     0.66959   0.18069   0.04921   0.00000  Uiso   1.00
C325   C     0.65481   0.13829   0.01824   0.00000  Uiso   1.00
C326   C     0.61092   0.16336   0.99021   0.00000  Uiso   1.00
C327   C     0.54271   0.18006   0.93721   0.00000  Uiso   1.00
C328   C     0.77006   0.21925   0.08400   0.00000  Uiso   1.00
C329   C     0.83975   0.20926   0.08229   0.00000  Uiso   1.00
C330   C     0.88043   0.26679   0.08356   0.00000  Uiso   1.00
C331   C     0.96820   0.34334   0.08460   0.00000  Uiso   1.00
C332   C     0.67381   0.17295   0.11959   0.00000  Uiso   1.00
C333   C     0.66259   0.12404   0.14781   0.00000  Uiso   1.00
C334   C     0.62225   0.14259   0.17904   0.00000  Uiso   1.00
C335   C     0.56058   0.14724   0.23534   0.00000  Uiso   1.00
C336   C     0.66463   0.28349   0.08836   0.00000  Uiso   1.00
C337   C     0.64154   0.24583   0.05209   0.00000  Uiso   1.00
C338   C     0.59765   0.27097   0.02410   0.00000  Uiso   1.00
C339   C     0.58281   0.22861   0.99310   0.00000  Uiso   1.00
C340   C     0.74200   0.28439   0.08688   0.00000  Uiso   1.00
C341   C     0.78259   0.34194   0.08816   0.00000  Uiso   1.00
C342   C     0.85232   0.33205   0.08644   0.00000  Uiso   1.00
C343   C     0.64575   0.23808   0.12247   0.00000  Uiso   1.00
C344   C     0.60543   0.25671   0.15367   0.00000  Uiso   1.00
C345   C     0.59414   0.20784   0.18193   0.00000  Uiso   1.00
H346   H     0.73814   0.11286   0.08082   0.00000  Uiso   1.00
H347   H     0.67654   0.08789   0.01602   0.00000  Uiso   1.00
H348   H     0.86145   0.15885   0.08006   0.00000  Uiso   1.00
H349   H     0.68431   0.07364   0.14557   0.00000  Uiso   1.00
H350   H     0.59590   0.08894   0.94544   0.00000  Uiso   1.00
H351   H     0.98578   0.23857   0.08050   0.00000  Uiso   1.00
H352   H     0.61226   0.05887   0.21863   0.00000  Uiso   1.00
H353   H     0.64278   0.33420   0.09060   0.00000  Uiso   1.00
H354   H     0.57595   0.32138   0.02634   0.00000  Uiso   1.00
H355   H     0.76085   0.39234   0.09039   0.00000  Uiso   1.00
H356   H     0.58372   0.30712   0.15589   0.00000  Uiso   1.00
H357   H     0.51425   0.27845   0.95382   0.00000  Uiso   1.00
H358   H     0.90414   0.42807   0.08888   0.00000  Uiso   1.00
H359   H     0.53062   0.24838   0.22700   0.00000  Uiso   1.00
O360   O     0.51285   0.17127   0.90717   0.00000  Uiso   1.00
O361   O     0.02436   0.36757   0.08437   0.00000  Uiso   1.00
O362   O     0.53431   0.13182   0.26559   0.00000  Uiso   1.00
N363   N     0.58584   0.13530   0.95624   0.00000  Uiso   1.00
N364   N     0.95036   0.27519   0.08250   0.00000  Uiso   1.00
N365   N     0.60117   0.10719   0.21164   0.00000  Uiso   1.00
N366   N     0.54191   0.23727   0.96074   0.00000  Uiso   1.00
N367   N     0.90643   0.37716   0.08701   0.00000  Uiso   1.00
N368   N     0.55723   0.20917   0.21615   0.00000  Uiso   1.00
C369   C     0.66357   0.78371   0.41694   0.00000  Uiso   1.00
C370   C     0.68069   0.83041   0.45079   0.00000  Uiso   1.00
C371   C     0.63829   0.84519   0.48176   0.00000  Uiso   1.00
C372   C     0.66336   0.88908   0.50979   0.00000  Uiso   1.00
C373   C     0.68006   0.95729   0.56279   0.00000  Uiso   1.00
C374   C     0.71925   0.72994   0.41600   0.00000  Uiso   1.00
C375   C     0.70926   0.66025   0.41771   0.00000  Uiso   1.00
C376   C     0.76679   0.61957   0.41644   0.00000  Uiso   1.00
C377   C     0.84334   0.53180   0.41540   0.00000  Uiso   1.00
C378   C     0.67295   0.82619   0.38041   0.00000  Uiso   1.00
C379   C     0.62404   0.83741   0.35219   0.00000  Uiso   1.00
C380   C     0.64259   0.87775   0.32096   0.00000  Uiso   1.00
C381   C     0.64724   0.93942   0.26466   0.00000  Uiso   1.00
C382   C     0.78349   0.83537   0.41164   0.00000  Uiso   1.00
C383   C     0.74583   0.85846   0.44791   0.00000  Uiso   1.00
C384   C     0.77097   0.90235   0.47590   0.00000  Uiso   1.00
C385   C     0.72861   0.91719   0.50690   0.00000  Uiso   1.00
C386   C     0.78439   0.75800   0.41312   0.00000  Uiso   1.00
C387   C     0.84194   0.71741   0.41184   0.00000  Uiso   1.00
C388   C     0.83205   0.64768   0.41356   0.00000  Uiso   1.00
C389   C     0.73808   0.85425   0.37753   0.00000  Uiso   1.00
C390   C     0.75671   0.89457   0.34633   0.00000  Uiso   1.00
C391   C     0.70784   0.90586   0.31807   0.00000  Uiso   1.00
H392   H     0.61286   0.76186   0.41918   0.00000  Uiso   1.00
H393   H     0.58789   0.82346   0.48398   0.00000  Uiso   1.00
H394   H     0.65885   0.63855   0.41994   0.00000  Uiso   1.00
H395   H     0.57364   0.81569   0.35443   0.00000  Uiso   1.00
H396   H     0.58894   0.90410   0.55456   0.00000  Uiso   1.00
H397   H     0.73857   0.51422   0.41950   0.00000  Uiso   1.00
H398   H     0.55887   0.88774   0.28137   0.00000  Uiso   1.00
H399   H     0.83420   0.85722   0.40940   0.00000  Uiso   1.00
H400   H     0.82138   0.92405   0.47366   0.00000  Uiso   1.00
H401   H     0.89234   0.73915   0.40961   0.00000  Uiso   1.00
H402   H     0.80712   0.91628   0.34411   0.00000  Uiso   1.00
H403   H     0.77845   0.98575   0.54618   0.00000  Uiso   1.00
H404   H     0.92807   0.59586   0.41112   0.00000  Uiso   1.00
H405   H     0.74838   0.96938   0.27300   0.00000  Uiso   1.00
O406   O     0.67127   0.98715   0.59283   0.00000  Uiso   1.00
O407   O     0.86757   0.47564   0.41563   0.00000  Uiso   1.00
O408   O     0.63182   0.96569   0.23441   0.00000  Uiso   1.00
N409   N     0.63530   0.91416   0.54376   0.00000  Uiso   1.00
N410   N     0.77519   0.54964   0.41750   0.00000  Uiso   1.00
N411   N     0.60719   0.89883   0.28836   0.00000  Uiso   1.00
N412   N     0.73727   0.95809   0.53926   0.00000  Uiso   1.00
N413   N     0.87716   0.59357   0.41299   0.00000  Uiso   1.00
N414   N     0.70917   0.94277   0.28385   0.00000  Uiso   1.00
C415   C     0.16357   0.28371   0.91694   0.00000  Uiso   1.00
C416   C     0.18069   0.33041   0.95079   0.00000  Uiso   1.00
C417   C     0.13829   0.34519   0.98176   0.00000  Uiso   1.00
C418   C     0.16336   0.38908   0.00979   0.00000  Uiso   1.00
C419   C     0.18006   0.45729   0.06279   0.00000  Uiso   1.00
C420   C     0.21925   0.22994   0.91600   0.00000  Uiso   1.00
C421   C     0.20926   0.16025   0.91771   0.00000  Uiso   1.00
C422   C     0.26679   0.11957   0.91644   0.00000  Uiso   1.00
C423   C     0.34334   0.03180   0.91540   0.00000  Uiso   1.00
C424   C     0.17295   0.32619   0.88041   0.00000  Uiso   1.00
C425   C     0.12404   0.33741   0.85219   0.00000  Uiso   1.00
C426   C     0.14259   0.37775   0.82096   0.00000  Uiso   1.00
C427   C     0.14724   0.43942   0.76466   0.00000  Uiso   1.00
C428   C     0.28349   0.33537   0.91164   0.00000  Uiso   1.00
C429   C     0.24583   0.35846   0.94791   0.00000  Uiso   1.00
C430   C     0.27097   0.40235   0.97590   0.00000  Uiso   1.00
C431   C     0.22861   0.41719   0.00690   0.00000  Uiso   1.00
C432   C     0.28439   0.25800   0.91312   0.00000  Uiso   1.00
C433   C     0.34194   0.21741   0.91184   0.00000  Uiso   1.00
C434   C     0.33205   0.14768   0.91356   0.00000  Uiso   1.00
C435   C     0.23808   0.35425   0.87753   0.00000  Uiso   1.00
C436   C     0.25671   0.39457   0.84633   0.00000  Uiso   1.00
C437   C     0.20784   0.40586   0.81807   0.00000  Uiso   1.00
H438   H     0.11286   0.26186   0.91918   0.00000  Uiso   1.00
H439   H     0.08789   0.32346   0.98398   0.00000  Uiso   1.00
H440   H     0.15885   0.13855   0.91994   0.00000  Uiso   1.00
H441   H     0.07364   0.31569   0.85443   0.00000  Uiso   1.00
H442   H     0.08894   0.40410   0.05456   0.00000  Uiso   1.00
H443   H     0.23857   0.01422   0.91950   0.00000  Uiso   1.00
H444   H     0.05887   0.38774   0.78137   0.00000  Uiso   1.00
H445   H     0.33420   0.35722   0.90940   0.00000  Uiso   1.00
H446   H     0.32138   0.42405   0.97366   0.00000  Uiso   1.00
H447   H     0.39234   0.23915   0.90961   0.00000  Uiso   1.00
H448   H     0.30712   0.41628   0.84411   0.00000  Uiso   1.00
H449   H     0.27845   0.48575   0.04618   0.00000  Uiso   1.00
H450   H     0.42807   0.09586   0.91112   0.00000  Uiso   1.00
H451   H     0.24838   0.46938   0.77300   0.00000  Uiso   1.00
O452   O     0.17127   0.48715   0.09283   0.00000  Uiso   1.00
O453   O     0.36757   0.97564   0.91563   0.00000  Uiso   1.00
O454   O     0.13182   0.46569   0.73441   0.00000  Uiso   1.00
N455   N     0.13530   0.41416   0.04376   0.00000  Uiso   1.00
N456   N     0.27519   0.04964   0.91750   0.00000  Uiso   1.00
N457   N     0.10719   0.39883   0.78836   0.00000  Uiso   1.00
N458   N     0.23727   0.45809   0.03926   0.00000  Uiso   1.00
N459   N     0.37716   0.09357   0.91299   0.00000  Uiso   1.00
N460   N     0.20917   0.44277   0.78385   0.00000  Uiso   1.00
C461   C     0.83643   0.71629   0.91694   0.00000  Uiso   1.00
C462   C     0.81931   0.66959   0.95079   0.00000  Uiso   1.00
C463   C     0.86171   0.65481   0.98176   0.00000  Uiso   1.00
C464   C     0.83664   0.61092   0.00979   0.00000  Uiso   1.00
C465   C     0.81994   0.54271   0.06279   0.00000  Uiso   1.00
C466   C     0.78075   0.77006   0.91600   0.00000  Uiso   1.00
C467   C     0.79074   0.83975   0.91771   0.00000  Uiso   1.00
C468   C     0.73321   0.88043   0.91644   0.00000  Uiso   1.00
C469   C     0.65666   0.96820   0.91540   0.00000  Uiso   1.00
C470   C     0.82705   0.67381   0.88041   0.00000  Uiso   1.00
C471   C     0.87596   0.66259   0.85219   0.00000  Uiso   1.00
C472   C     0.85741   0.62225   0.82096   0.00000  Uiso   1.00
C473   C     0.85276   0.56058   0.76466   0.00000  Uiso   1.00
C474   C     0.71651   0.66463   0.91164   0.00000  Uiso   1.00
C475   C     0.75417   0.64154   0.94791   0.00000  Uiso   1.00
C476   C     0.72903   0.59765   0.97590   0.00000  Uiso   1.00
C477   C     0.77139   0.58281   0.00690   0.00000  Uiso   1.00
C478   C     0.71561   0.74200   0.91312   0.00000  Uiso   1.00
C479   C     0.65806   0.78259   0.91184   0.00000  Uiso   1.00
C480   C     0.66795   0.85232   0.91356   0.00000  Uiso   1.00
C481   C     0.76192   0.64575   0.87753   0.00000  Uiso   1.00
C482   C     0.74329   0.60543   0.84633   0.00000  Uiso   1.00
C483   C     0.79216   0.59414   0.81807   0.00000  Uiso   1.00
H484   H     0.88714   0.73814   0.91918   0.00000  Uiso   1.00
H485   H     0.91211   0.67654   0.98398   0.00000  Uiso   1.00
H486   H     0.84115   0.86145   0.91994   0.00000  Uiso   1.00
H487   H     0.92636   0.68431   0.85443   0.00000  Uiso   1.00
H488   H     0.91106   0.59590   0.05456   0.00000  Uiso   1.00
H489   H     0.76143   0.98578   0.91950   0.00000  Uiso   1.00
H490   H     0.94113   0.61226   0.78137   0.00000  Uiso   1.00
H491   H     0.66580   0.64278   0.90940   0.00000  Uiso   1.00
H492   H     0.67862   0.57595   0.97366   0.00000  Uiso   1.00
H493   H     0.60766   0.76085   0.90961   0.00000  Uiso   1.00
H494   H     0.69288   0.58372   0.84411   0.00000  Uiso   1.00
H495   H     0.72155   0.51425   0.04618   0.00000  Uiso   1.00
H496   H     0.57193   0.90414   0.91112   0.00000  Uiso   1.00
H497   H     0.75162   0.53062   0.77300   0.00000  Uiso   1.00
O498   O     0.82873   0.51285   0.09283   0.00000  Uiso   1.00
O499   O     0.63243   0.02436   0.91563   0.00000  Uiso   1.00
O500   O     0.86818   0.53431   0.73441   0.00000  Uiso   1.00
N501   N     0.86470   0.58584   0.04376   0.00000  Uiso   1.00
N502   N     0.72481   0.95036   0.91750   0.00000  Uiso   1.00
N503   N     0.89281   0.60117   0.78836   0.00000  Uiso   1.00
N504   N     0.76273   0.54191   0.03926   0.00000  Uiso   1.00
N505   N     0.62284   0.90643   0.91299   0.00000  Uiso   1.00
N506   N     0.79083   0.55723   0.78385   0.00000  Uiso   1.00
C507   C     0.33643   0.21629   0.41694   0.00000  Uiso   1.00
C508   C     0.31931   0.16959   0.45079   0.00000  Uiso   1.00
C509   C     0.36171   0.15481   0.48176   0.00000  Uiso   1.00
C510   C     0.33664   0.11092   0.50979   0.00000  Uiso   1.00
C511   C     0.31994   0.04271   0.56279   0.00000  Uiso   1.00
C512   C     0.28075   0.27006   0.41600   0.00000  Uiso   1.00
C513   C     0.29074   0.33975   0.41771   0.00000  Uiso   1.00
C514   C     0.23321   0.38043   0.41644   0.00000  Uiso   1.00
C515   C     0.15666   0.46820   0.41540   0.00000  Uiso   1.00
C516   C     0.32705   0.17381   0.38041   0.00000  Uiso   1.00
C517   C     0.37596   0.16259   0.35219   0.00000  Uiso   1.00
C518   C     0.35741   0.12225   0.32096   0.00000  Uiso   1.00
C519   C     0.35276   0.06058   0.26466   0.00000  Uiso   1.00
C520   C     0.21651   0.16463   0.41164   0.00000  Uiso   1.00
C521   C     0.25417   0.14154   0.44791   0.00000  Uiso   1.00
C522   C     0.22903   0.09765   0.47590   0.00000  Uiso   1.00
C523   C     0.27139   0.08281   0.50690   0.00000  Uiso   1.00
C524   C     0.21561   0.24200   0.41312   0.00000  Uiso   1.00
C525   C     0.15806   0.28259   0.41184   0.00000  Uiso   1.00
C526   C     0.16795   0.35232   0.41356   0.00000  Uiso   1.00
C527   C     0.26192   0.14575   0.37753   0.00000  Uiso   1.00
C528   C     0.24329   0.10543   0.34633   0.00000  Uiso   1.00
C529   C     0.29216   0.09414   0.31807   0.00000  Uiso   1.00
H530   H     0.38714   0.23814   0.41918   0.00000  Uiso   1.00
H531   H     0.41211   0.17654   0.48398   0.00000  Uiso   1.00
H532   H     0.34115   0.36145   0.41994   0.00000  Uiso   1.00
H533   H     0.42636   0.18431   0.35443   0.00000  Uiso   1.00
H534   H     0.41106   0.09590   0.55456   0.00000  Uiso   1.00
H535   H     0.26143   0.48578   0.41950   0.00000  Uiso   1.00
H536   H     0.44113   0.11226   0.28137   0.00000  Uiso   1.00
H537   H     0.16580   0.14278   0.40940   0.00000  Uiso   1.00
H538   H     0.17862   0.07595   0.47366   0.00000  Uiso   1.00
H539   H     0.10766   0.26085   0.40961   0.00000  Uiso   1.00
H540   H     0.19288   0.08372   0.34411   0.00000  Uiso   1.00
H541   H     0.22155   0.01425   0.54618   0.00000  Uiso   1.00
H542   H     0.07193   0.40414   0.41112   0.00000  Uiso   1.00
H543   H     0.25162   0.03062   0.27300   0.00000  Uiso   1.00
O544   O     0.32873   0.01285   0.59283   0.00000  Uiso   1.00
O545   O     0.13243   0.52436   0.41563   0.00000  Uiso   1.00
O546   O     0.36818   0.03431   0.23441   0.00000  Uiso   1.00
N547   N     0.36470   0.08584   0.54376   0.00000  Uiso   1.00
N548   N     0.22481   0.45036   0.41750   0.00000  Uiso   1.00
N549   N     0.39281   0.10117   0.28836   0.00000  Uiso   1.00
N550   N     0.26273   0.04191   0.53926   0.00000  Uiso   1.00
N551   N     0.12284   0.40643   0.41299   0.00000  Uiso   1.00
N552   N     0.29083   0.05723   0.28385   0.00000  Uiso   1.00
C553   C     0.71629   0.66357   0.16694   0.00000  Uiso   1.00
C554   C     0.66959   0.68069   0.20079   0.00000  Uiso   1.00
C555   C     0.65481   0.63829   0.23176   0.00000  Uiso   1.00
C556   C     0.61092   0.66336   0.25979   0.00000  Uiso   1.00
C557   C     0.54271   0.68006   0.31279   0.00000  Uiso   1.00
C558   C     0.77006   0.71925   0.16600   0.00000  Uiso   1.00
C559   C     0.83975   0.70926   0.16771   0.00000  Uiso   1.00
C560   C     0.88043   0.76679   0.16644   0.00000  Uiso   1.00
C561   C     0.96820   0.84334   0.16540   0.00000  Uiso   1.00
C562   C     0.67381   0.67295   0.13041   0.00000  Uiso   1.00
C563   C     0.66259   0.62404   0.10219   0.00000  Uiso   1.00
C564   C     0.62225   0.64259   0.07096   0.00000  Uiso   1.00
C565   C     0.56058   0.64724   0.01466   0.00000  Uiso   1.00
C566   C     0.66463   0.78349   0.16164   0.00000  Uiso   1.00
C567   C     0.64154   0.74583   0.19791   0.00000  Uiso   1.00
C568   C     0.59765   0.77097   0.22590   0.00000  Uiso   1.00
C569   C     0.58281   0.72861   0.25690   0.00000  Uiso   1.00
C570   C     0.74200   0.78439   0.16312   0.00000  Uiso   1.00
C571   C     0.78259   0.84194   0.16184   0.00000  Uiso   1.00
C572   C     0.85232   0.83205   0.16356   0.00000  Uiso   1.00
C573   C     0.64575   0.73808   0.12753   0.00000  Uiso   1.00
C574   C     0.60543   0.75671   0.09633   0.00000  Uiso   1.00
C575   C     0.59414   0.70784   0.06807   0.00000  Uiso   1.00
H576   H     0.73814   0.61286   0.16918   0.00000  Uiso   1.00
H577   H     0.67654   0.58789   0.23398   0.00000  Uiso   1.00
H578   H     0.86145   0.65885   0.16994   0.00000  Uiso   1.00
H579   H     0.68431   0.57364   0.10443   0.00000  Uiso   1.00
H580   H     0.59590   0.58894   0.30456   0.00000  Uiso   1.00
H581   H     0.98578   0.73857   0.16950   0.00000  Uiso   1.00
H582   H     0.61226   0.55887   0.03137   0.00000  Uiso   1.00
H583   H     0.64278   0.83420   0.15940   0.00000  Uiso   1.00
H584   H     0.57595   0.82138   0.22366   0.00000  Uiso   1.00
H585   H     0.76085   0.89234   0.15961   0.00000  Uiso   1.00
H586   H     0.58372   0.80712   0.09411   0.00000  Uiso   1.00
H587   H     0.51425   0.77845   0.29618   0.00000  Uiso   1.00
H588   H     0.90414   0.92807   0.16112   0.00000  Uiso   1.00
H589   H     0.53062   0.74838   0.02300   0.00000  Uiso   1.00
O590   O     0.51285   0.67127   0.34283   0.00000  Uiso   1.00
O591   O     0.02436   0.86757   0.16563   0.00000  Uiso   1.00
O592   O     0.53431   0.63182   0.98441   0.00000  Uiso   1.00
N593   N     0.58584   0.63530   0.29376   0.00000  Uiso   1.00
N594   N     0.95036   0.77519   0.16750   0.00000  Uiso   1.00
N595   N     0.60117   0.60719   0.03836   0.00000  Uiso   1.00
N596   N     0.54191   0.73727   0.28926   0.00000  Uiso   1.00
N597   N     0.90643   0.87716   0.16299   0.00000  Uiso   1.00
N598   N     0.55723   0.70917   0.03385   0.00000  Uiso   1.00
C599   C     0.21629   0.16357   0.66694   0.00000  Uiso   1.00
C600   C     0.16959   0.18069   0.70079   0.00000  Uiso   1.00
C601   C     0.15481   0.13829   0.73176   0.00000  Uiso   1.00
C602   C     0.11092   0.16336   0.75979   0.00000  Uiso   1.00
C603   C     0.04271   0.18006   0.81279   0.00000  Uiso   1.00
C604   C     0.27006   0.21925   0.66600   0.00000  Uiso   1.00
C605   C     0.33975   0.20926   0.66771   0.00000  Uiso   1.00
C606   C     0.38043   0.26679   0.66644   0.00000  Uiso   1.00
C607   C     0.46820   0.34334   0.66540   0.00000  Uiso   1.00
C608   C     0.17381   0.17295   0.63041   0.00000  Uiso   1.00
C609   C     0.16259   0.12404   0.60219   0.00000  Uiso   1.00
C610   C     0.12225   0.14259   0.57096   0.00000  Uiso   1.00
C611   C     0.06058   0.14724   0.51466   0.00000  Uiso   1.00
C612   C     0.16463   0.28349   0.66164   0.00000  Uiso   1.00
C613   C     0.14154   0.24583   0.69791   0.00000  Uiso   1.00
C614   C     0.09765   0.27097   0.72590   0.00000  Uiso   1.00
C615   C     0.08281   0.22861   0.75690   0.00000  Uiso   1.00
C616   C     0.24200   0.28439   0.66312   0.00000  Uiso   1.00
C617   C     0.28259   0.34194   0.66184   0.00000  Uiso   1.00
C618   C     0.35232   0.33205   0.66356   0.00000  Uiso   1.00
C619   C     0.14575   0.23808   0.62753   0.00000  Uiso   1.00
C620   C     0.10543   0.25671   0.59633   0.00000  Uiso   1.00
C621   C     0.09414   0.20784   0.56807   0.00000  Uiso   1.00
H622   H     0.23814   0.11286   0.66918   0.00000  Uiso   1.00
H623   H     0.17654   0.08789   0.73398   0.00000  Uiso   1.00
H624   H     0.36145   0.15885   0.66994   0.00000  Uiso   1.00
H625   H     0.18431   0.07364   0.60443   0.00000  Uiso   1.00
H626   H     0.09590   0.08894   0.80456   0.00000  Uiso   1.00
H627   H     0.48578   0.23857   0.66950   0.00000  Uiso   1.00
H628   H     0.11226   0.05887   0.53137   0.00000  Uiso   1.00
H629   H     0.14278   0.33420   0.65940   0.00000  Uiso   1.00
H630   H     0.07595   0.32138   0.72366   0.00000  Uiso   1.00
H631   H     0.26085   0.39234   0.65961   0.00000  Uiso   1.00
H632   H     0.08372   0.30712   0.59411   0.00000  Uiso   1.00
H633   H     0.01425   0.27845   0.79618   0.00000  Uiso   1.00
H634   H     0.40414   0.42807   0.66112   0.00000  Uiso   1.00
H635   H     0.03062   0.24838   0.52300   0.00000  Uiso   1.00
O636   O     0.01285   0.17127   0.84283   0.00000  Uiso   1.00
O637   O     0.52436   0.36757   0.66563   0.00000  Uiso   1.00
O638   O     0.03431   0.13182   0.48441   0.00000  Uiso   1.00
N639   N     0.08584   0.13530   0.79376   0.00000  Uiso   1.00
N640   N     0.45036   0.27519   0.66750   0.00000  Uiso   1.00
N641   N     0.10117   0.10719   0.53836   0.00000  Uiso   1.00
N642   N     0.04191   0.23727   0.78926   0.00000  Uiso   1.00
N643   N     0.40643   0.37716   0.66299   0.00000  Uiso   1.00
N644   N     0.05723   0.20917   0.53385   0.00000  Uiso   1.00
C645   C     0.78371   0.83643   0.66694   0.00000  Uiso   1.00
C646   C     0.83041   0.81931   0.70079   0.00000  Uiso   1.00
C647   C     0.84519   0.86171   0.73176   0.00000  Uiso   1.00
C648   C     0.88908   0.83664   0.75979   0.00000  Uiso   1.00
C649   C     0.95729   0.81994   0.81279   0.00000  Uiso   1.00
C650   C     0.72994   0.78075   0.66600   0.00000  Uiso   1.00
C651   C     0.66025   0.79074   0.66771   0.00000  Uiso   1.00
C652   C     0.61957   0.73321   0.66644   0.00000  Uiso   1.00
C653   C     0.53180   0.65666   0.66540   0.00000  Uiso   1.00
C654   C     0.82619   0.82705   0.63041   0.00000  Uiso   1.00
C655   C     0.83741   0.87596   0.60219   0.00000  Uiso   1.00
C656   C     0.87775   0.85741   0.57096   0.00000  Uiso   1.00
C657   C     0.93942   0.85276   0.51466   0.00000  Uiso   1.00
C658   C     0.83537   0.71651   0.66164   0.00000  Uiso   1.00
C659   C     0.85846   0.75417   0.69791   0.00000  Uiso   1.00
C660   C     0.90235   0.72903   0.72590   0.00000  Uiso   1.00
C661   C     0.91719   0.77139   0.75690   0.00000  Uiso   1.00
C662   C     0.75800   0.71561   0.66312   0.00000  Uiso   1.00
C663   C     0.71741   0.65806   0.66184   0.00000  Uiso   1.00
C664   C     0.64768   0.66795   0.66356   0.00000  Uiso   1.00
C665   C     0.85425   0.76192   0.62753   0.00000  Uiso   1.00
C666   C     0.89457   0.74329   0.59633   0.00000  Uiso   1.00
C667   C     0.90586   0.79216   0.56807   0.00000  Uiso   1.00
H668   H     0.76186   0.88714   0.66918   0.00000  Uiso   1.00
H669   H     0.82346   0.91211   0.73398   0.00000  Uiso   1.00
H670   H     0.63855   0.84115   0.66994   0.00000  Uiso   1.00
H671   H     0.81569   0.92636   0.60443   0.00000  Uiso   1.00
H672   H     0.90410   0.91106   0.80456   0.00000  Uiso   1.00
H673   H     0.51422   0.76143   0.66950   0.00000  Uiso   1.00
H674   H     0.88774   0.94113   0.53137   0.00000  Uiso   1.00
H675   H     0.85722   0.66580   0.65940   0.00000  Uiso   1.00
H676   H     0.92405   0.67862   0.72366   0.00000  Uiso   1.00
H677   H     0.73915   0.60766   0.65961   0.00000  Uiso   1.00
H678   H     0.91628   0.69288   0.59411   0.00000  Uiso   1.00
H679   H     0.98575   0.72155   0.79618   0.00000  Uiso   1.00
H680   H     0.59586   0.57193   0.66112   0.00000  Uiso   1.00
H681   H     0.96938   0.75162   0.52300   0.00000  Uiso   1.00
O682   O     0.98715   0.82873   0.84283   0.00000  Uiso   1.00
O683   O     0.47564   0.63243   0.66563   0.00000  Uiso   1.00
O684   O     0.96569   0.86818   0.48441   0.00000  Uiso   1.00
N685   N     0.91416   0.86470   0.79376   0.00000  Uiso   1.00
N686   N     0.54964   0.72481   0.66750   0.00000  Uiso   1.00
N687   N     0.89883   0.89281   0.53836   0.00000  Uiso   1.00
N688   N     0.95809   0.76273   0.78926   0.00000  Uiso   1.00
N689   N     0.59357   0.62284   0.66299   0.00000  Uiso   1.00
N690   N     0.94277   0.79083   0.53385   0.00000  Uiso   1.00
C691   C     0.28371   0.33643   0.16694   0.00000  Uiso   1.00
C692   C     0.33041   0.31931   0.20079   0.00000  Uiso   1.00
C693   C     0.34519   0.36171   0.23176   0.00000  Uiso   1.00
C694   C     0.38908   0.33664   0.25979   0.00000  Uiso   1.00
C695   C     0.45729   0.31994   0.31279   0.00000  Uiso   1.00
C696   C     0.22994   0.28075   0.16600   0.00000  Uiso   1.00
C697   C     0.16025   0.29074   0.16771   0.00000  Uiso   1.00
C698   C     0.11957   0.23321   0.16644   0.00000  Uiso   1.00
C699   C     0.03180   0.15666   0.16540   0.00000  Uiso   1.00
C700   C     0.32619   0.32705   0.13041   0.00000  Uiso   1.00
C701   C     0.33741   0.37596   0.10219   0.00000  Uiso   1.00
C702   C     0.37775   0.35741   0.07096   0.00000  Uiso   1.00
C703   C     0.43942   0.35276   0.01466   0.00000  Uiso   1.00
C704   C     0.33537   0.21651   0.16164   0.00000  Uiso   1.00
C705   C     0.35846   0.25417   0.19791   0.00000  Uiso   1.00
C706   C     0.40235   0.22903   0.22590   0.00000  Uiso   1.00
C707   C     0.41719   0.27139   0.25690   0.00000  Uiso   1.00
C708   C     0.25800   0.21561   0.16312   0.00000  Uiso   1.00
C709   C     0.21741   0.15806   0.16184   0.00000  Uiso   1.00
C710   C     0.14768   0.16795   0.16356   0.00000  Uiso   1.00
C711   C     0.35425   0.26192   0.12753   0.00000  Uiso   1.00
C712   C     0.39457   0.24329   0.09633   0.00000  Uiso   1.00
C713   C     0.40586   0.29216   0.06807   0.00000  Uiso   1.00
H714   H     0.26186   0.38714   0.16918   0.00000  Uiso   1.00
H715   H     0.32346   0.41211   0.23398   0.00000  Uiso   1.00
H716   H     0.13855   0.34115   0.16994   0.00000  Uiso   1.00
H717   H     0.31569   0.42636   0.10443   0.00000  Uiso   1.00
H718   H     0.40410   0.41106   0.30456   0.00000  Uiso   1.00
H719   H     0.01422   0.26143   0.16950   0.00000  Uiso   1.00
H720   H     0.38774   0.44113   0.03137   0.00000  Uiso   1.00
H721   H     0.35722   0.16580   0.15940   0.00000  Uiso   1.00
H722   H     0.42405   0.17862   0.22366   0.00000  Uiso   1.00
H723   H     0.23915   0.10766   0.15961   0.00000  Uiso   1.00
H724   H     0.41628   0.19288   0.09411   0.00000  Uiso   1.00
H725   H     0.48575   0.22155   0.29618   0.00000  Uiso   1.00
H726   H     0.09586   0.07193   0.16112   0.00000  Uiso   1.00
H727   H     0.46938   0.25162   0.02300   0.00000  Uiso   1.00
O728   O     0.48715   0.32873   0.34283   0.00000  Uiso   1.00
O729   O     0.97564   0.13243   0.16563   0.00000  Uiso   1.00
O730   O     0.46569   0.36818   0.98441   0.00000  Uiso   1.00
N731   N     0.41416   0.36470   0.29376   0.00000  Uiso   1.00
N732   N     0.04964   0.22481   0.16750   0.00000  Uiso   1.00
N733   N     0.39883   0.39281   0.03836   0.00000  Uiso   1.00
N734   N     0.45809   0.26273   0.28926   0.00000  Uiso   1.00
N735   N     0.09357   0.12284   0.16299   0.00000  Uiso   1.00
N736   N     0.44277   0.29083   0.03385   0.00000  Uiso   1.00
