data_job_00791
_audit_creation_date              2018-12-19
_audit_creation_method            'Materials Studio'
_symmetry_space_group_name_H-M    'P1'
_symmetry_Int_Tables_number       1
_symmetry_cell_setting            triclinic
loop_
_symmetry_equiv_pos_as_xyz
  x,y,z
_cell_length_a                    30.2814
_cell_length_b                    30.2814
_cell_length_c                    9.6407
_cell_angle_alpha                 90.0000
_cell_angle_beta                  90.0000
_cell_angle_gamma                 90.0000
loop_
_atom_site_label
_atom_site_type_symbol
_atom_site_fract_x
_atom_site_fract_y
_atom_site_fract_z
_atom_site_U_iso_or_equiv
_atom_site_adp_type
_atom_site_occupancy
C1     C     0.23398   0.02582   0.21531   0.00000  Uiso   1.00
C2     C     0.27533   0.01655   0.30078   0.00000  Uiso   1.00
C3     C     0.29751   0.97650   0.30762   0.00000  Uiso   1.00
C4     C     0.33467   0.97474   0.39179   0.00000  Uiso   1.00
C5     C     0.39666   0.95470   0.51321   0.00000  Uiso   1.00
C6     C     0.19944   0.04275   0.31741   0.00000  Uiso   1.00
C7     C     0.15782   0.02473   0.33821   0.00000  Uiso   1.00
C8     C     0.13110   0.04503   0.43637   0.00000  Uiso   1.00
C9     C     0.07527   0.06569   0.58354   0.00000  Uiso   1.00
C10    C     0.24536   0.06482   0.12185   0.00000  Uiso   1.00
C11    C     0.24234   0.06537   0.97822   0.00000  Uiso   1.00
C12    C     0.25428   0.10426   0.91172   0.00000  Uiso   1.00
C13    C     0.26975   0.15919   0.75525   0.00000  Uiso   1.00
C14    C     0.26053   0.09389   0.35262   0.00000  Uiso   1.00
C15    C     0.28974   0.05352   0.37537   0.00000  Uiso   1.00
C16    C     0.32688   0.05181   0.45954   0.00000  Uiso   1.00
C17    C     0.34912   0.01177   0.46650   0.00000  Uiso   1.00
C18    C     0.21386   0.07972   0.39200   0.00000  Uiso   1.00
C19    C     0.18719   0.10004   0.49014   0.00000  Uiso   1.00
C20    C     0.14555   0.08207   0.51109   0.00000  Uiso   1.00
C21    C     0.25978   0.10179   0.19643   0.00000  Uiso   1.00
C22    C     0.27172   0.14068   0.13015   0.00000  Uiso   1.00
C23    C     0.26872   0.14130   0.98644   0.00000  Uiso   1.00
H24    H     0.22275   0.99704   0.15725   0.00000  Uiso   1.00
H25    H     0.28634   0.94790   0.24989   0.00000  Uiso   1.00
H26    H     0.14667   0.99612   0.28047   0.00000  Uiso   1.00
H27    H     0.23118   0.03676   0.92054   0.00000  Uiso   1.00
H28    H     0.36318   0.90971   0.38554   0.00000  Uiso   1.00
H29    H     0.06868   0.01141   0.44998   0.00000  Uiso   1.00
H30    H     0.24689   0.09709   0.69098   0.00000  Uiso   1.00
H31    H     0.27176   0.12268   0.41070   0.00000  Uiso   1.00
H32    H     0.33804   0.08043   0.51725   0.00000  Uiso   1.00
H33    H     0.19836   0.12866   0.54783   0.00000  Uiso   1.00
H34    H     0.28288   0.16929   0.18790   0.00000  Uiso   1.00
H35    H     0.40514   0.01728   0.60254   0.00000  Uiso   1.00
H36    H     0.11064   0.11898   0.66698   0.00000  Uiso   1.00
H37    H     0.28885   0.20466   0.90799   0.00000  Uiso   1.00
O38    O     0.42687   0.93344   0.55960   0.00000  Uiso   1.00
O39    O     0.04049   0.06687   0.64412   0.00000  Uiso   1.00
O40    O     0.27430   0.17928   0.64834   0.00000  Uiso   1.00
N41    N     0.36397   0.94083   0.42197   0.00000  Uiso   1.00
N42    N     0.08863   0.03591   0.48223   0.00000  Uiso   1.00
N43    N     0.25523   0.11602   0.77264   0.00000  Uiso   1.00
N44    N     0.38655   0.99871   0.53873   0.00000  Uiso   1.00
N45    N     0.11121   0.09379   0.59900   0.00000  Uiso   1.00
N46    N     0.27781   0.17390   0.88940   0.00000  Uiso   1.00
C47    C     0.70345   0.44172   0.39796   0.00000  Uiso   1.00
C48    C     0.74508   0.44902   0.31195   0.00000  Uiso   1.00
C49    C     0.76713   0.48888   0.29600   0.00000  Uiso   1.00
C50    C     0.80460   0.48871   0.21300   0.00000  Uiso   1.00
C51    C     0.86696   0.50593   0.08923   0.00000  Uiso   1.00
C52    C     0.66937   0.42211   0.29913   0.00000  Uiso   1.00
C53    C     0.62776   0.43934   0.27242   0.00000  Uiso   1.00
C54    C     0.60149   0.41651   0.17865   0.00000  Uiso   1.00
C55    C     0.54631   0.39193   0.03506   0.00000  Uiso   1.00
C56    C     0.71464   0.40525   0.50120   0.00000  Uiso   1.00
C57    C     0.71108   0.40829   0.64441   0.00000  Uiso   1.00
C58    C     0.72292   0.37126   0.72076   0.00000  Uiso   1.00
C59    C     0.73802   0.32050   0.89092   0.00000  Uiso   1.00
C60    C     0.73079   0.37054   0.27892   0.00000  Uiso   1.00
C61    C     0.75993   0.41036   0.24729   0.00000  Uiso   1.00
C62    C     0.79738   0.41013   0.16430   0.00000  Uiso   1.00
C63    C     0.81948   0.44998   0.14824   0.00000  Uiso   1.00
C64    C     0.68422   0.38345   0.23448   0.00000  Uiso   1.00
C65    C     0.65801   0.36059   0.14073   0.00000  Uiso   1.00
C66    C     0.61637   0.37778   0.11388   0.00000  Uiso   1.00
C67    C     0.72949   0.36659   0.43655   0.00000  Uiso   1.00
C68    C     0.74133   0.32954   0.51271   0.00000  Uiso   1.00
C69    C     0.73780   0.33253   0.65599   0.00000  Uiso   1.00
H70    H     0.69189   0.47181   0.44829   0.00000  Uiso   1.00
H71    H     0.75562   0.51879   0.34604   0.00000  Uiso   1.00
H72    H     0.61628   0.46925   0.32248   0.00000  Uiso   1.00
H73    H     0.69959   0.43821   0.69440   0.00000  Uiso   1.00
H74    H     0.83282   0.55382   0.20413   0.00000  Uiso   1.00
H75    H     0.53900   0.44936   0.15449   0.00000  Uiso   1.00
H76    H     0.71467   0.38391   0.93876   0.00000  Uiso   1.00
H77    H     0.74235   0.34044   0.22858   0.00000  Uiso   1.00
H78    H     0.80886   0.38021   0.11428   0.00000  Uiso   1.00
H79    H     0.66951   0.33067   0.09072   0.00000  Uiso   1.00
H80    H     0.75282   0.29963   0.46264   0.00000  Uiso   1.00
H81    H     0.87603   0.44134   0.01602   0.00000  Uiso   1.00
H82    H     0.58220   0.33688   0.96639   0.00000  Uiso   1.00
H83    H     0.75788   0.27143   0.75065   0.00000  Uiso   1.00
O84    O     0.89726   0.52611   0.03881   0.00000  Uiso   1.00
O85    O     0.51176   0.38907   0.97371   0.00000  Uiso   1.00
O86    O     0.74225   0.30319   0.00264   0.00000  Uiso   1.00
N87    N     0.83387   0.52189   0.17557   0.00000  Uiso   1.00
N88    N     0.55916   0.42423   0.12914   0.00000  Uiso   1.00
N89    N     0.72340   0.36303   0.86236   0.00000  Uiso   1.00
N90    N     0.85712   0.46137   0.07435   0.00000  Uiso   1.00
N91    N     0.58241   0.36371   0.02792   0.00000  Uiso   1.00
N92    N     0.74665   0.30251   0.76114   0.00000  Uiso   1.00
C93    C     0.76602   0.97418   0.21531   0.00000  Uiso   1.00
C94    C     0.72467   0.98345   0.30078   0.00000  Uiso   1.00
C95    C     0.70249   0.02350   0.30762   0.00000  Uiso   1.00
C96    C     0.66533   0.02526   0.39179   0.00000  Uiso   1.00
C97    C     0.60334   0.04530   0.51321   0.00000  Uiso   1.00
C98    C     0.80056   0.95725   0.31741   0.00000  Uiso   1.00
C99    C     0.84218   0.97527   0.33821   0.00000  Uiso   1.00
C100   C     0.86890   0.95497   0.43637   0.00000  Uiso   1.00
C101   C     0.92473   0.93431   0.58354   0.00000  Uiso   1.00
C102   C     0.75464   0.93518   0.12185   0.00000  Uiso   1.00
C103   C     0.75766   0.93463   0.97822   0.00000  Uiso   1.00
C104   C     0.74572   0.89574   0.91172   0.00000  Uiso   1.00
C105   C     0.73025   0.84081   0.75525   0.00000  Uiso   1.00
C106   C     0.73947   0.90611   0.35262   0.00000  Uiso   1.00
C107   C     0.71026   0.94648   0.37537   0.00000  Uiso   1.00
C108   C     0.67312   0.94819   0.45954   0.00000  Uiso   1.00
C109   C     0.65088   0.98823   0.46650   0.00000  Uiso   1.00
C110   C     0.78614   0.92028   0.39200   0.00000  Uiso   1.00
C111   C     0.81281   0.89996   0.49014   0.00000  Uiso   1.00
C112   C     0.85445   0.91793   0.51109   0.00000  Uiso   1.00
C113   C     0.74022   0.89821   0.19643   0.00000  Uiso   1.00
C114   C     0.72828   0.85932   0.13015   0.00000  Uiso   1.00
C115   C     0.73128   0.85870   0.98644   0.00000  Uiso   1.00
H116   H     0.77725   0.00296   0.15725   0.00000  Uiso   1.00
H117   H     0.71366   0.05210   0.24989   0.00000  Uiso   1.00
H118   H     0.85333   0.00388   0.28047   0.00000  Uiso   1.00
H119   H     0.76882   0.96324   0.92054   0.00000  Uiso   1.00
H120   H     0.63682   0.09029   0.38554   0.00000  Uiso   1.00
H121   H     0.93132   0.98859   0.44998   0.00000  Uiso   1.00
H122   H     0.75311   0.90291   0.69098   0.00000  Uiso   1.00
H123   H     0.72824   0.87732   0.41070   0.00000  Uiso   1.00
H124   H     0.66196   0.91957   0.51725   0.00000  Uiso   1.00
H125   H     0.80164   0.87134   0.54783   0.00000  Uiso   1.00
H126   H     0.71712   0.83071   0.18790   0.00000  Uiso   1.00
H127   H     0.59486   0.98272   0.60254   0.00000  Uiso   1.00
H128   H     0.88936   0.88102   0.66698   0.00000  Uiso   1.00
H129   H     0.71115   0.79534   0.90799   0.00000  Uiso   1.00
O130   O     0.57313   0.06656   0.55960   0.00000  Uiso   1.00
O131   O     0.95951   0.93313   0.64412   0.00000  Uiso   1.00
O132   O     0.72570   0.82072   0.64834   0.00000  Uiso   1.00
N133   N     0.63603   0.05917   0.42197   0.00000  Uiso   1.00
N134   N     0.91137   0.96409   0.48223   0.00000  Uiso   1.00
N135   N     0.74477   0.88398   0.77264   0.00000  Uiso   1.00
N136   N     0.61345   0.00129   0.53873   0.00000  Uiso   1.00
N137   N     0.88879   0.90621   0.59900   0.00000  Uiso   1.00
N138   N     0.72219   0.82610   0.88940   0.00000  Uiso   1.00
C139   C     0.29655   0.55828   0.39796   0.00000  Uiso   1.00
C140   C     0.25492   0.55098   0.31195   0.00000  Uiso   1.00
C141   C     0.23287   0.51112   0.29600   0.00000  Uiso   1.00
C142   C     0.19540   0.51129   0.21300   0.00000  Uiso   1.00
C143   C     0.13304   0.49407   0.08923   0.00000  Uiso   1.00
C144   C     0.33063   0.57789   0.29913   0.00000  Uiso   1.00
C145   C     0.37224   0.56066   0.27242   0.00000  Uiso   1.00
C146   C     0.39851   0.58349   0.17865   0.00000  Uiso   1.00
C147   C     0.45369   0.60807   0.03506   0.00000  Uiso   1.00
C148   C     0.28536   0.59475   0.50120   0.00000  Uiso   1.00
C149   C     0.28892   0.59171   0.64441   0.00000  Uiso   1.00
C150   C     0.27708   0.62874   0.72076   0.00000  Uiso   1.00
C151   C     0.26198   0.67950   0.89092   0.00000  Uiso   1.00
C152   C     0.26921   0.62946   0.27892   0.00000  Uiso   1.00
C153   C     0.24007   0.58964   0.24729   0.00000  Uiso   1.00
C154   C     0.20262   0.58987   0.16430   0.00000  Uiso   1.00
C155   C     0.18052   0.55002   0.14824   0.00000  Uiso   1.00
C156   C     0.31578   0.61655   0.23448   0.00000  Uiso   1.00
C157   C     0.34199   0.63941   0.14073   0.00000  Uiso   1.00
C158   C     0.38363   0.62222   0.11388   0.00000  Uiso   1.00
C159   C     0.27051   0.63341   0.43655   0.00000  Uiso   1.00
C160   C     0.25867   0.67046   0.51271   0.00000  Uiso   1.00
C161   C     0.26220   0.66747   0.65599   0.00000  Uiso   1.00
H162   H     0.30811   0.52819   0.44829   0.00000  Uiso   1.00
H163   H     0.24438   0.48121   0.34604   0.00000  Uiso   1.00
H164   H     0.38372   0.53075   0.32248   0.00000  Uiso   1.00
H165   H     0.30041   0.56179   0.69440   0.00000  Uiso   1.00
H166   H     0.16718   0.44618   0.20413   0.00000  Uiso   1.00
H167   H     0.46100   0.55064   0.15449   0.00000  Uiso   1.00
H168   H     0.28533   0.61609   0.93876   0.00000  Uiso   1.00
H169   H     0.25765   0.65956   0.22858   0.00000  Uiso   1.00
H170   H     0.19114   0.61979   0.11428   0.00000  Uiso   1.00
H171   H     0.33049   0.66933   0.09072   0.00000  Uiso   1.00
H172   H     0.24718   0.70037   0.46264   0.00000  Uiso   1.00
H173   H     0.12397   0.55866   0.01602   0.00000  Uiso   1.00
H174   H     0.41780   0.66312   0.96639   0.00000  Uiso   1.00
H175   H     0.24212   0.72857   0.75065   0.00000  Uiso   1.00
O176   O     0.10274   0.47389   0.03881   0.00000  Uiso   1.00
O177   O     0.48824   0.61093   0.97371   0.00000  Uiso   1.00
O178   O     0.25775   0.69681   0.00264   0.00000  Uiso   1.00
N179   N     0.16613   0.47811   0.17557   0.00000  Uiso   1.00
N180   N     0.44084   0.57577   0.12914   0.00000  Uiso   1.00
N181   N     0.27660   0.63697   0.86236   0.00000  Uiso   1.00
N182   N     0.14288   0.53863   0.07435   0.00000  Uiso   1.00
N183   N     0.41759   0.63629   0.02792   0.00000  Uiso   1.00
N184   N     0.25335   0.69749   0.76114   0.00000  Uiso   1.00
C185   C     0.47418   0.73398   0.21531   0.00000  Uiso   1.00
C186   C     0.48345   0.77533   0.30078   0.00000  Uiso   1.00
C187   C     0.52350   0.79751   0.30762   0.00000  Uiso   1.00
C188   C     0.52526   0.83467   0.39179   0.00000  Uiso   1.00
C189   C     0.54530   0.89666   0.51321   0.00000  Uiso   1.00
C190   C     0.45725   0.69944   0.31741   0.00000  Uiso   1.00
C191   C     0.47527   0.65782   0.33821   0.00000  Uiso   1.00
C192   C     0.45497   0.63110   0.43637   0.00000  Uiso   1.00
C193   C     0.43431   0.57527   0.58354   0.00000  Uiso   1.00
C194   C     0.43518   0.74536   0.12185   0.00000  Uiso   1.00
C195   C     0.43463   0.74234   0.97822   0.00000  Uiso   1.00
C196   C     0.39574   0.75428   0.91172   0.00000  Uiso   1.00
C197   C     0.34081   0.76975   0.75525   0.00000  Uiso   1.00
C198   C     0.40611   0.76053   0.35262   0.00000  Uiso   1.00
C199   C     0.44648   0.78974   0.37537   0.00000  Uiso   1.00
C200   C     0.44819   0.82688   0.45954   0.00000  Uiso   1.00
C201   C     0.48823   0.84912   0.46650   0.00000  Uiso   1.00
C202   C     0.42028   0.71386   0.39200   0.00000  Uiso   1.00
C203   C     0.39996   0.68719   0.49014   0.00000  Uiso   1.00
C204   C     0.41793   0.64555   0.51109   0.00000  Uiso   1.00
C205   C     0.39821   0.75978   0.19643   0.00000  Uiso   1.00
C206   C     0.35932   0.77172   0.13015   0.00000  Uiso   1.00
C207   C     0.35870   0.76872   0.98644   0.00000  Uiso   1.00
H208   H     0.50296   0.72275   0.15725   0.00000  Uiso   1.00
H209   H     0.55210   0.78634   0.24989   0.00000  Uiso   1.00
H210   H     0.50388   0.64667   0.28047   0.00000  Uiso   1.00
H211   H     0.46324   0.73118   0.92054   0.00000  Uiso   1.00
H212   H     0.59029   0.86318   0.38554   0.00000  Uiso   1.00
H213   H     0.48859   0.56868   0.44998   0.00000  Uiso   1.00
H214   H     0.40291   0.74689   0.69098   0.00000  Uiso   1.00
H215   H     0.37732   0.77176   0.41070   0.00000  Uiso   1.00
H216   H     0.41957   0.83804   0.51725   0.00000  Uiso   1.00
H217   H     0.37134   0.69836   0.54783   0.00000  Uiso   1.00
H218   H     0.33071   0.78288   0.18790   0.00000  Uiso   1.00
H219   H     0.48272   0.90514   0.60254   0.00000  Uiso   1.00
H220   H     0.38102   0.61064   0.66698   0.00000  Uiso   1.00
H221   H     0.29534   0.78885   0.90799   0.00000  Uiso   1.00
O222   O     0.56656   0.92687   0.55960   0.00000  Uiso   1.00
O223   O     0.43313   0.54049   0.64412   0.00000  Uiso   1.00
O224   O     0.32072   0.77430   0.64834   0.00000  Uiso   1.00
N225   N     0.55917   0.86397   0.42197   0.00000  Uiso   1.00
N226   N     0.46409   0.58863   0.48223   0.00000  Uiso   1.00
N227   N     0.38398   0.75523   0.77264   0.00000  Uiso   1.00
N228   N     0.50129   0.88655   0.53873   0.00000  Uiso   1.00
N229   N     0.40621   0.61121   0.59900   0.00000  Uiso   1.00
N230   N     0.32610   0.77781   0.88940   0.00000  Uiso   1.00
C231   C     0.05828   0.20345   0.39796   0.00000  Uiso   1.00
C232   C     0.05098   0.24508   0.31195   0.00000  Uiso   1.00
C233   C     0.01112   0.26713   0.29600   0.00000  Uiso   1.00
C234   C     0.01129   0.30460   0.21300   0.00000  Uiso   1.00
C235   C     0.99407   0.36696   0.08923   0.00000  Uiso   1.00
C236   C     0.07789   0.16937   0.29913   0.00000  Uiso   1.00
C237   C     0.06066   0.12776   0.27242   0.00000  Uiso   1.00
C238   C     0.08349   0.10149   0.17865   0.00000  Uiso   1.00
C239   C     0.10807   0.04631   0.03506   0.00000  Uiso   1.00
C240   C     0.09475   0.21464   0.50120   0.00000  Uiso   1.00
C241   C     0.09171   0.21108   0.64441   0.00000  Uiso   1.00
C242   C     0.12874   0.22292   0.72076   0.00000  Uiso   1.00
C243   C     0.17950   0.23802   0.89092   0.00000  Uiso   1.00
C244   C     0.12946   0.23079   0.27892   0.00000  Uiso   1.00
C245   C     0.08964   0.25993   0.24729   0.00000  Uiso   1.00
C246   C     0.08987   0.29738   0.16430   0.00000  Uiso   1.00
C247   C     0.05002   0.31948   0.14824   0.00000  Uiso   1.00
C248   C     0.11655   0.18422   0.23448   0.00000  Uiso   1.00
C249   C     0.13941   0.15801   0.14073   0.00000  Uiso   1.00
C250   C     0.12222   0.11637   0.11388   0.00000  Uiso   1.00
C251   C     0.13341   0.22949   0.43655   0.00000  Uiso   1.00
C252   C     0.17046   0.24133   0.51271   0.00000  Uiso   1.00
C253   C     0.16747   0.23780   0.65599   0.00000  Uiso   1.00
H254   H     0.02819   0.19189   0.44829   0.00000  Uiso   1.00
H255   H     0.98121   0.25562   0.34604   0.00000  Uiso   1.00
H256   H     0.03075   0.11628   0.32248   0.00000  Uiso   1.00
H257   H     0.06179   0.19959   0.69440   0.00000  Uiso   1.00
H258   H     0.94618   0.33282   0.20413   0.00000  Uiso   1.00
H259   H     0.05064   0.03900   0.15449   0.00000  Uiso   1.00
H260   H     0.11609   0.21467   0.93876   0.00000  Uiso   1.00
H261   H     0.15956   0.24235   0.22858   0.00000  Uiso   1.00
H262   H     0.11979   0.30886   0.11428   0.00000  Uiso   1.00
H263   H     0.16933   0.16951   0.09072   0.00000  Uiso   1.00
H264   H     0.20037   0.25282   0.46264   0.00000  Uiso   1.00
H265   H     0.05866   0.37603   0.01602   0.00000  Uiso   1.00
H266   H     0.16312   0.08220   0.96639   0.00000  Uiso   1.00
H267   H     0.22857   0.25788   0.75065   0.00000  Uiso   1.00
O268   O     0.97389   0.39726   0.03881   0.00000  Uiso   1.00
O269   O     0.11093   0.01176   0.97371   0.00000  Uiso   1.00
O270   O     0.19681   0.24225   0.00264   0.00000  Uiso   1.00
N271   N     0.97811   0.33387   0.17557   0.00000  Uiso   1.00
N272   N     0.07577   0.05916   0.12914   0.00000  Uiso   1.00
N273   N     0.13697   0.22340   0.86236   0.00000  Uiso   1.00
N274   N     0.03863   0.35712   0.07435   0.00000  Uiso   1.00
N275   N     0.13629   0.08241   0.02792   0.00000  Uiso   1.00
N276   N     0.19749   0.24665   0.76114   0.00000  Uiso   1.00
C277   C     0.52582   0.26602   0.21531   0.00000  Uiso   1.00
C278   C     0.51655   0.22467   0.30078   0.00000  Uiso   1.00
C279   C     0.47650   0.20249   0.30762   0.00000  Uiso   1.00
C280   C     0.47474   0.16533   0.39179   0.00000  Uiso   1.00
C281   C     0.45470   0.10334   0.51321   0.00000  Uiso   1.00
C282   C     0.54275   0.30056   0.31741   0.00000  Uiso   1.00
C283   C     0.52473   0.34218   0.33821   0.00000  Uiso   1.00
C284   C     0.54503   0.36890   0.43637   0.00000  Uiso   1.00
C285   C     0.56569   0.42473   0.58354   0.00000  Uiso   1.00
C286   C     0.56482   0.25464   0.12185   0.00000  Uiso   1.00
C287   C     0.56537   0.25766   0.97822   0.00000  Uiso   1.00
C288   C     0.60426   0.24572   0.91172   0.00000  Uiso   1.00
C289   C     0.65919   0.23025   0.75525   0.00000  Uiso   1.00
C290   C     0.59389   0.23947   0.35262   0.00000  Uiso   1.00
C291   C     0.55352   0.21026   0.37537   0.00000  Uiso   1.00
C292   C     0.55181   0.17312   0.45954   0.00000  Uiso   1.00
C293   C     0.51177   0.15088   0.46650   0.00000  Uiso   1.00
C294   C     0.57972   0.28614   0.39200   0.00000  Uiso   1.00
C295   C     0.60004   0.31281   0.49014   0.00000  Uiso   1.00
C296   C     0.58207   0.35445   0.51109   0.00000  Uiso   1.00
C297   C     0.60179   0.24022   0.19643   0.00000  Uiso   1.00
C298   C     0.64068   0.22828   0.13015   0.00000  Uiso   1.00
C299   C     0.64130   0.23128   0.98644   0.00000  Uiso   1.00
H300   H     0.49704   0.27725   0.15725   0.00000  Uiso   1.00
H301   H     0.44790   0.21366   0.24989   0.00000  Uiso   1.00
H302   H     0.49612   0.35333   0.28047   0.00000  Uiso   1.00
H303   H     0.53676   0.26882   0.92054   0.00000  Uiso   1.00
H304   H     0.40971   0.13682   0.38554   0.00000  Uiso   1.00
H305   H     0.51141   0.43132   0.44998   0.00000  Uiso   1.00
H306   H     0.59709   0.25311   0.69098   0.00000  Uiso   1.00
H307   H     0.62268   0.22824   0.41070   0.00000  Uiso   1.00
H308   H     0.58043   0.16196   0.51725   0.00000  Uiso   1.00
H309   H     0.62866   0.30164   0.54783   0.00000  Uiso   1.00
H310   H     0.66929   0.21712   0.18790   0.00000  Uiso   1.00
H311   H     0.51728   0.09486   0.60254   0.00000  Uiso   1.00
H312   H     0.61898   0.38936   0.66698   0.00000  Uiso   1.00
H313   H     0.70466   0.21115   0.90799   0.00000  Uiso   1.00
O314   O     0.43344   0.07313   0.55960   0.00000  Uiso   1.00
O315   O     0.56687   0.45951   0.64412   0.00000  Uiso   1.00
O316   O     0.67928   0.22570   0.64834   0.00000  Uiso   1.00
N317   N     0.44083   0.13603   0.42197   0.00000  Uiso   1.00
N318   N     0.53591   0.41137   0.48223   0.00000  Uiso   1.00
N319   N     0.61602   0.24477   0.77264   0.00000  Uiso   1.00
N320   N     0.49871   0.11345   0.53873   0.00000  Uiso   1.00
N321   N     0.59379   0.38879   0.59900   0.00000  Uiso   1.00
N322   N     0.67390   0.22219   0.88940   0.00000  Uiso   1.00
C323   C     0.94172   0.79655   0.39796   0.00000  Uiso   1.00
C324   C     0.94902   0.75492   0.31195   0.00000  Uiso   1.00
C325   C     0.98888   0.73287   0.29600   0.00000  Uiso   1.00
C326   C     0.98871   0.69540   0.21300   0.00000  Uiso   1.00
C327   C     0.00593   0.63304   0.08923   0.00000  Uiso   1.00
C328   C     0.92211   0.83063   0.29913   0.00000  Uiso   1.00
C329   C     0.93934   0.87224   0.27242   0.00000  Uiso   1.00
C330   C     0.91651   0.89851   0.17865   0.00000  Uiso   1.00
C331   C     0.89193   0.95369   0.03506   0.00000  Uiso   1.00
C332   C     0.90525   0.78536   0.50120   0.00000  Uiso   1.00
C333   C     0.90829   0.78892   0.64441   0.00000  Uiso   1.00
C334   C     0.87126   0.77708   0.72076   0.00000  Uiso   1.00
C335   C     0.82050   0.76198   0.89092   0.00000  Uiso   1.00
C336   C     0.87054   0.76921   0.27892   0.00000  Uiso   1.00
C337   C     0.91036   0.74007   0.24729   0.00000  Uiso   1.00
C338   C     0.91013   0.70262   0.16430   0.00000  Uiso   1.00
C339   C     0.94998   0.68052   0.14824   0.00000  Uiso   1.00
C340   C     0.88345   0.81578   0.23448   0.00000  Uiso   1.00
C341   C     0.86059   0.84199   0.14073   0.00000  Uiso   1.00
C342   C     0.87778   0.88363   0.11388   0.00000  Uiso   1.00
C343   C     0.86659   0.77051   0.43655   0.00000  Uiso   1.00
C344   C     0.82954   0.75867   0.51271   0.00000  Uiso   1.00
C345   C     0.83253   0.76220   0.65599   0.00000  Uiso   1.00
H346   H     0.97181   0.80811   0.44829   0.00000  Uiso   1.00
H347   H     0.01879   0.74438   0.34604   0.00000  Uiso   1.00
H348   H     0.96925   0.88372   0.32248   0.00000  Uiso   1.00
H349   H     0.93821   0.80041   0.69440   0.00000  Uiso   1.00
H350   H     0.05382   0.66718   0.20413   0.00000  Uiso   1.00
H351   H     0.94936   0.96100   0.15449   0.00000  Uiso   1.00
H352   H     0.88391   0.78533   0.93876   0.00000  Uiso   1.00
H353   H     0.84044   0.75765   0.22858   0.00000  Uiso   1.00
H354   H     0.88021   0.69114   0.11428   0.00000  Uiso   1.00
H355   H     0.83067   0.83049   0.09072   0.00000  Uiso   1.00
H356   H     0.79963   0.74718   0.46264   0.00000  Uiso   1.00
H357   H     0.94134   0.62397   0.01602   0.00000  Uiso   1.00
H358   H     0.83688   0.91780   0.96639   0.00000  Uiso   1.00
H359   H     0.77143   0.74212   0.75065   0.00000  Uiso   1.00
O360   O     0.02611   0.60274   0.03881   0.00000  Uiso   1.00
O361   O     0.88907   0.98824   0.97371   0.00000  Uiso   1.00
O362   O     0.80319   0.75775   0.00264   0.00000  Uiso   1.00
N363   N     0.02189   0.66613   0.17557   0.00000  Uiso   1.00
N364   N     0.92423   0.94084   0.12914   0.00000  Uiso   1.00
N365   N     0.86303   0.77660   0.86236   0.00000  Uiso   1.00
N366   N     0.96137   0.64288   0.07435   0.00000  Uiso   1.00
N367   N     0.86371   0.91759   0.02792   0.00000  Uiso   1.00
N368   N     0.80251   0.75335   0.76114   0.00000  Uiso   1.00
C369   C     0.26602   0.47418   0.78469   0.00000  Uiso   1.00
C370   C     0.22467   0.48345   0.69922   0.00000  Uiso   1.00
C371   C     0.20249   0.52350   0.69238   0.00000  Uiso   1.00
C372   C     0.16533   0.52526   0.60821   0.00000  Uiso   1.00
C373   C     0.10334   0.54530   0.48679   0.00000  Uiso   1.00
C374   C     0.30056   0.45725   0.68259   0.00000  Uiso   1.00
C375   C     0.34218   0.47527   0.66179   0.00000  Uiso   1.00
C376   C     0.36890   0.45497   0.56363   0.00000  Uiso   1.00
C377   C     0.42473   0.43431   0.41646   0.00000  Uiso   1.00
C378   C     0.25464   0.43518   0.87815   0.00000  Uiso   1.00
C379   C     0.25766   0.43463   0.02178   0.00000  Uiso   1.00
C380   C     0.24572   0.39574   0.08828   0.00000  Uiso   1.00
C381   C     0.23025   0.34081   0.24475   0.00000  Uiso   1.00
C382   C     0.23947   0.40611   0.64738   0.00000  Uiso   1.00
C383   C     0.21026   0.44648   0.62463   0.00000  Uiso   1.00
C384   C     0.17312   0.44819   0.54046   0.00000  Uiso   1.00
C385   C     0.15088   0.48823   0.53350   0.00000  Uiso   1.00
C386   C     0.28614   0.42028   0.60800   0.00000  Uiso   1.00
C387   C     0.31281   0.39996   0.50986   0.00000  Uiso   1.00
C388   C     0.35445   0.41793   0.48891   0.00000  Uiso   1.00
C389   C     0.24022   0.39821   0.80357   0.00000  Uiso   1.00
C390   C     0.22828   0.35932   0.86985   0.00000  Uiso   1.00
C391   C     0.23128   0.35870   0.01356   0.00000  Uiso   1.00
H392   H     0.27725   0.50296   0.84275   0.00000  Uiso   1.00
H393   H     0.21366   0.55210   0.75011   0.00000  Uiso   1.00
H394   H     0.35333   0.50388   0.71953   0.00000  Uiso   1.00
H395   H     0.26882   0.46324   0.07946   0.00000  Uiso   1.00
H396   H     0.13682   0.59029   0.61446   0.00000  Uiso   1.00
H397   H     0.43132   0.48859   0.55002   0.00000  Uiso   1.00
H398   H     0.25311   0.40291   0.30902   0.00000  Uiso   1.00
H399   H     0.22824   0.37732   0.58930   0.00000  Uiso   1.00
H400   H     0.16196   0.41957   0.48275   0.00000  Uiso   1.00
H401   H     0.30164   0.37134   0.45217   0.00000  Uiso   1.00
H402   H     0.21712   0.33071   0.81210   0.00000  Uiso   1.00
H403   H     0.09486   0.48272   0.39746   0.00000  Uiso   1.00
H404   H     0.38936   0.38102   0.33302   0.00000  Uiso   1.00
H405   H     0.21115   0.29534   0.09201   0.00000  Uiso   1.00
O406   O     0.07313   0.56656   0.44040   0.00000  Uiso   1.00
O407   O     0.45951   0.43313   0.35588   0.00000  Uiso   1.00
O408   O     0.22570   0.32072   0.35166   0.00000  Uiso   1.00
N409   N     0.13603   0.55917   0.57803   0.00000  Uiso   1.00
N410   N     0.41137   0.46409   0.51777   0.00000  Uiso   1.00
N411   N     0.24477   0.38398   0.22736   0.00000  Uiso   1.00
N412   N     0.11345   0.50129   0.46127   0.00000  Uiso   1.00
N413   N     0.38879   0.40621   0.40100   0.00000  Uiso   1.00
N414   N     0.22219   0.32610   0.11060   0.00000  Uiso   1.00
C415   C     0.79655   0.05828   0.60204   0.00000  Uiso   1.00
C416   C     0.75492   0.05098   0.68805   0.00000  Uiso   1.00
C417   C     0.73287   0.01112   0.70400   0.00000  Uiso   1.00
C418   C     0.69540   0.01129   0.78700   0.00000  Uiso   1.00
C419   C     0.63304   0.99407   0.91077   0.00000  Uiso   1.00
C420   C     0.83063   0.07789   0.70087   0.00000  Uiso   1.00
C421   C     0.87224   0.06066   0.72758   0.00000  Uiso   1.00
C422   C     0.89851   0.08349   0.82135   0.00000  Uiso   1.00
C423   C     0.95369   0.10807   0.96494   0.00000  Uiso   1.00
C424   C     0.78536   0.09475   0.49880   0.00000  Uiso   1.00
C425   C     0.78892   0.09171   0.35559   0.00000  Uiso   1.00
C426   C     0.77708   0.12874   0.27924   0.00000  Uiso   1.00
C427   C     0.76198   0.17950   0.10908   0.00000  Uiso   1.00
C428   C     0.76921   0.12946   0.72108   0.00000  Uiso   1.00
C429   C     0.74007   0.08964   0.75271   0.00000  Uiso   1.00
C430   C     0.70262   0.08987   0.83570   0.00000  Uiso   1.00
C431   C     0.68052   0.05002   0.85176   0.00000  Uiso   1.00
C432   C     0.81578   0.11655   0.76552   0.00000  Uiso   1.00
C433   C     0.84199   0.13941   0.85927   0.00000  Uiso   1.00
C434   C     0.88363   0.12222   0.88612   0.00000  Uiso   1.00
C435   C     0.77051   0.13341   0.56345   0.00000  Uiso   1.00
C436   C     0.75867   0.17046   0.48729   0.00000  Uiso   1.00
C437   C     0.76220   0.16747   0.34401   0.00000  Uiso   1.00
H438   H     0.80811   0.02819   0.55171   0.00000  Uiso   1.00
H439   H     0.74438   0.98121   0.65396   0.00000  Uiso   1.00
H440   H     0.88372   0.03075   0.67752   0.00000  Uiso   1.00
H441   H     0.80041   0.06179   0.30560   0.00000  Uiso   1.00
H442   H     0.66718   0.94618   0.79587   0.00000  Uiso   1.00
H443   H     0.96100   0.05064   0.84551   0.00000  Uiso   1.00
H444   H     0.78533   0.11609   0.06124   0.00000  Uiso   1.00
H445   H     0.75765   0.15956   0.77142   0.00000  Uiso   1.00
H446   H     0.69114   0.11979   0.88572   0.00000  Uiso   1.00
H447   H     0.83049   0.16933   0.90928   0.00000  Uiso   1.00
H448   H     0.74718   0.20037   0.53736   0.00000  Uiso   1.00
H449   H     0.62397   0.05866   0.98398   0.00000  Uiso   1.00
H450   H     0.91780   0.16312   0.03361   0.00000  Uiso   1.00
H451   H     0.74212   0.22857   0.24935   0.00000  Uiso   1.00
O452   O     0.60274   0.97389   0.96119   0.00000  Uiso   1.00
O453   O     0.98824   0.11093   0.02629   0.00000  Uiso   1.00
O454   O     0.75775   0.19681   0.99736   0.00000  Uiso   1.00
N455   N     0.66613   0.97811   0.82443   0.00000  Uiso   1.00
N456   N     0.94084   0.07577   0.87086   0.00000  Uiso   1.00
N457   N     0.77660   0.13697   0.13764   0.00000  Uiso   1.00
N458   N     0.64288   0.03863   0.92565   0.00000  Uiso   1.00
N459   N     0.91759   0.13629   0.97208   0.00000  Uiso   1.00
N460   N     0.75335   0.19749   0.23886   0.00000  Uiso   1.00
C461   C     0.73398   0.52582   0.78469   0.00000  Uiso   1.00
C462   C     0.77533   0.51655   0.69922   0.00000  Uiso   1.00
C463   C     0.79751   0.47650   0.69238   0.00000  Uiso   1.00
C464   C     0.83467   0.47474   0.60821   0.00000  Uiso   1.00
C465   C     0.89666   0.45470   0.48679   0.00000  Uiso   1.00
C466   C     0.69944   0.54275   0.68259   0.00000  Uiso   1.00
C467   C     0.65782   0.52473   0.66179   0.00000  Uiso   1.00
C468   C     0.63110   0.54503   0.56363   0.00000  Uiso   1.00
C469   C     0.57527   0.56569   0.41646   0.00000  Uiso   1.00
C470   C     0.74536   0.56482   0.87815   0.00000  Uiso   1.00
C471   C     0.74234   0.56537   0.02178   0.00000  Uiso   1.00
C472   C     0.75428   0.60426   0.08828   0.00000  Uiso   1.00
C473   C     0.76975   0.65919   0.24475   0.00000  Uiso   1.00
C474   C     0.76053   0.59389   0.64738   0.00000  Uiso   1.00
C475   C     0.78974   0.55352   0.62463   0.00000  Uiso   1.00
C476   C     0.82688   0.55181   0.54046   0.00000  Uiso   1.00
C477   C     0.84912   0.51177   0.53350   0.00000  Uiso   1.00
C478   C     0.71386   0.57972   0.60800   0.00000  Uiso   1.00
C479   C     0.68719   0.60004   0.50986   0.00000  Uiso   1.00
C480   C     0.64555   0.58207   0.48891   0.00000  Uiso   1.00
C481   C     0.75978   0.60179   0.80357   0.00000  Uiso   1.00
C482   C     0.77172   0.64068   0.86985   0.00000  Uiso   1.00
C483   C     0.76872   0.64130   0.01356   0.00000  Uiso   1.00
H484   H     0.72275   0.49704   0.84275   0.00000  Uiso   1.00
H485   H     0.78634   0.44790   0.75011   0.00000  Uiso   1.00
H486   H     0.64667   0.49612   0.71953   0.00000  Uiso   1.00
H487   H     0.73118   0.53676   0.07946   0.00000  Uiso   1.00
H488   H     0.86318   0.40971   0.61446   0.00000  Uiso   1.00
H489   H     0.56868   0.51141   0.55002   0.00000  Uiso   1.00
H490   H     0.74689   0.59709   0.30902   0.00000  Uiso   1.00
H491   H     0.77176   0.62268   0.58930   0.00000  Uiso   1.00
H492   H     0.83804   0.58043   0.48275   0.00000  Uiso   1.00
H493   H     0.69836   0.62866   0.45217   0.00000  Uiso   1.00
H494   H     0.78288   0.66929   0.81210   0.00000  Uiso   1.00
H495   H     0.90514   0.51728   0.39746   0.00000  Uiso   1.00
H496   H     0.61064   0.61898   0.33302   0.00000  Uiso   1.00
H497   H     0.78885   0.70466   0.09201   0.00000  Uiso   1.00
O498   O     0.92687   0.43344   0.44040   0.00000  Uiso   1.00
O499   O     0.54049   0.56687   0.35588   0.00000  Uiso   1.00
O500   O     0.77430   0.67928   0.35166   0.00000  Uiso   1.00
N501   N     0.86397   0.44083   0.57803   0.00000  Uiso   1.00
N502   N     0.58863   0.53591   0.51777   0.00000  Uiso   1.00
N503   N     0.75523   0.61602   0.22736   0.00000  Uiso   1.00
N504   N     0.88655   0.49871   0.46127   0.00000  Uiso   1.00
N505   N     0.61121   0.59379   0.40100   0.00000  Uiso   1.00
N506   N     0.77781   0.67390   0.11060   0.00000  Uiso   1.00
C507   C     0.20345   0.94172   0.60204   0.00000  Uiso   1.00
C508   C     0.24508   0.94902   0.68805   0.00000  Uiso   1.00
C509   C     0.26713   0.98888   0.70400   0.00000  Uiso   1.00
C510   C     0.30460   0.98871   0.78700   0.00000  Uiso   1.00
C511   C     0.36696   0.00593   0.91077   0.00000  Uiso   1.00
C512   C     0.16937   0.92211   0.70087   0.00000  Uiso   1.00
C513   C     0.12776   0.93934   0.72758   0.00000  Uiso   1.00
C514   C     0.10149   0.91651   0.82135   0.00000  Uiso   1.00
C515   C     0.04631   0.89193   0.96494   0.00000  Uiso   1.00
C516   C     0.21464   0.90525   0.49880   0.00000  Uiso   1.00
C517   C     0.21108   0.90829   0.35559   0.00000  Uiso   1.00
C518   C     0.22292   0.87126   0.27924   0.00000  Uiso   1.00
C519   C     0.23802   0.82050   0.10908   0.00000  Uiso   1.00
C520   C     0.23079   0.87054   0.72108   0.00000  Uiso   1.00
C521   C     0.25993   0.91036   0.75271   0.00000  Uiso   1.00
C522   C     0.29738   0.91013   0.83570   0.00000  Uiso   1.00
C523   C     0.31948   0.94998   0.85176   0.00000  Uiso   1.00
C524   C     0.18422   0.88345   0.76552   0.00000  Uiso   1.00
C525   C     0.15801   0.86059   0.85927   0.00000  Uiso   1.00
C526   C     0.11637   0.87778   0.88612   0.00000  Uiso   1.00
C527   C     0.22949   0.86659   0.56345   0.00000  Uiso   1.00
C528   C     0.24133   0.82954   0.48729   0.00000  Uiso   1.00
C529   C     0.23780   0.83253   0.34401   0.00000  Uiso   1.00
H530   H     0.19189   0.97181   0.55171   0.00000  Uiso   1.00
H531   H     0.25562   0.01879   0.65396   0.00000  Uiso   1.00
H532   H     0.11628   0.96925   0.67752   0.00000  Uiso   1.00
H533   H     0.19959   0.93821   0.30560   0.00000  Uiso   1.00
H534   H     0.33282   0.05382   0.79587   0.00000  Uiso   1.00
H535   H     0.03900   0.94936   0.84551   0.00000  Uiso   1.00
H536   H     0.21467   0.88391   0.06124   0.00000  Uiso   1.00
H537   H     0.24235   0.84044   0.77142   0.00000  Uiso   1.00
H538   H     0.30886   0.88021   0.88572   0.00000  Uiso   1.00
H539   H     0.16951   0.83067   0.90928   0.00000  Uiso   1.00
H540   H     0.25282   0.79963   0.53736   0.00000  Uiso   1.00
H541   H     0.37603   0.94134   0.98398   0.00000  Uiso   1.00
H542   H     0.08220   0.83688   0.03361   0.00000  Uiso   1.00
H543   H     0.25788   0.77143   0.24935   0.00000  Uiso   1.00
O544   O     0.39726   0.02611   0.96119   0.00000  Uiso   1.00
O545   O     0.01176   0.88907   0.02629   0.00000  Uiso   1.00
O546   O     0.24225   0.80319   0.99736   0.00000  Uiso   1.00
N547   N     0.33387   0.02189   0.82443   0.00000  Uiso   1.00
N548   N     0.05916   0.92423   0.87086   0.00000  Uiso   1.00
N549   N     0.22340   0.86303   0.13764   0.00000  Uiso   1.00
N550   N     0.35712   0.96137   0.92565   0.00000  Uiso   1.00
N551   N     0.08241   0.86371   0.97208   0.00000  Uiso   1.00
N552   N     0.24665   0.80251   0.23886   0.00000  Uiso   1.00
C553   C     0.02582   0.76602   0.78469   0.00000  Uiso   1.00
C554   C     0.01655   0.72467   0.69922   0.00000  Uiso   1.00
C555   C     0.97650   0.70249   0.69238   0.00000  Uiso   1.00
C556   C     0.97474   0.66533   0.60821   0.00000  Uiso   1.00
C557   C     0.95470   0.60334   0.48679   0.00000  Uiso   1.00
C558   C     0.04275   0.80056   0.68259   0.00000  Uiso   1.00
C559   C     0.02473   0.84218   0.66179   0.00000  Uiso   1.00
C560   C     0.04503   0.86890   0.56363   0.00000  Uiso   1.00
C561   C     0.06569   0.92473   0.41646   0.00000  Uiso   1.00
C562   C     0.06482   0.75464   0.87815   0.00000  Uiso   1.00
C563   C     0.06537   0.75766   0.02178   0.00000  Uiso   1.00
C564   C     0.10426   0.74572   0.08828   0.00000  Uiso   1.00
C565   C     0.15919   0.73025   0.24475   0.00000  Uiso   1.00
C566   C     0.09389   0.73947   0.64738   0.00000  Uiso   1.00
C567   C     0.05352   0.71026   0.62463   0.00000  Uiso   1.00
C568   C     0.05181   0.67312   0.54046   0.00000  Uiso   1.00
C569   C     0.01177   0.65088   0.53350   0.00000  Uiso   1.00
C570   C     0.07972   0.78614   0.60800   0.00000  Uiso   1.00
C571   C     0.10004   0.81281   0.50986   0.00000  Uiso   1.00
C572   C     0.08207   0.85445   0.48891   0.00000  Uiso   1.00
C573   C     0.10179   0.74022   0.80357   0.00000  Uiso   1.00
C574   C     0.14068   0.72828   0.86985   0.00000  Uiso   1.00
C575   C     0.14130   0.73128   0.01356   0.00000  Uiso   1.00
H576   H     0.99704   0.77725   0.84275   0.00000  Uiso   1.00
H577   H     0.94790   0.71366   0.75011   0.00000  Uiso   1.00
H578   H     0.99612   0.85333   0.71953   0.00000  Uiso   1.00
H579   H     0.03676   0.76882   0.07946   0.00000  Uiso   1.00
H580   H     0.90971   0.63682   0.61446   0.00000  Uiso   1.00
H581   H     0.01141   0.93132   0.55002   0.00000  Uiso   1.00
H582   H     0.09709   0.75311   0.30902   0.00000  Uiso   1.00
H583   H     0.12268   0.72824   0.58930   0.00000  Uiso   1.00
H584   H     0.08043   0.66196   0.48275   0.00000  Uiso   1.00
H585   H     0.12866   0.80164   0.45217   0.00000  Uiso   1.00
H586   H     0.16929   0.71712   0.81210   0.00000  Uiso   1.00
H587   H     0.01728   0.59486   0.39746   0.00000  Uiso   1.00
H588   H     0.11898   0.88936   0.33302   0.00000  Uiso   1.00
H589   H     0.20466   0.71115   0.09201   0.00000  Uiso   1.00
O590   O     0.93344   0.57313   0.44040   0.00000  Uiso   1.00
O591   O     0.06687   0.95951   0.35588   0.00000  Uiso   1.00
O592   O     0.17928   0.72570   0.35166   0.00000  Uiso   1.00
N593   N     0.94083   0.63603   0.57803   0.00000  Uiso   1.00
N594   N     0.03591   0.91137   0.51777   0.00000  Uiso   1.00
N595   N     0.11602   0.74477   0.22736   0.00000  Uiso   1.00
N596   N     0.99871   0.61345   0.46127   0.00000  Uiso   1.00
N597   N     0.09379   0.88879   0.40100   0.00000  Uiso   1.00
N598   N     0.17390   0.72219   0.11060   0.00000  Uiso   1.00
C599   C     0.44172   0.29655   0.60204   0.00000  Uiso   1.00
C600   C     0.44902   0.25492   0.68805   0.00000  Uiso   1.00
C601   C     0.48888   0.23287   0.70400   0.00000  Uiso   1.00
C602   C     0.48871   0.19540   0.78700   0.00000  Uiso   1.00
C603   C     0.50593   0.13304   0.91077   0.00000  Uiso   1.00
C604   C     0.42211   0.33063   0.70087   0.00000  Uiso   1.00
C605   C     0.43934   0.37224   0.72758   0.00000  Uiso   1.00
C606   C     0.41651   0.39851   0.82135   0.00000  Uiso   1.00
C607   C     0.39193   0.45369   0.96494   0.00000  Uiso   1.00
C608   C     0.40525   0.28536   0.49880   0.00000  Uiso   1.00
C609   C     0.40829   0.28892   0.35559   0.00000  Uiso   1.00
C610   C     0.37126   0.27708   0.27924   0.00000  Uiso   1.00
C611   C     0.32050   0.26198   0.10908   0.00000  Uiso   1.00
C612   C     0.37054   0.26921   0.72108   0.00000  Uiso   1.00
C613   C     0.41036   0.24007   0.75271   0.00000  Uiso   1.00
C614   C     0.41013   0.20262   0.83570   0.00000  Uiso   1.00
C615   C     0.44998   0.18052   0.85176   0.00000  Uiso   1.00
C616   C     0.38345   0.31578   0.76552   0.00000  Uiso   1.00
C617   C     0.36059   0.34199   0.85927   0.00000  Uiso   1.00
C618   C     0.37778   0.38363   0.88612   0.00000  Uiso   1.00
C619   C     0.36659   0.27051   0.56345   0.00000  Uiso   1.00
C620   C     0.32954   0.25867   0.48729   0.00000  Uiso   1.00
C621   C     0.33253   0.26220   0.34401   0.00000  Uiso   1.00
H622   H     0.47181   0.30811   0.55171   0.00000  Uiso   1.00
H623   H     0.51879   0.24438   0.65396   0.00000  Uiso   1.00
H624   H     0.46925   0.38372   0.67752   0.00000  Uiso   1.00
H625   H     0.43821   0.30041   0.30560   0.00000  Uiso   1.00
H626   H     0.55382   0.16718   0.79587   0.00000  Uiso   1.00
H627   H     0.44936   0.46100   0.84551   0.00000  Uiso   1.00
H628   H     0.38391   0.28533   0.06124   0.00000  Uiso   1.00
H629   H     0.34044   0.25765   0.77142   0.00000  Uiso   1.00
H630   H     0.38021   0.19114   0.88572   0.00000  Uiso   1.00
H631   H     0.33067   0.33049   0.90928   0.00000  Uiso   1.00
H632   H     0.29963   0.24718   0.53736   0.00000  Uiso   1.00
H633   H     0.44134   0.12397   0.98398   0.00000  Uiso   1.00
H634   H     0.33688   0.41780   0.03361   0.00000  Uiso   1.00
H635   H     0.27143   0.24212   0.24935   0.00000  Uiso   1.00
O636   O     0.52611   0.10274   0.96119   0.00000  Uiso   1.00
O637   O     0.38907   0.48824   0.02629   0.00000  Uiso   1.00
O638   O     0.30319   0.25775   0.99736   0.00000  Uiso   1.00
N639   N     0.52189   0.16613   0.82443   0.00000  Uiso   1.00
N640   N     0.42423   0.44084   0.87086   0.00000  Uiso   1.00
N641   N     0.36303   0.27660   0.13764   0.00000  Uiso   1.00
N642   N     0.46137   0.14288   0.92565   0.00000  Uiso   1.00
N643   N     0.36371   0.41759   0.97208   0.00000  Uiso   1.00
N644   N     0.30251   0.25335   0.23886   0.00000  Uiso   1.00
C645   C     0.97418   0.23398   0.78469   0.00000  Uiso   1.00
C646   C     0.98345   0.27533   0.69922   0.00000  Uiso   1.00
C647   C     0.02350   0.29751   0.69238   0.00000  Uiso   1.00
C648   C     0.02526   0.33467   0.60821   0.00000  Uiso   1.00
C649   C     0.04530   0.39666   0.48679   0.00000  Uiso   1.00
C650   C     0.95725   0.19944   0.68259   0.00000  Uiso   1.00
C651   C     0.97527   0.15782   0.66179   0.00000  Uiso   1.00
C652   C     0.95497   0.13110   0.56363   0.00000  Uiso   1.00
C653   C     0.93431   0.07527   0.41646   0.00000  Uiso   1.00
C654   C     0.93518   0.24536   0.87815   0.00000  Uiso   1.00
C655   C     0.93463   0.24234   0.02178   0.00000  Uiso   1.00
C656   C     0.89574   0.25428   0.08828   0.00000  Uiso   1.00
C657   C     0.84081   0.26975   0.24475   0.00000  Uiso   1.00
C658   C     0.90611   0.26053   0.64738   0.00000  Uiso   1.00
C659   C     0.94648   0.28974   0.62463   0.00000  Uiso   1.00
C660   C     0.94819   0.32688   0.54046   0.00000  Uiso   1.00
C661   C     0.98823   0.34912   0.53350   0.00000  Uiso   1.00
C662   C     0.92028   0.21386   0.60800   0.00000  Uiso   1.00
C663   C     0.89996   0.18719   0.50986   0.00000  Uiso   1.00
C664   C     0.91793   0.14555   0.48891   0.00000  Uiso   1.00
C665   C     0.89821   0.25978   0.80357   0.00000  Uiso   1.00
C666   C     0.85932   0.27172   0.86985   0.00000  Uiso   1.00
C667   C     0.85870   0.26872   0.01356   0.00000  Uiso   1.00
H668   H     0.00296   0.22275   0.84275   0.00000  Uiso   1.00
H669   H     0.05210   0.28634   0.75011   0.00000  Uiso   1.00
H670   H     0.00388   0.14667   0.71953   0.00000  Uiso   1.00
H671   H     0.96324   0.23118   0.07946   0.00000  Uiso   1.00
H672   H     0.09029   0.36318   0.61446   0.00000  Uiso   1.00
H673   H     0.98859   0.06868   0.55002   0.00000  Uiso   1.00
H674   H     0.90291   0.24689   0.30902   0.00000  Uiso   1.00
H675   H     0.87732   0.27176   0.58930   0.00000  Uiso   1.00
H676   H     0.91957   0.33804   0.48275   0.00000  Uiso   1.00
H677   H     0.87134   0.19836   0.45217   0.00000  Uiso   1.00
H678   H     0.83071   0.28288   0.81210   0.00000  Uiso   1.00
H679   H     0.98272   0.40514   0.39746   0.00000  Uiso   1.00
H680   H     0.88102   0.11064   0.33302   0.00000  Uiso   1.00
H681   H     0.79534   0.28885   0.09201   0.00000  Uiso   1.00
O682   O     0.06656   0.42687   0.44040   0.00000  Uiso   1.00
O683   O     0.93313   0.04049   0.35588   0.00000  Uiso   1.00
O684   O     0.82072   0.27430   0.35166   0.00000  Uiso   1.00
N685   N     0.05917   0.36397   0.57803   0.00000  Uiso   1.00
N686   N     0.96409   0.08863   0.51777   0.00000  Uiso   1.00
N687   N     0.88398   0.25523   0.22736   0.00000  Uiso   1.00
N688   N     0.00129   0.38655   0.46127   0.00000  Uiso   1.00
N689   N     0.90621   0.11121   0.40100   0.00000  Uiso   1.00
N690   N     0.82610   0.27781   0.11060   0.00000  Uiso   1.00
C691   C     0.55828   0.70345   0.60204   0.00000  Uiso   1.00
C692   C     0.55098   0.74508   0.68805   0.00000  Uiso   1.00
C693   C     0.51112   0.76713   0.70400   0.00000  Uiso   1.00
C694   C     0.51129   0.80460   0.78700   0.00000  Uiso   1.00
C695   C     0.49407   0.86696   0.91077   0.00000  Uiso   1.00
C696   C     0.57789   0.66937   0.70087   0.00000  Uiso   1.00
C697   C     0.56066   0.62776   0.72758   0.00000  Uiso   1.00
C698   C     0.58349   0.60149   0.82135   0.00000  Uiso   1.00
C699   C     0.60807   0.54631   0.96494   0.00000  Uiso   1.00
C700   C     0.59475   0.71464   0.49880   0.00000  Uiso   1.00
C701   C     0.59171   0.71108   0.35559   0.00000  Uiso   1.00
C702   C     0.62874   0.72292   0.27924   0.00000  Uiso   1.00
C703   C     0.67950   0.73802   0.10908   0.00000  Uiso   1.00
C704   C     0.62946   0.73079   0.72108   0.00000  Uiso   1.00
C705   C     0.58964   0.75993   0.75271   0.00000  Uiso   1.00
C706   C     0.58987   0.79738   0.83570   0.00000  Uiso   1.00
C707   C     0.55002   0.81948   0.85176   0.00000  Uiso   1.00
C708   C     0.61655   0.68422   0.76552   0.00000  Uiso   1.00
C709   C     0.63941   0.65801   0.85927   0.00000  Uiso   1.00
C710   C     0.62222   0.61637   0.88612   0.00000  Uiso   1.00
C711   C     0.63341   0.72949   0.56345   0.00000  Uiso   1.00
C712   C     0.67046   0.74133   0.48729   0.00000  Uiso   1.00
C713   C     0.66747   0.73780   0.34401   0.00000  Uiso   1.00
H714   H     0.52819   0.69189   0.55171   0.00000  Uiso   1.00
H715   H     0.48121   0.75562   0.65396   0.00000  Uiso   1.00
H716   H     0.53075   0.61628   0.67752   0.00000  Uiso   1.00
H717   H     0.56179   0.69959   0.30560   0.00000  Uiso   1.00
H718   H     0.44618   0.83282   0.79587   0.00000  Uiso   1.00
H719   H     0.55064   0.53900   0.84551   0.00000  Uiso   1.00
H720   H     0.61609   0.71467   0.06124   0.00000  Uiso   1.00
H721   H     0.65956   0.74235   0.77142   0.00000  Uiso   1.00
H722   H     0.61979   0.80886   0.88572   0.00000  Uiso   1.00
H723   H     0.66933   0.66951   0.90928   0.00000  Uiso   1.00
H724   H     0.70037   0.75282   0.53736   0.00000  Uiso   1.00
H725   H     0.55866   0.87603   0.98398   0.00000  Uiso   1.00
H726   H     0.66312   0.58220   0.03361   0.00000  Uiso   1.00
H727   H     0.72857   0.75788   0.24935   0.00000  Uiso   1.00
O728   O     0.47389   0.89726   0.96119   0.00000  Uiso   1.00
O729   O     0.61093   0.51176   0.02629   0.00000  Uiso   1.00
O730   O     0.69681   0.74225   0.99736   0.00000  Uiso   1.00
N731   N     0.47811   0.83387   0.82443   0.00000  Uiso   1.00
N732   N     0.57577   0.55916   0.87086   0.00000  Uiso   1.00
N733   N     0.63697   0.72340   0.13764   0.00000  Uiso   1.00
N734   N     0.53863   0.85712   0.92565   0.00000  Uiso   1.00
N735   N     0.63629   0.58241   0.97208   0.00000  Uiso   1.00
N736   N     0.69749   0.74665   0.23886   0.00000  Uiso   1.00
