data_job_00251
_audit_creation_date              2018-12-19
_audit_creation_method            'Materials Studio'
_symmetry_space_group_name_H-M    'P1'
_symmetry_Int_Tables_number       1
_symmetry_cell_setting            triclinic
loop_
_symmetry_equiv_pos_as_xyz
  x,y,z
_cell_length_a                    30.7374
_cell_length_b                    27.3618
_cell_length_c                    12.4290
_cell_angle_alpha                 90.0000
_cell_angle_beta                  86.5758
_cell_angle_gamma                 90.0000
loop_
_atom_site_label
_atom_site_type_symbol
_atom_site_fract_x
_atom_site_fract_y
_atom_site_fract_z
_atom_site_U_iso_or_equiv
_atom_site_adp_type
_atom_site_occupancy
C1     C     0.35935   0.66291   0.41682   0.00000  Uiso   1.00
C2     C     0.31335   0.64191   0.42821   0.00000  Uiso   1.00
C3     C     0.30181   0.59403   0.40653   0.00000  Uiso   1.00
C4     C     0.25800   0.58202   0.42195   0.00000  Uiso   1.00
C5     C     0.19131   0.54414   0.43413   0.00000  Uiso   1.00
C6     C     0.35713   0.70642   0.34067   0.00000  Uiso   1.00
C7     C     0.38241   0.71279   0.24540   0.00000  Uiso   1.00
C8     C     0.37545   0.75508   0.18714   0.00000  Uiso   1.00
C9     C     0.37675   0.81737   0.06345   0.00000  Uiso   1.00
C10    C     0.36831   0.68413   0.52677   0.00000  Uiso   1.00
C11    C     0.40299   0.67176   0.58796   0.00000  Uiso   1.00
C12    C     0.40545   0.69530   0.68638   0.00000  Uiso   1.00
C13    C     0.42410   0.72298   0.85165   0.00000  Uiso   1.00
C14    C     0.30206   0.72671   0.48277   0.00000  Uiso   1.00
C15    C     0.28224   0.67656   0.46403   0.00000  Uiso   1.00
C16    C     0.23843   0.66462   0.47950   0.00000  Uiso   1.00
C17    C     0.22683   0.61673   0.45784   0.00000  Uiso   1.00
C18    C     0.32602   0.74107   0.37649   0.00000  Uiso   1.00
C19    C     0.31902   0.78337   0.31836   0.00000  Uiso   1.00
C20    C     0.34428   0.78980   0.22302   0.00000  Uiso   1.00
C21    C     0.33719   0.71878   0.56259   0.00000  Uiso   1.00
C22    C     0.33960   0.74235   0.66093   0.00000  Uiso   1.00
C23    C     0.37427   0.73002   0.72227   0.00000  Uiso   1.00
H24    H     0.38358   0.63594   0.38893   0.00000  Uiso   1.00
H25    H     0.32591   0.56723   0.37880   0.00000  Uiso   1.00
H26    H     0.40649   0.68596   0.21770   0.00000  Uiso   1.00
H27    H     0.92706   0.14495   0.56022   0.00000  Uiso   1.00
H28    H     0.24824   0.50634   0.38333   0.00000  Uiso   1.00
H29    H     0.41816   0.75671   0.04366   0.00000  Uiso   1.00
H30    H     0.96155   0.17021   0.76592   0.00000  Uiso   1.00
H31    H     0.27784   0.75369   0.51066   0.00000  Uiso   1.00
H32    H     0.21436   0.69144   0.50722   0.00000  Uiso   1.00
H33    H     0.29494   0.81018   0.34611   0.00000  Uiso   1.00
H34    H     0.31552   0.76916   0.68863   0.00000  Uiso   1.00
H35    H     0.15770   0.60715   0.48755   0.00000  Uiso   1.00
H36    H     0.32763   0.85753   0.14788   0.00000  Uiso   1.00
H37    H     0.37101   0.77103   0.87015   0.00000  Uiso   1.00
O38    O     0.16312   0.51368   0.43094   0.00000  Uiso   1.00
O39    O     0.88606   0.34216   0.98533   0.00000  Uiso   1.00
O40    O     0.44298   0.72868   0.93292   0.00000  Uiso   1.00
N41    N     0.23564   0.53860   0.40835   0.00000  Uiso   1.00
N42    N     0.39451   0.77268   0.09077   0.00000  Uiso   1.00
N43    N     0.43508   0.69183   0.76601   0.00000  Uiso   1.00
N44    N     0.18693   0.59285   0.46443   0.00000  Uiso   1.00
N45    N     0.34579   0.82693   0.14686   0.00000  Uiso   1.00
N46    N     0.38636   0.74608   0.82210   0.00000  Uiso   1.00
C47    C     0.66229   0.80037   0.59491   0.00000  Uiso   1.00
C48    C     0.70318   0.83147   0.60213   0.00000  Uiso   1.00
C49    C     0.70570   0.88167   0.58712   0.00000  Uiso   1.00
C50    C     0.74611   0.90334   0.59714   0.00000  Uiso   1.00
C51    C     0.80405   0.95582   0.60462   0.00000  Uiso   1.00
C52    C     0.67370   0.76118   0.51066   0.00000  Uiso   1.00
C53    C     0.65143   0.75229   0.41875   0.00000  Uiso   1.00
C54    C     0.66701   0.71478   0.35177   0.00000  Uiso   1.00
C55    C     0.67916   0.65812   0.21729   0.00000  Uiso   1.00
C56    C     0.65608   0.77366   0.70240   0.00000  Uiso   1.00
C57    C     0.61899   0.77524   0.77171   0.00000  Uiso   1.00
C58    C     0.61973   0.74823   0.86615   0.00000  Uiso   1.00
C59    C     0.60453   0.71093   0.02938   0.00000  Uiso   1.00
C60    C     0.72955   0.74958   0.63939   0.00000  Uiso   1.00
C61    C     0.73971   0.80388   0.62629   0.00000  Uiso   1.00
C62    C     0.78012   0.82548   0.63633   0.00000  Uiso   1.00
C63    C     0.78270   0.87571   0.62134   0.00000  Uiso   1.00
C64    C     0.71023   0.73360   0.53482   0.00000  Uiso   1.00
C65    C     0.72584   0.69609   0.46796   0.00000  Uiso   1.00
C66    C     0.70361   0.68715   0.37597   0.00000  Uiso   1.00
C67    C     0.69261   0.74607   0.72657   0.00000  Uiso   1.00
C68    C     0.69341   0.71905   0.82092   0.00000  Uiso   1.00
C69    C     0.65633   0.72059   0.89035   0.00000  Uiso   1.00
H70    H     0.63384   0.82185   0.57610   0.00000  Uiso   1.00
H71    H     0.17742   0.40301   0.56842   0.00000  Uiso   1.00
H72    H     0.62315   0.77364   0.40008   0.00000  Uiso   1.00
H73    H     0.59073   0.79659   0.75298   0.00000  Uiso   1.00
H74    H     0.24186   0.48082   0.57052   0.00000  Uiso   1.00
H75    H     0.62742   0.70803   0.21560   0.00000  Uiso   1.00
H76    H     0.55903   0.75642   0.95975   0.00000  Uiso   1.00
H77    H     0.75799   0.72810   0.65820   0.00000  Uiso   1.00
H78    H     0.80839   0.80412   0.65503   0.00000  Uiso   1.00
H79    H     0.75412   0.67475   0.48669   0.00000  Uiso   1.00
H80    H     0.72169   0.69771   0.83959   0.00000  Uiso   1.00
H81    H     0.84815   0.90056   0.64081   0.00000  Uiso   1.00
H82    H     0.73371   0.62777   0.28588   0.00000  Uiso   1.00
H83    H     0.66533   0.67617   0.03004   0.00000  Uiso   1.00
O84    O     0.82592   0.99238   0.60207   0.00000  Uiso   1.00
O85    O     0.67577   0.63449   0.13643   0.00000  Uiso   1.00
O86    O     0.58605   0.69799   0.11274   0.00000  Uiso   1.00
N87    N     0.75996   0.95150   0.58752   0.00000  Uiso   1.00
N88    N     0.65296   0.69646   0.25568   0.00000  Uiso   1.00
N89    N     0.58903   0.74170   0.95139   0.00000  Uiso   1.00
N90    N     0.81715   0.90831   0.62535   0.00000  Uiso   1.00
N91    N     0.71016   0.65327   0.29350   0.00000  Uiso   1.00
N92    N     0.64622   0.69851   0.98921   0.00000  Uiso   1.00
C93    C     0.94834   0.61572   0.06999   0.00000  Uiso   1.00
C94    C     0.92430   0.56712   0.06444   0.00000  Uiso   1.00
C95    C     0.88021   0.55983   0.09004   0.00000  Uiso   1.00
C96    C     0.86446   0.51261   0.07972   0.00000  Uiso   1.00
C97    C     0.82297   0.44299   0.07643   0.00000  Uiso   1.00
C98    C     0.98543   0.60724   0.14399   0.00000  Uiso   1.00
C99    C     0.99274   0.63369   0.23647   0.00000  Uiso   1.00
C100   C     0.02845   0.62025   0.29310   0.00000  Uiso   1.00
C101   C     0.08190   0.61294   0.41328   0.00000  Uiso   1.00
C102   C     0.96983   0.62423   0.95779   0.00000  Uiso   1.00
C103   C     0.96403   0.66497   0.89370   0.00000  Uiso   1.00
C104   C     0.98661   0.66584   0.79357   0.00000  Uiso   1.00
C105   C     0.01582   0.68491   0.62463   0.00000  Uiso   1.00
C106   C     0.99875   0.54482   0.00614   0.00000  Uiso   1.00
C107   C     0.95169   0.52861   0.02977   0.00000  Uiso   1.00
C108   C     0.93599   0.48139   0.01940   0.00000  Uiso   1.00
C109   C     0.89189   0.47403   0.04497   0.00000  Uiso   1.00
C110   C     0.01282   0.56873   0.10932   0.00000  Uiso   1.00
C111   C     0.04852   0.55525   0.16583   0.00000  Uiso   1.00
C112   C     0.05589   0.58167   0.25836   0.00000  Uiso   1.00
C113   C     0.99721   0.58572   0.92310   0.00000  Uiso   1.00
C114   C     0.01981   0.58653   0.82306   0.00000  Uiso   1.00
C115   C     0.01404   0.62726   0.75883   0.00000  Uiso   1.00
H116   H     0.92702   0.64570   0.09699   0.00000  Uiso   1.00
H117   H     0.85903   0.58964   0.11688   0.00000  Uiso   1.00
H118   H     0.97155   0.66349   0.26328   0.00000  Uiso   1.00
H119   H     0.94283   0.69477   0.92056   0.00000  Uiso   1.00
H120   H     0.79574   0.51050   0.12367   0.00000  Uiso   1.00
H121   H     0.03299   0.66623   0.43234   0.00000  Uiso   1.00
H122   H     0.97244   0.73218   0.70966   0.00000  Uiso   1.00
H123   H     0.02008   0.51484   0.97914   0.00000  Uiso   1.00
H124   H     0.95719   0.45160   0.99256   0.00000  Uiso   1.00
H125   H     0.06971   0.52545   0.13896   0.00000  Uiso   1.00
H126   H     0.04100   0.55672   0.79625   0.00000  Uiso   1.00
H127   H     0.87541   0.39845   0.02278   0.00000  Uiso   1.00
H128   H     0.11267   0.55419   0.33144   0.00000  Uiso   1.00
H129   H     0.05212   0.62013   0.60876   0.00000  Uiso   1.00
O130   O     0.29253   0.91523   0.08421   0.00000  Uiso   1.00
O131   O     0.10381   0.61955   0.48916   0.00000  Uiso   1.00
O132   O     0.02437   0.70607   0.54102   0.00000  Uiso   1.00
N133   N     0.82311   0.49281   0.09807   0.00000  Uiso   1.00
N134   N     0.04493   0.63840   0.38666   0.00000  Uiso   1.00
N135   N     0.98833   0.70007   0.71103   0.00000  Uiso   1.00
N136   N     0.86598   0.43252   0.04377   0.00000  Uiso   1.00
N137   N     0.08780   0.57811   0.33237   0.00000  Uiso   1.00
N138   N     0.03120   0.63978   0.65673   0.00000  Uiso   1.00
C139   C     0.06662   0.87416   0.20113   0.00000  Uiso   1.00
C140   C     0.09804   0.91719   0.18865   0.00000  Uiso   1.00
C141   C     0.14244   0.91557   0.20306   0.00000  Uiso   1.00
C142   C     0.16553   0.95889   0.18791   0.00000  Uiso   1.00
C143   C     0.71745   0.51912   0.17292   0.00000  Uiso   1.00
C144   C     0.03091   0.88994   0.28436   0.00000  Uiso   1.00
C145   C     0.01887   0.86540   0.37923   0.00000  Uiso   1.00
C146   C     0.98544   0.88578   0.44463   0.00000  Uiso   1.00
C147   C     0.93312   0.90368   0.57820   0.00000  Uiso   1.00
C148   C     0.04488   0.87004   0.09438   0.00000  Uiso   1.00
C149   C     0.04457   0.82877   0.02953   0.00000  Uiso   1.00
C150   C     0.02289   0.83239   0.93499   0.00000  Uiso   1.00
C151   C     0.99227   0.81939   0.77359   0.00000  Uiso   1.00
C152   C     0.02865   0.95397   0.14858   0.00000  Uiso   1.00
C153   C     0.07742   0.96054   0.16011   0.00000  Uiso   1.00
C154   C     0.10044   0.00387   0.14492   0.00000  Uiso   1.00
C155   C     0.14487   0.00231   0.15931   0.00000  Uiso   1.00
C156   C     0.01029   0.93329   0.25582   0.00000  Uiso   1.00
C157   C     0.97687   0.95370   0.32109   0.00000  Uiso   1.00
C158   C     0.96478   0.92921   0.41604   0.00000  Uiso   1.00
C159   C     0.02426   0.91339   0.06583   0.00000  Uiso   1.00
C160   C     0.00258   0.91707   0.97139   0.00000  Uiso   1.00
C161   C     0.00224   0.87581   0.90640   0.00000  Uiso   1.00
H162   H     0.08267   0.84041   0.22335   0.00000  Uiso   1.00
H163   H     0.15839   0.88202   0.22516   0.00000  Uiso   1.00
H164   H     0.03483   0.83186   0.40129   0.00000  Uiso   1.00
H165   H     0.06053   0.79523   0.05164   0.00000  Uiso   1.00
H166   H     0.23324   0.94727   0.21461   0.00000  Uiso   1.00
H167   H     0.97270   0.84149   0.58598   0.00000  Uiso   1.00
H168   H     0.02690   0.76425   0.84868   0.00000  Uiso   1.00
H169   H     0.01260   0.98772   0.12636   0.00000  Uiso   1.00
H170   H     0.08448   0.03741   0.12284   0.00000  Uiso   1.00
H171   H     0.96092   0.98725   0.29898   0.00000  Uiso   1.00
H172   H     0.98662   0.95062   0.94933   0.00000  Uiso   1.00
H173   H     0.67325   0.57339   0.13157   0.00000  Uiso   1.00
H174   H     0.91271   0.96761   0.50294   0.00000  Uiso   1.00
H175   H     0.96691   0.89037   0.76563   0.00000  Uiso   1.00
O176   O     0.75179   0.54036   0.17256   0.00000  Uiso   1.00
O177   O     0.90997   0.90158   0.65977   0.00000  Uiso   1.00
O178   O     0.98108   0.80025   0.69244   0.00000  Uiso   1.00
N179   N     0.20926   0.97013   0.19553   0.00000  Uiso   1.00
N180   N     0.96567   0.87124   0.54275   0.00000  Uiso   1.00
N181   N     0.01634   0.79902   0.85344   0.00000  Uiso   1.00
N182   N     0.17698   0.03799   0.15084   0.00000  Uiso   1.00
N183   N     0.93339   0.93910   0.49806   0.00000  Uiso   1.00
N184   N     0.98406   0.86689   0.80876   0.00000  Uiso   1.00
C185   C     0.85935   0.16291   0.41682   0.00000  Uiso   1.00
C186   C     0.81335   0.14191   0.42821   0.00000  Uiso   1.00
C187   C     0.80181   0.09403   0.40653   0.00000  Uiso   1.00
C188   C     0.75800   0.08202   0.42195   0.00000  Uiso   1.00
C189   C     0.69131   0.04414   0.43413   0.00000  Uiso   1.00
C190   C     0.85713   0.20642   0.34067   0.00000  Uiso   1.00
C191   C     0.88241   0.21279   0.24540   0.00000  Uiso   1.00
C192   C     0.87545   0.25508   0.18714   0.00000  Uiso   1.00
C193   C     0.87675   0.31737   0.06345   0.00000  Uiso   1.00
C194   C     0.86831   0.18413   0.52677   0.00000  Uiso   1.00
C195   C     0.90299   0.17176   0.58796   0.00000  Uiso   1.00
C196   C     0.90545   0.19530   0.68638   0.00000  Uiso   1.00
C197   C     0.92410   0.22298   0.85165   0.00000  Uiso   1.00
C198   C     0.80206   0.22671   0.48277   0.00000  Uiso   1.00
C199   C     0.78224   0.17656   0.46403   0.00000  Uiso   1.00
C200   C     0.73843   0.16462   0.47950   0.00000  Uiso   1.00
C201   C     0.72683   0.11673   0.45784   0.00000  Uiso   1.00
C202   C     0.82602   0.24107   0.37649   0.00000  Uiso   1.00
C203   C     0.81902   0.28337   0.31836   0.00000  Uiso   1.00
C204   C     0.84428   0.28980   0.22302   0.00000  Uiso   1.00
C205   C     0.83719   0.21878   0.56259   0.00000  Uiso   1.00
C206   C     0.83960   0.24235   0.66093   0.00000  Uiso   1.00
C207   C     0.87427   0.23002   0.72227   0.00000  Uiso   1.00
H208   H     0.88358   0.13594   0.38893   0.00000  Uiso   1.00
H209   H     0.82591   0.06723   0.37880   0.00000  Uiso   1.00
H210   H     0.90649   0.18596   0.21770   0.00000  Uiso   1.00
H211   H     0.42706   0.64495   0.56022   0.00000  Uiso   1.00
H212   H     0.74824   0.00634   0.38333   0.00000  Uiso   1.00
H213   H     0.91816   0.25671   0.04366   0.00000  Uiso   1.00
H214   H     0.46155   0.67021   0.76592   0.00000  Uiso   1.00
H215   H     0.77784   0.25369   0.51066   0.00000  Uiso   1.00
H216   H     0.71436   0.19144   0.50722   0.00000  Uiso   1.00
H217   H     0.79494   0.31018   0.34611   0.00000  Uiso   1.00
H218   H     0.81552   0.26916   0.68863   0.00000  Uiso   1.00
H219   H     0.65770   0.10715   0.48755   0.00000  Uiso   1.00
H220   H     0.82763   0.35753   0.14788   0.00000  Uiso   1.00
H221   H     0.87101   0.27103   0.87015   0.00000  Uiso   1.00
O222   O     0.66312   0.01368   0.43094   0.00000  Uiso   1.00
O223   O     0.38606   0.84216   0.98533   0.00000  Uiso   1.00
O224   O     0.94298   0.22868   0.93292   0.00000  Uiso   1.00
N225   N     0.73564   0.03860   0.40835   0.00000  Uiso   1.00
N226   N     0.89451   0.27268   0.09077   0.00000  Uiso   1.00
N227   N     0.93508   0.19183   0.76601   0.00000  Uiso   1.00
N228   N     0.68693   0.09285   0.46443   0.00000  Uiso   1.00
N229   N     0.84579   0.32693   0.14686   0.00000  Uiso   1.00
N230   N     0.88636   0.24608   0.82210   0.00000  Uiso   1.00
C231   C     0.16229   0.30037   0.59491   0.00000  Uiso   1.00
C232   C     0.20318   0.33147   0.60213   0.00000  Uiso   1.00
C233   C     0.20570   0.38167   0.58712   0.00000  Uiso   1.00
C234   C     0.24611   0.40334   0.59714   0.00000  Uiso   1.00
C235   C     0.30405   0.45582   0.60462   0.00000  Uiso   1.00
C236   C     0.17370   0.26118   0.51066   0.00000  Uiso   1.00
C237   C     0.15143   0.25229   0.41875   0.00000  Uiso   1.00
C238   C     0.16701   0.21478   0.35177   0.00000  Uiso   1.00
C239   C     0.17916   0.15812   0.21729   0.00000  Uiso   1.00
C240   C     0.15608   0.27366   0.70240   0.00000  Uiso   1.00
C241   C     0.11899   0.27524   0.77171   0.00000  Uiso   1.00
C242   C     0.11973   0.24823   0.86615   0.00000  Uiso   1.00
C243   C     0.10453   0.21093   0.02938   0.00000  Uiso   1.00
C244   C     0.22955   0.24958   0.63939   0.00000  Uiso   1.00
C245   C     0.23971   0.30388   0.62629   0.00000  Uiso   1.00
C246   C     0.28012   0.32548   0.63633   0.00000  Uiso   1.00
C247   C     0.28270   0.37571   0.62134   0.00000  Uiso   1.00
C248   C     0.21023   0.23360   0.53482   0.00000  Uiso   1.00
C249   C     0.22584   0.19609   0.46796   0.00000  Uiso   1.00
C250   C     0.20361   0.18715   0.37597   0.00000  Uiso   1.00
C251   C     0.19261   0.24607   0.72657   0.00000  Uiso   1.00
C252   C     0.19341   0.21905   0.82092   0.00000  Uiso   1.00
C253   C     0.15633   0.22059   0.89035   0.00000  Uiso   1.00
H254   H     0.13384   0.32185   0.57610   0.00000  Uiso   1.00
H255   H     0.67742   0.90301   0.56842   0.00000  Uiso   1.00
H256   H     0.12315   0.27364   0.40008   0.00000  Uiso   1.00
H257   H     0.09073   0.29659   0.75298   0.00000  Uiso   1.00
H258   H     0.74186   0.98082   0.57052   0.00000  Uiso   1.00
H259   H     0.12742   0.20803   0.21560   0.00000  Uiso   1.00
H260   H     0.05903   0.25642   0.95975   0.00000  Uiso   1.00
H261   H     0.25799   0.22810   0.65820   0.00000  Uiso   1.00
H262   H     0.30839   0.30412   0.65503   0.00000  Uiso   1.00
H263   H     0.25412   0.17475   0.48669   0.00000  Uiso   1.00
H264   H     0.22169   0.19771   0.83959   0.00000  Uiso   1.00
H265   H     0.34815   0.40056   0.64081   0.00000  Uiso   1.00
H266   H     0.23371   0.12777   0.28588   0.00000  Uiso   1.00
H267   H     0.16533   0.17617   0.03004   0.00000  Uiso   1.00
O268   O     0.32592   0.49238   0.60207   0.00000  Uiso   1.00
O269   O     0.17577   0.13449   0.13643   0.00000  Uiso   1.00
O270   O     0.08605   0.19799   0.11274   0.00000  Uiso   1.00
N271   N     0.25996   0.45150   0.58752   0.00000  Uiso   1.00
N272   N     0.15296   0.19646   0.25568   0.00000  Uiso   1.00
N273   N     0.08903   0.24170   0.95139   0.00000  Uiso   1.00
N274   N     0.31715   0.40831   0.62535   0.00000  Uiso   1.00
N275   N     0.21016   0.15327   0.29350   0.00000  Uiso   1.00
N276   N     0.14622   0.19851   0.98921   0.00000  Uiso   1.00
C277   C     0.44834   0.11572   0.06999   0.00000  Uiso   1.00
C278   C     0.42430   0.06712   0.06444   0.00000  Uiso   1.00
C279   C     0.38021   0.05983   0.09004   0.00000  Uiso   1.00
C280   C     0.36446   0.01261   0.07972   0.00000  Uiso   1.00
C281   C     0.32297   0.94299   0.07643   0.00000  Uiso   1.00
C282   C     0.48543   0.10724   0.14399   0.00000  Uiso   1.00
C283   C     0.49274   0.13369   0.23647   0.00000  Uiso   1.00
C284   C     0.52845   0.12025   0.29310   0.00000  Uiso   1.00
C285   C     0.58190   0.11294   0.41328   0.00000  Uiso   1.00
C286   C     0.46983   0.12423   0.95779   0.00000  Uiso   1.00
C287   C     0.46403   0.16497   0.89370   0.00000  Uiso   1.00
C288   C     0.48661   0.16584   0.79357   0.00000  Uiso   1.00
C289   C     0.51582   0.18491   0.62463   0.00000  Uiso   1.00
C290   C     0.49875   0.04482   0.00614   0.00000  Uiso   1.00
C291   C     0.45169   0.02861   0.02977   0.00000  Uiso   1.00
C292   C     0.43599   0.98139   0.01940   0.00000  Uiso   1.00
C293   C     0.39189   0.97403   0.04497   0.00000  Uiso   1.00
C294   C     0.51282   0.06873   0.10932   0.00000  Uiso   1.00
C295   C     0.54852   0.05525   0.16583   0.00000  Uiso   1.00
C296   C     0.55589   0.08167   0.25836   0.00000  Uiso   1.00
C297   C     0.49721   0.08572   0.92310   0.00000  Uiso   1.00
C298   C     0.51981   0.08653   0.82306   0.00000  Uiso   1.00
C299   C     0.51404   0.12726   0.75883   0.00000  Uiso   1.00
H300   H     0.42702   0.14570   0.09699   0.00000  Uiso   1.00
H301   H     0.35903   0.08964   0.11688   0.00000  Uiso   1.00
H302   H     0.47155   0.16349   0.26328   0.00000  Uiso   1.00
H303   H     0.44283   0.19477   0.92056   0.00000  Uiso   1.00
H304   H     0.29574   0.01050   0.12367   0.00000  Uiso   1.00
H305   H     0.53299   0.16623   0.43234   0.00000  Uiso   1.00
H306   H     0.47244   0.23218   0.70966   0.00000  Uiso   1.00
H307   H     0.52008   0.01484   0.97914   0.00000  Uiso   1.00
H308   H     0.45719   0.95160   0.99256   0.00000  Uiso   1.00
H309   H     0.56971   0.02545   0.13896   0.00000  Uiso   1.00
H310   H     0.54100   0.05672   0.79625   0.00000  Uiso   1.00
H311   H     0.37541   0.89845   0.02278   0.00000  Uiso   1.00
H312   H     0.61267   0.05419   0.33144   0.00000  Uiso   1.00
H313   H     0.55212   0.12013   0.60876   0.00000  Uiso   1.00
O314   O     0.79253   0.41523   0.08421   0.00000  Uiso   1.00
O315   O     0.60381   0.11955   0.48916   0.00000  Uiso   1.00
O316   O     0.52437   0.20607   0.54102   0.00000  Uiso   1.00
N317   N     0.32311   0.99281   0.09807   0.00000  Uiso   1.00
N318   N     0.54493   0.13840   0.38666   0.00000  Uiso   1.00
N319   N     0.48833   0.20007   0.71103   0.00000  Uiso   1.00
N320   N     0.36598   0.93252   0.04377   0.00000  Uiso   1.00
N321   N     0.58780   0.07811   0.33237   0.00000  Uiso   1.00
N322   N     0.53120   0.13978   0.65673   0.00000  Uiso   1.00
C323   C     0.56662   0.37416   0.20113   0.00000  Uiso   1.00
C324   C     0.59804   0.41719   0.18865   0.00000  Uiso   1.00
C325   C     0.64244   0.41557   0.20306   0.00000  Uiso   1.00
C326   C     0.66553   0.45889   0.18791   0.00000  Uiso   1.00
C327   C     0.21745   0.01912   0.17292   0.00000  Uiso   1.00
C328   C     0.53091   0.38994   0.28436   0.00000  Uiso   1.00
C329   C     0.51887   0.36540   0.37923   0.00000  Uiso   1.00
C330   C     0.48544   0.38578   0.44463   0.00000  Uiso   1.00
C331   C     0.43312   0.40368   0.57820   0.00000  Uiso   1.00
C332   C     0.54488   0.37004   0.09438   0.00000  Uiso   1.00
C333   C     0.54457   0.32877   0.02953   0.00000  Uiso   1.00
C334   C     0.52289   0.33239   0.93499   0.00000  Uiso   1.00
C335   C     0.49227   0.31939   0.77359   0.00000  Uiso   1.00
C336   C     0.52865   0.45397   0.14858   0.00000  Uiso   1.00
C337   C     0.57742   0.46054   0.16011   0.00000  Uiso   1.00
C338   C     0.60044   0.50387   0.14492   0.00000  Uiso   1.00
C339   C     0.64487   0.50231   0.15931   0.00000  Uiso   1.00
C340   C     0.51029   0.43329   0.25582   0.00000  Uiso   1.00
C341   C     0.47687   0.45370   0.32109   0.00000  Uiso   1.00
C342   C     0.46478   0.42921   0.41604   0.00000  Uiso   1.00
C343   C     0.52426   0.41339   0.06583   0.00000  Uiso   1.00
C344   C     0.50258   0.41707   0.97139   0.00000  Uiso   1.00
C345   C     0.50224   0.37581   0.90640   0.00000  Uiso   1.00
H346   H     0.58267   0.34041   0.22335   0.00000  Uiso   1.00
H347   H     0.65839   0.38202   0.22516   0.00000  Uiso   1.00
H348   H     0.53483   0.33186   0.40129   0.00000  Uiso   1.00
H349   H     0.56053   0.29523   0.05164   0.00000  Uiso   1.00
H350   H     0.73324   0.44727   0.21461   0.00000  Uiso   1.00
H351   H     0.47270   0.34149   0.58598   0.00000  Uiso   1.00
H352   H     0.52690   0.26425   0.84868   0.00000  Uiso   1.00
H353   H     0.51260   0.48772   0.12636   0.00000  Uiso   1.00
H354   H     0.58448   0.53741   0.12284   0.00000  Uiso   1.00
H355   H     0.46092   0.48725   0.29898   0.00000  Uiso   1.00
H356   H     0.48662   0.45062   0.94933   0.00000  Uiso   1.00
H357   H     0.17325   0.07339   0.13157   0.00000  Uiso   1.00
H358   H     0.41271   0.46761   0.50294   0.00000  Uiso   1.00
H359   H     0.46691   0.39037   0.76563   0.00000  Uiso   1.00
O360   O     0.25179   0.04036   0.17256   0.00000  Uiso   1.00
O361   O     0.40997   0.40158   0.65977   0.00000  Uiso   1.00
O362   O     0.48108   0.30025   0.69244   0.00000  Uiso   1.00
N363   N     0.70926   0.47013   0.19553   0.00000  Uiso   1.00
N364   N     0.46567   0.37124   0.54275   0.00000  Uiso   1.00
N365   N     0.51634   0.29902   0.85344   0.00000  Uiso   1.00
N366   N     0.67698   0.53799   0.15084   0.00000  Uiso   1.00
N367   N     0.43339   0.43910   0.49806   0.00000  Uiso   1.00
N368   N     0.48406   0.36689   0.80876   0.00000  Uiso   1.00
C369   C     0.35935   0.33709   0.91682   0.00000  Uiso   1.00
C370   C     0.31335   0.35809   0.92821   0.00000  Uiso   1.00
C371   C     0.30181   0.40597   0.90653   0.00000  Uiso   1.00
C372   C     0.25800   0.41798   0.92195   0.00000  Uiso   1.00
C373   C     0.19131   0.45586   0.93413   0.00000  Uiso   1.00
C374   C     0.35713   0.29358   0.84067   0.00000  Uiso   1.00
C375   C     0.38241   0.28721   0.74540   0.00000  Uiso   1.00
C376   C     0.37545   0.24492   0.68714   0.00000  Uiso   1.00
C377   C     0.37675   0.18263   0.56345   0.00000  Uiso   1.00
C378   C     0.36831   0.31587   0.02677   0.00000  Uiso   1.00
C379   C     0.40299   0.32824   0.08796   0.00000  Uiso   1.00
C380   C     0.40545   0.30470   0.18638   0.00000  Uiso   1.00
C381   C     0.42410   0.27702   0.35165   0.00000  Uiso   1.00
C382   C     0.30206   0.27329   0.98277   0.00000  Uiso   1.00
C383   C     0.28224   0.32344   0.96403   0.00000  Uiso   1.00
C384   C     0.23843   0.33538   0.97950   0.00000  Uiso   1.00
C385   C     0.22683   0.38327   0.95784   0.00000  Uiso   1.00
C386   C     0.32602   0.25893   0.87649   0.00000  Uiso   1.00
C387   C     0.31902   0.21663   0.81836   0.00000  Uiso   1.00
C388   C     0.34428   0.21020   0.72302   0.00000  Uiso   1.00
C389   C     0.33719   0.28122   0.06259   0.00000  Uiso   1.00
C390   C     0.33960   0.25765   0.16093   0.00000  Uiso   1.00
C391   C     0.37427   0.26998   0.22227   0.00000  Uiso   1.00
H392   H     0.38358   0.36406   0.88893   0.00000  Uiso   1.00
H393   H     0.32591   0.43277   0.87880   0.00000  Uiso   1.00
H394   H     0.40649   0.31404   0.71770   0.00000  Uiso   1.00
H395   H     0.92706   0.85505   0.06022   0.00000  Uiso   1.00
H396   H     0.24824   0.49366   0.88333   0.00000  Uiso   1.00
H397   H     0.41816   0.24329   0.54366   0.00000  Uiso   1.00
H398   H     0.96155   0.82979   0.26592   0.00000  Uiso   1.00
H399   H     0.27784   0.24631   0.01066   0.00000  Uiso   1.00
H400   H     0.21436   0.30856   0.00722   0.00000  Uiso   1.00
H401   H     0.29494   0.18982   0.84611   0.00000  Uiso   1.00
H402   H     0.31552   0.23084   0.18863   0.00000  Uiso   1.00
H403   H     0.15770   0.39285   0.98755   0.00000  Uiso   1.00
H404   H     0.32763   0.14247   0.64788   0.00000  Uiso   1.00
H405   H     0.37101   0.22897   0.37015   0.00000  Uiso   1.00
O406   O     0.16312   0.48632   0.93094   0.00000  Uiso   1.00
O407   O     0.88606   0.65784   0.48533   0.00000  Uiso   1.00
O408   O     0.44298   0.27132   0.43292   0.00000  Uiso   1.00
N409   N     0.23564   0.46140   0.90835   0.00000  Uiso   1.00
N410   N     0.39451   0.22732   0.59077   0.00000  Uiso   1.00
N411   N     0.43508   0.30817   0.26601   0.00000  Uiso   1.00
N412   N     0.18693   0.40715   0.96443   0.00000  Uiso   1.00
N413   N     0.34579   0.17307   0.64686   0.00000  Uiso   1.00
N414   N     0.38636   0.25392   0.32210   0.00000  Uiso   1.00
C415   C     0.66229   0.19963   0.09491   0.00000  Uiso   1.00
C416   C     0.70318   0.16853   0.10213   0.00000  Uiso   1.00
C417   C     0.70570   0.11833   0.08712   0.00000  Uiso   1.00
C418   C     0.74611   0.09666   0.09714   0.00000  Uiso   1.00
C419   C     0.80405   0.04418   0.10462   0.00000  Uiso   1.00
C420   C     0.67370   0.23882   0.01066   0.00000  Uiso   1.00
C421   C     0.65143   0.24771   0.91875   0.00000  Uiso   1.00
C422   C     0.66701   0.28522   0.85177   0.00000  Uiso   1.00
C423   C     0.67916   0.34188   0.71729   0.00000  Uiso   1.00
C424   C     0.65608   0.22634   0.20240   0.00000  Uiso   1.00
C425   C     0.61899   0.22476   0.27171   0.00000  Uiso   1.00
C426   C     0.61973   0.25177   0.36615   0.00000  Uiso   1.00
C427   C     0.60453   0.28907   0.52938   0.00000  Uiso   1.00
C428   C     0.72955   0.25042   0.13939   0.00000  Uiso   1.00
C429   C     0.73971   0.19612   0.12629   0.00000  Uiso   1.00
C430   C     0.78012   0.17452   0.13633   0.00000  Uiso   1.00
C431   C     0.78270   0.12429   0.12134   0.00000  Uiso   1.00
C432   C     0.71023   0.26640   0.03482   0.00000  Uiso   1.00
C433   C     0.72584   0.30391   0.96796   0.00000  Uiso   1.00
C434   C     0.70361   0.31285   0.87597   0.00000  Uiso   1.00
C435   C     0.69261   0.25393   0.22657   0.00000  Uiso   1.00
C436   C     0.69341   0.28095   0.32092   0.00000  Uiso   1.00
C437   C     0.65633   0.27941   0.39035   0.00000  Uiso   1.00
H438   H     0.63384   0.17815   0.07610   0.00000  Uiso   1.00
H439   H     0.17742   0.59699   0.06842   0.00000  Uiso   1.00
H440   H     0.62315   0.22636   0.90008   0.00000  Uiso   1.00
H441   H     0.59073   0.20341   0.25298   0.00000  Uiso   1.00
H442   H     0.24186   0.51918   0.07052   0.00000  Uiso   1.00
H443   H     0.62742   0.29197   0.71560   0.00000  Uiso   1.00
H444   H     0.55903   0.24358   0.45975   0.00000  Uiso   1.00
H445   H     0.75799   0.27190   0.15820   0.00000  Uiso   1.00
H446   H     0.80839   0.19588   0.15503   0.00000  Uiso   1.00
H447   H     0.75412   0.32525   0.98669   0.00000  Uiso   1.00
H448   H     0.72169   0.30229   0.33959   0.00000  Uiso   1.00
H449   H     0.84815   0.09944   0.14081   0.00000  Uiso   1.00
H450   H     0.73371   0.37223   0.78588   0.00000  Uiso   1.00
H451   H     0.66533   0.32383   0.53004   0.00000  Uiso   1.00
O452   O     0.82592   0.00762   0.10207   0.00000  Uiso   1.00
O453   O     0.67577   0.36551   0.63643   0.00000  Uiso   1.00
O454   O     0.58605   0.30201   0.61274   0.00000  Uiso   1.00
N455   N     0.75996   0.04850   0.08752   0.00000  Uiso   1.00
N456   N     0.65296   0.30354   0.75568   0.00000  Uiso   1.00
N457   N     0.58903   0.25830   0.45139   0.00000  Uiso   1.00
N458   N     0.81715   0.09169   0.12535   0.00000  Uiso   1.00
N459   N     0.71016   0.34673   0.79350   0.00000  Uiso   1.00
N460   N     0.64622   0.30149   0.48921   0.00000  Uiso   1.00
C461   C     0.94834   0.38428   0.56999   0.00000  Uiso   1.00
C462   C     0.92430   0.43288   0.56444   0.00000  Uiso   1.00
C463   C     0.88021   0.44017   0.59004   0.00000  Uiso   1.00
C464   C     0.86446   0.48739   0.57972   0.00000  Uiso   1.00
C465   C     0.82297   0.55701   0.57643   0.00000  Uiso   1.00
C466   C     0.98543   0.39276   0.64399   0.00000  Uiso   1.00
C467   C     0.99274   0.36631   0.73647   0.00000  Uiso   1.00
C468   C     0.02845   0.37975   0.79310   0.00000  Uiso   1.00
C469   C     0.08190   0.38706   0.91328   0.00000  Uiso   1.00
C470   C     0.96983   0.37577   0.45779   0.00000  Uiso   1.00
C471   C     0.96403   0.33503   0.39370   0.00000  Uiso   1.00
C472   C     0.98661   0.33416   0.29357   0.00000  Uiso   1.00
C473   C     0.01582   0.31509   0.12463   0.00000  Uiso   1.00
C474   C     0.99875   0.45518   0.50614   0.00000  Uiso   1.00
C475   C     0.95169   0.47139   0.52977   0.00000  Uiso   1.00
C476   C     0.93599   0.51861   0.51940   0.00000  Uiso   1.00
C477   C     0.89189   0.52597   0.54497   0.00000  Uiso   1.00
C478   C     0.01282   0.43127   0.60932   0.00000  Uiso   1.00
C479   C     0.04852   0.44475   0.66583   0.00000  Uiso   1.00
C480   C     0.05589   0.41833   0.75836   0.00000  Uiso   1.00
C481   C     0.99721   0.41428   0.42310   0.00000  Uiso   1.00
C482   C     0.01981   0.41347   0.32306   0.00000  Uiso   1.00
C483   C     0.01404   0.37274   0.25883   0.00000  Uiso   1.00
H484   H     0.92702   0.35430   0.59699   0.00000  Uiso   1.00
H485   H     0.85903   0.41036   0.61688   0.00000  Uiso   1.00
H486   H     0.97155   0.33651   0.76328   0.00000  Uiso   1.00
H487   H     0.94283   0.30523   0.42056   0.00000  Uiso   1.00
H488   H     0.79574   0.48950   0.62367   0.00000  Uiso   1.00
H489   H     0.03299   0.33377   0.93234   0.00000  Uiso   1.00
H490   H     0.97244   0.26782   0.20966   0.00000  Uiso   1.00
H491   H     0.02008   0.48516   0.47914   0.00000  Uiso   1.00
H492   H     0.95719   0.54840   0.49256   0.00000  Uiso   1.00
H493   H     0.06971   0.47455   0.63896   0.00000  Uiso   1.00
H494   H     0.04100   0.44328   0.29625   0.00000  Uiso   1.00
H495   H     0.87541   0.60155   0.52278   0.00000  Uiso   1.00
H496   H     0.11267   0.44581   0.83144   0.00000  Uiso   1.00
H497   H     0.05212   0.37987   0.10876   0.00000  Uiso   1.00
O498   O     0.29253   0.08477   0.58421   0.00000  Uiso   1.00
O499   O     0.10381   0.38045   0.98916   0.00000  Uiso   1.00
O500   O     0.02437   0.29393   0.04102   0.00000  Uiso   1.00
N501   N     0.82311   0.50719   0.59807   0.00000  Uiso   1.00
N502   N     0.04493   0.36160   0.88666   0.00000  Uiso   1.00
N503   N     0.98833   0.29993   0.21103   0.00000  Uiso   1.00
N504   N     0.86598   0.56748   0.54377   0.00000  Uiso   1.00
N505   N     0.08780   0.42189   0.83237   0.00000  Uiso   1.00
N506   N     0.03120   0.36022   0.15673   0.00000  Uiso   1.00
C507   C     0.06662   0.12584   0.70113   0.00000  Uiso   1.00
C508   C     0.09804   0.08281   0.68865   0.00000  Uiso   1.00
C509   C     0.14244   0.08443   0.70306   0.00000  Uiso   1.00
C510   C     0.16553   0.04111   0.68791   0.00000  Uiso   1.00
C511   C     0.71745   0.48088   0.67292   0.00000  Uiso   1.00
C512   C     0.03091   0.11006   0.78436   0.00000  Uiso   1.00
C513   C     0.01887   0.13460   0.87923   0.00000  Uiso   1.00
C514   C     0.98544   0.11422   0.94463   0.00000  Uiso   1.00
C515   C     0.93312   0.09632   0.07820   0.00000  Uiso   1.00
C516   C     0.04488   0.12996   0.59438   0.00000  Uiso   1.00
C517   C     0.04457   0.17123   0.52953   0.00000  Uiso   1.00
C518   C     0.02289   0.16761   0.43499   0.00000  Uiso   1.00
C519   C     0.99227   0.18061   0.27359   0.00000  Uiso   1.00
C520   C     0.02865   0.04603   0.64858   0.00000  Uiso   1.00
C521   C     0.07742   0.03946   0.66011   0.00000  Uiso   1.00
C522   C     0.10044   0.99613   0.64492   0.00000  Uiso   1.00
C523   C     0.14487   0.99769   0.65931   0.00000  Uiso   1.00
C524   C     0.01029   0.06671   0.75582   0.00000  Uiso   1.00
C525   C     0.97687   0.04630   0.82109   0.00000  Uiso   1.00
C526   C     0.96478   0.07079   0.91604   0.00000  Uiso   1.00
C527   C     0.02426   0.08661   0.56583   0.00000  Uiso   1.00
C528   C     0.00258   0.08293   0.47139   0.00000  Uiso   1.00
C529   C     0.00224   0.12419   0.40640   0.00000  Uiso   1.00
H530   H     0.08267   0.15959   0.72335   0.00000  Uiso   1.00
H531   H     0.15839   0.11798   0.72516   0.00000  Uiso   1.00
H532   H     0.03483   0.16814   0.90129   0.00000  Uiso   1.00
H533   H     0.06053   0.20477   0.55164   0.00000  Uiso   1.00
H534   H     0.23324   0.05273   0.71461   0.00000  Uiso   1.00
H535   H     0.97270   0.15851   0.08598   0.00000  Uiso   1.00
H536   H     0.02690   0.23575   0.34868   0.00000  Uiso   1.00
H537   H     0.01260   0.01228   0.62636   0.00000  Uiso   1.00
H538   H     0.08448   0.96259   0.62284   0.00000  Uiso   1.00
H539   H     0.96092   0.01275   0.79898   0.00000  Uiso   1.00
H540   H     0.98662   0.04938   0.44933   0.00000  Uiso   1.00
H541   H     0.67325   0.42661   0.63157   0.00000  Uiso   1.00
H542   H     0.91271   0.03239   0.00294   0.00000  Uiso   1.00
H543   H     0.96691   0.10963   0.26563   0.00000  Uiso   1.00
O544   O     0.75179   0.45964   0.67256   0.00000  Uiso   1.00
O545   O     0.90997   0.09842   0.15977   0.00000  Uiso   1.00
O546   O     0.98108   0.19975   0.19244   0.00000  Uiso   1.00
N547   N     0.20926   0.02987   0.69553   0.00000  Uiso   1.00
N548   N     0.96567   0.12876   0.04275   0.00000  Uiso   1.00
N549   N     0.01634   0.20098   0.35344   0.00000  Uiso   1.00
N550   N     0.17698   0.96201   0.65084   0.00000  Uiso   1.00
N551   N     0.93339   0.06090   0.99806   0.00000  Uiso   1.00
N552   N     0.98406   0.13311   0.30876   0.00000  Uiso   1.00
C553   C     0.85935   0.83709   0.91682   0.00000  Uiso   1.00
C554   C     0.81335   0.85809   0.92821   0.00000  Uiso   1.00
C555   C     0.80181   0.90597   0.90653   0.00000  Uiso   1.00
C556   C     0.75800   0.91798   0.92195   0.00000  Uiso   1.00
C557   C     0.69131   0.95586   0.93413   0.00000  Uiso   1.00
C558   C     0.85713   0.79358   0.84067   0.00000  Uiso   1.00
C559   C     0.88241   0.78721   0.74540   0.00000  Uiso   1.00
C560   C     0.87545   0.74492   0.68714   0.00000  Uiso   1.00
C561   C     0.87675   0.68263   0.56345   0.00000  Uiso   1.00
C562   C     0.86831   0.81587   0.02677   0.00000  Uiso   1.00
C563   C     0.90299   0.82824   0.08796   0.00000  Uiso   1.00
C564   C     0.90545   0.80470   0.18638   0.00000  Uiso   1.00
C565   C     0.92410   0.77702   0.35165   0.00000  Uiso   1.00
C566   C     0.80206   0.77329   0.98277   0.00000  Uiso   1.00
C567   C     0.78224   0.82344   0.96403   0.00000  Uiso   1.00
C568   C     0.73843   0.83538   0.97950   0.00000  Uiso   1.00
C569   C     0.72683   0.88327   0.95784   0.00000  Uiso   1.00
C570   C     0.82602   0.75893   0.87649   0.00000  Uiso   1.00
C571   C     0.81902   0.71663   0.81836   0.00000  Uiso   1.00
C572   C     0.84428   0.71020   0.72302   0.00000  Uiso   1.00
C573   C     0.83719   0.78122   0.06259   0.00000  Uiso   1.00
C574   C     0.83960   0.75765   0.16093   0.00000  Uiso   1.00
C575   C     0.87427   0.76998   0.22227   0.00000  Uiso   1.00
H576   H     0.88358   0.86406   0.88893   0.00000  Uiso   1.00
H577   H     0.82591   0.93277   0.87880   0.00000  Uiso   1.00
H578   H     0.90649   0.81404   0.71770   0.00000  Uiso   1.00
H579   H     0.42706   0.35505   0.06022   0.00000  Uiso   1.00
H580   H     0.74824   0.99366   0.88333   0.00000  Uiso   1.00
H581   H     0.91816   0.74329   0.54366   0.00000  Uiso   1.00
H582   H     0.46155   0.32979   0.26592   0.00000  Uiso   1.00
H583   H     0.77784   0.74631   0.01066   0.00000  Uiso   1.00
H584   H     0.71436   0.80856   0.00722   0.00000  Uiso   1.00
H585   H     0.79494   0.68982   0.84611   0.00000  Uiso   1.00
H586   H     0.81552   0.73084   0.18863   0.00000  Uiso   1.00
H587   H     0.65770   0.89285   0.98755   0.00000  Uiso   1.00
H588   H     0.82763   0.64247   0.64788   0.00000  Uiso   1.00
H589   H     0.87101   0.72897   0.37015   0.00000  Uiso   1.00
O590   O     0.66312   0.98632   0.93094   0.00000  Uiso   1.00
O591   O     0.38606   0.15784   0.48533   0.00000  Uiso   1.00
O592   O     0.94298   0.77132   0.43292   0.00000  Uiso   1.00
N593   N     0.73564   0.96140   0.90835   0.00000  Uiso   1.00
N594   N     0.89451   0.72732   0.59077   0.00000  Uiso   1.00
N595   N     0.93508   0.80817   0.26601   0.00000  Uiso   1.00
N596   N     0.68693   0.90715   0.96443   0.00000  Uiso   1.00
N597   N     0.84579   0.67307   0.64686   0.00000  Uiso   1.00
N598   N     0.88636   0.75392   0.32210   0.00000  Uiso   1.00
C599   C     0.16229   0.69963   0.09491   0.00000  Uiso   1.00
C600   C     0.20318   0.66853   0.10213   0.00000  Uiso   1.00
C601   C     0.20570   0.61833   0.08712   0.00000  Uiso   1.00
C602   C     0.24611   0.59666   0.09714   0.00000  Uiso   1.00
C603   C     0.30405   0.54418   0.10462   0.00000  Uiso   1.00
C604   C     0.17370   0.73882   0.01066   0.00000  Uiso   1.00
C605   C     0.15143   0.74771   0.91875   0.00000  Uiso   1.00
C606   C     0.16701   0.78522   0.85177   0.00000  Uiso   1.00
C607   C     0.17916   0.84188   0.71729   0.00000  Uiso   1.00
C608   C     0.15608   0.72634   0.20240   0.00000  Uiso   1.00
C609   C     0.11899   0.72476   0.27171   0.00000  Uiso   1.00
C610   C     0.11973   0.75177   0.36615   0.00000  Uiso   1.00
C611   C     0.10453   0.78907   0.52938   0.00000  Uiso   1.00
C612   C     0.22955   0.75042   0.13939   0.00000  Uiso   1.00
C613   C     0.23971   0.69612   0.12629   0.00000  Uiso   1.00
C614   C     0.28012   0.67452   0.13633   0.00000  Uiso   1.00
C615   C     0.28270   0.62429   0.12134   0.00000  Uiso   1.00
C616   C     0.21023   0.76640   0.03482   0.00000  Uiso   1.00
C617   C     0.22584   0.80391   0.96796   0.00000  Uiso   1.00
C618   C     0.20361   0.81285   0.87597   0.00000  Uiso   1.00
C619   C     0.19261   0.75393   0.22657   0.00000  Uiso   1.00
C620   C     0.19341   0.78095   0.32092   0.00000  Uiso   1.00
C621   C     0.15633   0.77941   0.39035   0.00000  Uiso   1.00
H622   H     0.13384   0.67815   0.07610   0.00000  Uiso   1.00
H623   H     0.67742   0.09699   0.06842   0.00000  Uiso   1.00
H624   H     0.12315   0.72636   0.90008   0.00000  Uiso   1.00
H625   H     0.09073   0.70341   0.25298   0.00000  Uiso   1.00
H626   H     0.74186   0.01918   0.07052   0.00000  Uiso   1.00
H627   H     0.12742   0.79197   0.71560   0.00000  Uiso   1.00
H628   H     0.05903   0.74358   0.45975   0.00000  Uiso   1.00
H629   H     0.25799   0.77190   0.15820   0.00000  Uiso   1.00
H630   H     0.30839   0.69588   0.15503   0.00000  Uiso   1.00
H631   H     0.25412   0.82525   0.98669   0.00000  Uiso   1.00
H632   H     0.22169   0.80229   0.33959   0.00000  Uiso   1.00
H633   H     0.34815   0.59944   0.14081   0.00000  Uiso   1.00
H634   H     0.23371   0.87223   0.78588   0.00000  Uiso   1.00
H635   H     0.16533   0.82383   0.53004   0.00000  Uiso   1.00
O636   O     0.32592   0.50762   0.10207   0.00000  Uiso   1.00
O637   O     0.17577   0.86551   0.63643   0.00000  Uiso   1.00
O638   O     0.08605   0.80201   0.61274   0.00000  Uiso   1.00
N639   N     0.25996   0.54850   0.08752   0.00000  Uiso   1.00
N640   N     0.15296   0.80354   0.75568   0.00000  Uiso   1.00
N641   N     0.08903   0.75830   0.45139   0.00000  Uiso   1.00
N642   N     0.31715   0.59169   0.12535   0.00000  Uiso   1.00
N643   N     0.21016   0.84673   0.79350   0.00000  Uiso   1.00
N644   N     0.14622   0.80149   0.48921   0.00000  Uiso   1.00
C645   C     0.44834   0.88428   0.56999   0.00000  Uiso   1.00
C646   C     0.42430   0.93288   0.56444   0.00000  Uiso   1.00
C647   C     0.38021   0.94017   0.59004   0.00000  Uiso   1.00
C648   C     0.36446   0.98739   0.57972   0.00000  Uiso   1.00
C649   C     0.32297   0.05701   0.57643   0.00000  Uiso   1.00
C650   C     0.48543   0.89276   0.64399   0.00000  Uiso   1.00
C651   C     0.49274   0.86631   0.73647   0.00000  Uiso   1.00
C652   C     0.52845   0.87975   0.79310   0.00000  Uiso   1.00
C653   C     0.58190   0.88706   0.91328   0.00000  Uiso   1.00
C654   C     0.46983   0.87577   0.45779   0.00000  Uiso   1.00
C655   C     0.46403   0.83503   0.39370   0.00000  Uiso   1.00
C656   C     0.48661   0.83416   0.29357   0.00000  Uiso   1.00
C657   C     0.51582   0.81509   0.12463   0.00000  Uiso   1.00
C658   C     0.49875   0.95518   0.50614   0.00000  Uiso   1.00
C659   C     0.45169   0.97139   0.52977   0.00000  Uiso   1.00
C660   C     0.43599   0.01861   0.51940   0.00000  Uiso   1.00
C661   C     0.39189   0.02597   0.54497   0.00000  Uiso   1.00
C662   C     0.51282   0.93127   0.60932   0.00000  Uiso   1.00
C663   C     0.54852   0.94475   0.66583   0.00000  Uiso   1.00
C664   C     0.55589   0.91833   0.75836   0.00000  Uiso   1.00
C665   C     0.49721   0.91428   0.42310   0.00000  Uiso   1.00
C666   C     0.51981   0.91347   0.32306   0.00000  Uiso   1.00
C667   C     0.51404   0.87274   0.25883   0.00000  Uiso   1.00
H668   H     0.42702   0.85430   0.59699   0.00000  Uiso   1.00
H669   H     0.35903   0.91036   0.61688   0.00000  Uiso   1.00
H670   H     0.47155   0.83651   0.76328   0.00000  Uiso   1.00
H671   H     0.44283   0.80523   0.42056   0.00000  Uiso   1.00
H672   H     0.29574   0.98950   0.62367   0.00000  Uiso   1.00
H673   H     0.53299   0.83377   0.93234   0.00000  Uiso   1.00
H674   H     0.47244   0.76782   0.20966   0.00000  Uiso   1.00
H675   H     0.52008   0.98516   0.47914   0.00000  Uiso   1.00
H676   H     0.45719   0.04840   0.49256   0.00000  Uiso   1.00
H677   H     0.56971   0.97455   0.63896   0.00000  Uiso   1.00
H678   H     0.54100   0.94328   0.29625   0.00000  Uiso   1.00
H679   H     0.37541   0.10155   0.52278   0.00000  Uiso   1.00
H680   H     0.61267   0.94581   0.83144   0.00000  Uiso   1.00
H681   H     0.55212   0.87987   0.10876   0.00000  Uiso   1.00
O682   O     0.79253   0.58477   0.58421   0.00000  Uiso   1.00
O683   O     0.60381   0.88045   0.98916   0.00000  Uiso   1.00
O684   O     0.52437   0.79393   0.04102   0.00000  Uiso   1.00
N685   N     0.32311   0.00719   0.59807   0.00000  Uiso   1.00
N686   N     0.54493   0.86160   0.88666   0.00000  Uiso   1.00
N687   N     0.48833   0.79993   0.21103   0.00000  Uiso   1.00
N688   N     0.36598   0.06748   0.54377   0.00000  Uiso   1.00
N689   N     0.58780   0.92189   0.83237   0.00000  Uiso   1.00
N690   N     0.53120   0.86022   0.15673   0.00000  Uiso   1.00
C691   C     0.56662   0.62584   0.70113   0.00000  Uiso   1.00
C692   C     0.59804   0.58281   0.68865   0.00000  Uiso   1.00
C693   C     0.64244   0.58443   0.70306   0.00000  Uiso   1.00
C694   C     0.66553   0.54111   0.68791   0.00000  Uiso   1.00
C695   C     0.21745   0.98088   0.67292   0.00000  Uiso   1.00
C696   C     0.53091   0.61006   0.78436   0.00000  Uiso   1.00
C697   C     0.51887   0.63460   0.87923   0.00000  Uiso   1.00
C698   C     0.48544   0.61422   0.94463   0.00000  Uiso   1.00
C699   C     0.43312   0.59632   0.07820   0.00000  Uiso   1.00
C700   C     0.54488   0.62996   0.59438   0.00000  Uiso   1.00
C701   C     0.54457   0.67123   0.52953   0.00000  Uiso   1.00
C702   C     0.52289   0.66761   0.43499   0.00000  Uiso   1.00
C703   C     0.49227   0.68061   0.27359   0.00000  Uiso   1.00
C704   C     0.52865   0.54603   0.64858   0.00000  Uiso   1.00
C705   C     0.57742   0.53946   0.66011   0.00000  Uiso   1.00
C706   C     0.60044   0.49613   0.64492   0.00000  Uiso   1.00
C707   C     0.64487   0.49769   0.65931   0.00000  Uiso   1.00
C708   C     0.51029   0.56671   0.75582   0.00000  Uiso   1.00
C709   C     0.47687   0.54630   0.82109   0.00000  Uiso   1.00
C710   C     0.46478   0.57079   0.91604   0.00000  Uiso   1.00
C711   C     0.52426   0.58661   0.56583   0.00000  Uiso   1.00
C712   C     0.50258   0.58293   0.47139   0.00000  Uiso   1.00
C713   C     0.50224   0.62419   0.40640   0.00000  Uiso   1.00
H714   H     0.58267   0.65959   0.72335   0.00000  Uiso   1.00
H715   H     0.65839   0.61798   0.72516   0.00000  Uiso   1.00
H716   H     0.53483   0.66814   0.90129   0.00000  Uiso   1.00
H717   H     0.56053   0.70477   0.55164   0.00000  Uiso   1.00
H718   H     0.73324   0.55273   0.71461   0.00000  Uiso   1.00
H719   H     0.47270   0.65851   0.08598   0.00000  Uiso   1.00
H720   H     0.52690   0.73575   0.34868   0.00000  Uiso   1.00
H721   H     0.51260   0.51228   0.62636   0.00000  Uiso   1.00
H722   H     0.58448   0.46259   0.62284   0.00000  Uiso   1.00
H723   H     0.46092   0.51275   0.79898   0.00000  Uiso   1.00
H724   H     0.48662   0.54938   0.44933   0.00000  Uiso   1.00
H725   H     0.17325   0.92661   0.63157   0.00000  Uiso   1.00
H726   H     0.41271   0.53239   0.00294   0.00000  Uiso   1.00
H727   H     0.46691   0.60963   0.26563   0.00000  Uiso   1.00
O728   O     0.25179   0.95964   0.67256   0.00000  Uiso   1.00
O729   O     0.40997   0.59842   0.15977   0.00000  Uiso   1.00
O730   O     0.48108   0.69975   0.19244   0.00000  Uiso   1.00
N731   N     0.70926   0.52987   0.69553   0.00000  Uiso   1.00
N732   N     0.46567   0.62876   0.04275   0.00000  Uiso   1.00
N733   N     0.51634   0.70098   0.35344   0.00000  Uiso   1.00
N734   N     0.67698   0.46201   0.65084   0.00000  Uiso   1.00
N735   N     0.43339   0.56090   0.99806   0.00000  Uiso   1.00
N736   N     0.48406   0.63311   0.30876   0.00000  Uiso   1.00
