data_job_02807
_audit_creation_date              2018-12-19
_audit_creation_method            'Materials Studio'
_symmetry_space_group_name_H-M    'P1'
_symmetry_Int_Tables_number       1
_symmetry_cell_setting            triclinic
loop_
_symmetry_equiv_pos_as_xyz
  x,y,z
_cell_length_a                    25.9049
_cell_length_b                    25.9049
_cell_length_c                    16.9593
_cell_angle_alpha                 90.0000
_cell_angle_beta                  90.0000
_cell_angle_gamma                 90.0000
loop_
_atom_site_label
_atom_site_type_symbol
_atom_site_fract_x
_atom_site_fract_y
_atom_site_fract_z
_atom_site_U_iso_or_equiv
_atom_site_adp_type
_atom_site_occupancy
C1     C     0.32572   0.85311   0.92467   0.00000  Uiso   1.00
C2     C     0.36059   0.84080   0.85470   0.00000  Uiso   1.00
C3     C     0.35066   0.85334   0.77660   0.00000  Uiso   1.00
C4     C     0.38737   0.83868   0.72131   0.00000  Uiso   1.00
C5     C     0.43465   0.82353   0.60930   0.00000  Uiso   1.00
C6     C     0.31455   0.80161   0.96474   0.00000  Uiso   1.00
C7     C     0.26593   0.78120   0.97917   0.00000  Uiso   1.00
C8     C     0.26389   0.73355   0.01653   0.00000  Uiso   1.00
C9     C     0.23970   0.65758   0.07541   0.00000  Uiso   1.00
C10    C     0.35878   0.88380   0.98244   0.00000  Uiso   1.00
C11    C     0.34733   0.93248   0.01177   0.00000  Uiso   1.00
C12    C     0.38252   0.95402   0.06404   0.00000  Uiso   1.00
C13    C     0.42700   0.00566   0.15040   0.00000  Uiso   1.00
C14    C     0.40855   0.80478   0.96535   0.00000  Uiso   1.00
C15    C     0.40557   0.81455   0.87680   0.00000  Uiso   1.00
C16    C     0.44230   0.79987   0.82161   0.00000  Uiso   1.00
C17    C     0.43244   0.81238   0.74344   0.00000  Uiso   1.00
C18    C     0.35954   0.77536   0.98684   0.00000  Uiso   1.00
C19    C     0.35757   0.72773   0.02419   0.00000  Uiso   1.00
C20    C     0.30896   0.70725   0.03867   0.00000  Uiso   1.00
C21    C     0.40377   0.85755   0.00454   0.00000  Uiso   1.00
C22    C     0.43898   0.87901   0.05678   0.00000  Uiso   1.00
C23    C     0.42759   0.92772   0.08618   0.00000  Uiso   1.00
H24    H     0.29069   0.87355   0.90746   0.00000  Uiso   1.00
H25    H     0.31584   0.87365   0.75952   0.00000  Uiso   1.00
H26    H     0.23112   0.80153   0.96207   0.00000  Uiso   1.00
H27    H     0.31251   0.95279   0.99465   0.00000  Uiso   1.00
H28    H     0.36355   0.86217   0.60524   0.00000  Uiso   1.00
H29    H     0.18492   0.71011   0.03235   0.00000  Uiso   1.00
H30    H     0.35655   0.02906   0.10106   0.00000  Uiso   1.00
H31    H     0.44358   0.78434   0.98256   0.00000  Uiso   1.00
H32    H     0.47712   0.77955   0.83873   0.00000  Uiso   1.00
H33    H     0.39239   0.70743   0.04129   0.00000  Uiso   1.00
H34    H     0.47379   0.85869   0.07387   0.00000  Uiso   1.00
H35    H     0.49445   0.78579   0.66953   0.00000  Uiso   1.00
H36    H     0.31581   0.63373   0.09665   0.00000  Uiso   1.00
H37    H     0.48745   0.95269   0.16536   0.00000  Uiso   1.00
O38    O     0.44830   0.82242   0.54141   0.00000  Uiso   1.00
O39    O     0.21393   0.62293   0.10178   0.00000  Uiso   1.00
O40    O     0.43911   0.04139   0.19192   0.00000  Uiso   1.00
N41    N     0.38976   0.84486   0.64011   0.00000  Uiso   1.00
N42    N     0.22275   0.70269   0.03942   0.00000  Uiso   1.00
N43    N     0.38320   0.00088   0.10368   0.00000  Uiso   1.00
N44    N     0.46019   0.80377   0.67470   0.00000  Uiso   1.00
N45    N     0.29318   0.66159   0.07402   0.00000  Uiso   1.00
N46    N     0.45364   0.95978   0.13827   0.00000  Uiso   1.00
C47    C     0.82572   0.35311   0.42467   0.00000  Uiso   1.00
C48    C     0.86059   0.34080   0.35470   0.00000  Uiso   1.00
C49    C     0.85066   0.35334   0.27660   0.00000  Uiso   1.00
C50    C     0.88737   0.33868   0.22131   0.00000  Uiso   1.00
C51    C     0.93465   0.32353   0.10930   0.00000  Uiso   1.00
C52    C     0.81455   0.30161   0.46474   0.00000  Uiso   1.00
C53    C     0.76593   0.28120   0.47917   0.00000  Uiso   1.00
C54    C     0.76389   0.23355   0.51653   0.00000  Uiso   1.00
C55    C     0.73970   0.15758   0.57541   0.00000  Uiso   1.00
C56    C     0.85878   0.38380   0.48244   0.00000  Uiso   1.00
C57    C     0.84733   0.43248   0.51177   0.00000  Uiso   1.00
C58    C     0.88252   0.45402   0.56404   0.00000  Uiso   1.00
C59    C     0.92700   0.50566   0.65040   0.00000  Uiso   1.00
C60    C     0.90855   0.30478   0.46535   0.00000  Uiso   1.00
C61    C     0.90557   0.31455   0.37680   0.00000  Uiso   1.00
C62    C     0.94230   0.29987   0.32161   0.00000  Uiso   1.00
C63    C     0.93244   0.31238   0.24344   0.00000  Uiso   1.00
C64    C     0.85954   0.27536   0.48684   0.00000  Uiso   1.00
C65    C     0.85757   0.22773   0.52419   0.00000  Uiso   1.00
C66    C     0.80896   0.20725   0.53867   0.00000  Uiso   1.00
C67    C     0.90377   0.35755   0.50454   0.00000  Uiso   1.00
C68    C     0.93898   0.37901   0.55678   0.00000  Uiso   1.00
C69    C     0.92759   0.42772   0.58618   0.00000  Uiso   1.00
H70    H     0.79069   0.37355   0.40746   0.00000  Uiso   1.00
H71    H     0.81584   0.37365   0.25952   0.00000  Uiso   1.00
H72    H     0.73112   0.30153   0.46207   0.00000  Uiso   1.00
H73    H     0.81251   0.45279   0.49465   0.00000  Uiso   1.00
H74    H     0.86355   0.36217   0.10524   0.00000  Uiso   1.00
H75    H     0.68492   0.21011   0.53235   0.00000  Uiso   1.00
H76    H     0.85655   0.52906   0.60106   0.00000  Uiso   1.00
H77    H     0.94358   0.28434   0.48256   0.00000  Uiso   1.00
H78    H     0.97712   0.27955   0.33873   0.00000  Uiso   1.00
H79    H     0.89239   0.20743   0.54129   0.00000  Uiso   1.00
H80    H     0.97379   0.35869   0.57387   0.00000  Uiso   1.00
H81    H     0.99445   0.28579   0.16953   0.00000  Uiso   1.00
H82    H     0.81581   0.13373   0.59665   0.00000  Uiso   1.00
H83    H     0.98745   0.45269   0.66536   0.00000  Uiso   1.00
O84    O     0.94830   0.32242   0.04141   0.00000  Uiso   1.00
O85    O     0.71393   0.12293   0.60178   0.00000  Uiso   1.00
O86    O     0.93911   0.54139   0.69192   0.00000  Uiso   1.00
N87    N     0.88976   0.34486   0.14011   0.00000  Uiso   1.00
N88    N     0.72275   0.20269   0.53942   0.00000  Uiso   1.00
N89    N     0.88320   0.50088   0.60368   0.00000  Uiso   1.00
N90    N     0.96019   0.30377   0.17470   0.00000  Uiso   1.00
N91    N     0.79318   0.16159   0.57402   0.00000  Uiso   1.00
N92    N     0.95364   0.45978   0.63827   0.00000  Uiso   1.00
C93    C     0.67428   0.14689   0.92467   0.00000  Uiso   1.00
C94    C     0.63941   0.15920   0.85470   0.00000  Uiso   1.00
C95    C     0.64934   0.14666   0.77660   0.00000  Uiso   1.00
C96    C     0.61263   0.16132   0.72131   0.00000  Uiso   1.00
C97    C     0.56535   0.17647   0.60930   0.00000  Uiso   1.00
C98    C     0.68545   0.19839   0.96474   0.00000  Uiso   1.00
C99    C     0.73407   0.21880   0.97917   0.00000  Uiso   1.00
C100   C     0.73611   0.26645   0.01653   0.00000  Uiso   1.00
C101   C     0.76030   0.34242   0.07541   0.00000  Uiso   1.00
C102   C     0.64122   0.11620   0.98244   0.00000  Uiso   1.00
C103   C     0.65267   0.06752   0.01177   0.00000  Uiso   1.00
C104   C     0.61748   0.04598   0.06404   0.00000  Uiso   1.00
C105   C     0.57300   0.99434   0.15040   0.00000  Uiso   1.00
C106   C     0.59145   0.19522   0.96535   0.00000  Uiso   1.00
C107   C     0.59443   0.18545   0.87680   0.00000  Uiso   1.00
C108   C     0.55770   0.20013   0.82161   0.00000  Uiso   1.00
C109   C     0.56756   0.18762   0.74344   0.00000  Uiso   1.00
C110   C     0.64046   0.22464   0.98684   0.00000  Uiso   1.00
C111   C     0.64243   0.27227   0.02419   0.00000  Uiso   1.00
C112   C     0.69104   0.29275   0.03867   0.00000  Uiso   1.00
C113   C     0.59623   0.14245   0.00454   0.00000  Uiso   1.00
C114   C     0.56102   0.12099   0.05678   0.00000  Uiso   1.00
C115   C     0.57241   0.07228   0.08618   0.00000  Uiso   1.00
H116   H     0.70931   0.12645   0.90746   0.00000  Uiso   1.00
H117   H     0.68416   0.12635   0.75952   0.00000  Uiso   1.00
H118   H     0.76888   0.19847   0.96207   0.00000  Uiso   1.00
H119   H     0.68749   0.04721   0.99465   0.00000  Uiso   1.00
H120   H     0.63645   0.13783   0.60524   0.00000  Uiso   1.00
H121   H     0.81508   0.28989   0.03235   0.00000  Uiso   1.00
H122   H     0.64345   0.97094   0.10106   0.00000  Uiso   1.00
H123   H     0.55642   0.21566   0.98256   0.00000  Uiso   1.00
H124   H     0.52288   0.22045   0.83873   0.00000  Uiso   1.00
H125   H     0.60761   0.29257   0.04129   0.00000  Uiso   1.00
H126   H     0.52621   0.14131   0.07387   0.00000  Uiso   1.00
H127   H     0.50555   0.21421   0.66953   0.00000  Uiso   1.00
H128   H     0.68419   0.36627   0.09665   0.00000  Uiso   1.00
H129   H     0.51255   0.04731   0.16536   0.00000  Uiso   1.00
O130   O     0.55170   0.17758   0.54141   0.00000  Uiso   1.00
O131   O     0.78607   0.37707   0.10178   0.00000  Uiso   1.00
O132   O     0.56089   0.95861   0.19192   0.00000  Uiso   1.00
N133   N     0.61024   0.15514   0.64011   0.00000  Uiso   1.00
N134   N     0.77725   0.29731   0.03942   0.00000  Uiso   1.00
N135   N     0.61680   0.99912   0.10368   0.00000  Uiso   1.00
N136   N     0.53981   0.19623   0.67470   0.00000  Uiso   1.00
N137   N     0.70682   0.33841   0.07402   0.00000  Uiso   1.00
N138   N     0.54636   0.04022   0.13827   0.00000  Uiso   1.00
C139   C     0.17428   0.64689   0.42467   0.00000  Uiso   1.00
C140   C     0.13941   0.65920   0.35470   0.00000  Uiso   1.00
C141   C     0.14934   0.64666   0.27660   0.00000  Uiso   1.00
C142   C     0.11263   0.66132   0.22131   0.00000  Uiso   1.00
C143   C     0.06535   0.67647   0.10930   0.00000  Uiso   1.00
C144   C     0.18545   0.69839   0.46474   0.00000  Uiso   1.00
C145   C     0.23407   0.71880   0.47917   0.00000  Uiso   1.00
C146   C     0.23611   0.76645   0.51653   0.00000  Uiso   1.00
C147   C     0.26030   0.84242   0.57541   0.00000  Uiso   1.00
C148   C     0.14122   0.61620   0.48244   0.00000  Uiso   1.00
C149   C     0.15267   0.56752   0.51177   0.00000  Uiso   1.00
C150   C     0.11748   0.54598   0.56404   0.00000  Uiso   1.00
C151   C     0.07300   0.49434   0.65040   0.00000  Uiso   1.00
C152   C     0.09145   0.69522   0.46535   0.00000  Uiso   1.00
C153   C     0.09443   0.68545   0.37680   0.00000  Uiso   1.00
C154   C     0.05770   0.70013   0.32161   0.00000  Uiso   1.00
C155   C     0.06756   0.68762   0.24344   0.00000  Uiso   1.00
C156   C     0.14046   0.72464   0.48684   0.00000  Uiso   1.00
C157   C     0.14243   0.77227   0.52419   0.00000  Uiso   1.00
C158   C     0.19104   0.79275   0.53867   0.00000  Uiso   1.00
C159   C     0.09623   0.64245   0.50454   0.00000  Uiso   1.00
C160   C     0.06102   0.62099   0.55678   0.00000  Uiso   1.00
C161   C     0.07241   0.57228   0.58618   0.00000  Uiso   1.00
H162   H     0.20931   0.62645   0.40746   0.00000  Uiso   1.00
H163   H     0.18416   0.62635   0.25952   0.00000  Uiso   1.00
H164   H     0.26888   0.69847   0.46207   0.00000  Uiso   1.00
H165   H     0.18749   0.54721   0.49465   0.00000  Uiso   1.00
H166   H     0.13645   0.63783   0.10524   0.00000  Uiso   1.00
H167   H     0.31508   0.78989   0.53235   0.00000  Uiso   1.00
H168   H     0.14345   0.47094   0.60106   0.00000  Uiso   1.00
H169   H     0.05642   0.71566   0.48256   0.00000  Uiso   1.00
H170   H     0.02288   0.72045   0.33873   0.00000  Uiso   1.00
H171   H     0.10761   0.79257   0.54129   0.00000  Uiso   1.00
H172   H     0.02621   0.64131   0.57387   0.00000  Uiso   1.00
H173   H     0.00555   0.71421   0.16953   0.00000  Uiso   1.00
H174   H     0.18419   0.86627   0.59665   0.00000  Uiso   1.00
H175   H     0.01255   0.54731   0.66536   0.00000  Uiso   1.00
O176   O     0.05170   0.67758   0.04141   0.00000  Uiso   1.00
O177   O     0.28607   0.87707   0.60178   0.00000  Uiso   1.00
O178   O     0.06089   0.45861   0.69192   0.00000  Uiso   1.00
N179   N     0.11024   0.65514   0.14011   0.00000  Uiso   1.00
N180   N     0.27725   0.79731   0.53942   0.00000  Uiso   1.00
N181   N     0.11680   0.49912   0.60368   0.00000  Uiso   1.00
N182   N     0.03981   0.69623   0.17470   0.00000  Uiso   1.00
N183   N     0.20682   0.83841   0.57402   0.00000  Uiso   1.00
N184   N     0.04636   0.54022   0.63827   0.00000  Uiso   1.00
C185   C     0.85311   0.67428   0.07533   0.00000  Uiso   1.00
C186   C     0.84080   0.63941   0.14530   0.00000  Uiso   1.00
C187   C     0.85334   0.64934   0.22340   0.00000  Uiso   1.00
C188   C     0.83868   0.61263   0.27869   0.00000  Uiso   1.00
C189   C     0.82353   0.56535   0.39070   0.00000  Uiso   1.00
C190   C     0.80161   0.68545   0.03526   0.00000  Uiso   1.00
C191   C     0.78120   0.73407   0.02083   0.00000  Uiso   1.00
C192   C     0.73355   0.73611   0.98347   0.00000  Uiso   1.00
C193   C     0.65758   0.76030   0.92459   0.00000  Uiso   1.00
C194   C     0.88380   0.64122   0.01756   0.00000  Uiso   1.00
C195   C     0.93248   0.65267   0.98823   0.00000  Uiso   1.00
C196   C     0.95402   0.61748   0.93596   0.00000  Uiso   1.00
C197   C     0.00566   0.57300   0.84960   0.00000  Uiso   1.00
C198   C     0.80478   0.59145   0.03465   0.00000  Uiso   1.00
C199   C     0.81455   0.59443   0.12320   0.00000  Uiso   1.00
C200   C     0.79987   0.55770   0.17839   0.00000  Uiso   1.00
C201   C     0.81238   0.56756   0.25656   0.00000  Uiso   1.00
C202   C     0.77536   0.64046   0.01316   0.00000  Uiso   1.00
C203   C     0.72773   0.64243   0.97581   0.00000  Uiso   1.00
C204   C     0.70725   0.69104   0.96133   0.00000  Uiso   1.00
C205   C     0.85755   0.59623   0.99546   0.00000  Uiso   1.00
C206   C     0.87901   0.56102   0.94322   0.00000  Uiso   1.00
C207   C     0.92772   0.57241   0.91382   0.00000  Uiso   1.00
H208   H     0.87355   0.70931   0.09254   0.00000  Uiso   1.00
H209   H     0.87365   0.68416   0.24048   0.00000  Uiso   1.00
H210   H     0.80153   0.76888   0.03793   0.00000  Uiso   1.00
H211   H     0.95279   0.68749   0.00535   0.00000  Uiso   1.00
H212   H     0.86217   0.63645   0.39476   0.00000  Uiso   1.00
H213   H     0.71011   0.81508   0.96765   0.00000  Uiso   1.00
H214   H     0.02906   0.64345   0.89894   0.00000  Uiso   1.00
H215   H     0.78434   0.55642   0.01744   0.00000  Uiso   1.00
H216   H     0.77955   0.52288   0.16127   0.00000  Uiso   1.00
H217   H     0.70743   0.60761   0.95871   0.00000  Uiso   1.00
H218   H     0.85869   0.52621   0.92613   0.00000  Uiso   1.00
H219   H     0.78579   0.50555   0.33047   0.00000  Uiso   1.00
H220   H     0.63373   0.68419   0.90335   0.00000  Uiso   1.00
H221   H     0.95269   0.51255   0.83464   0.00000  Uiso   1.00
O222   O     0.82242   0.55170   0.45859   0.00000  Uiso   1.00
O223   O     0.62293   0.78607   0.89822   0.00000  Uiso   1.00
O224   O     0.04139   0.56089   0.80808   0.00000  Uiso   1.00
N225   N     0.84486   0.61024   0.35989   0.00000  Uiso   1.00
N226   N     0.70269   0.77725   0.96058   0.00000  Uiso   1.00
N227   N     0.00088   0.61680   0.89632   0.00000  Uiso   1.00
N228   N     0.80377   0.53981   0.32530   0.00000  Uiso   1.00
N229   N     0.66159   0.70682   0.92598   0.00000  Uiso   1.00
N230   N     0.95978   0.54636   0.86173   0.00000  Uiso   1.00
C231   C     0.35311   0.17428   0.57533   0.00000  Uiso   1.00
C232   C     0.34080   0.13941   0.64530   0.00000  Uiso   1.00
C233   C     0.35334   0.14934   0.72340   0.00000  Uiso   1.00
C234   C     0.33868   0.11263   0.77869   0.00000  Uiso   1.00
C235   C     0.32353   0.06535   0.89070   0.00000  Uiso   1.00
C236   C     0.30161   0.18545   0.53526   0.00000  Uiso   1.00
C237   C     0.28120   0.23407   0.52083   0.00000  Uiso   1.00
C238   C     0.23355   0.23611   0.48347   0.00000  Uiso   1.00
C239   C     0.15758   0.26030   0.42459   0.00000  Uiso   1.00
C240   C     0.38380   0.14122   0.51756   0.00000  Uiso   1.00
C241   C     0.43248   0.15267   0.48823   0.00000  Uiso   1.00
C242   C     0.45402   0.11748   0.43596   0.00000  Uiso   1.00
C243   C     0.50566   0.07300   0.34960   0.00000  Uiso   1.00
C244   C     0.30478   0.09145   0.53465   0.00000  Uiso   1.00
C245   C     0.31455   0.09443   0.62320   0.00000  Uiso   1.00
C246   C     0.29987   0.05770   0.67839   0.00000  Uiso   1.00
C247   C     0.31238   0.06756   0.75656   0.00000  Uiso   1.00
C248   C     0.27536   0.14046   0.51316   0.00000  Uiso   1.00
C249   C     0.22773   0.14243   0.47581   0.00000  Uiso   1.00
C250   C     0.20725   0.19104   0.46133   0.00000  Uiso   1.00
C251   C     0.35755   0.09623   0.49546   0.00000  Uiso   1.00
C252   C     0.37901   0.06102   0.44322   0.00000  Uiso   1.00
C253   C     0.42772   0.07241   0.41382   0.00000  Uiso   1.00
H254   H     0.37355   0.20931   0.59254   0.00000  Uiso   1.00
H255   H     0.37365   0.18416   0.74048   0.00000  Uiso   1.00
H256   H     0.30153   0.26888   0.53793   0.00000  Uiso   1.00
H257   H     0.45279   0.18749   0.50535   0.00000  Uiso   1.00
H258   H     0.36217   0.13645   0.89476   0.00000  Uiso   1.00
H259   H     0.21011   0.31508   0.46765   0.00000  Uiso   1.00
H260   H     0.52906   0.14345   0.39894   0.00000  Uiso   1.00
H261   H     0.28434   0.05642   0.51744   0.00000  Uiso   1.00
H262   H     0.27955   0.02288   0.66127   0.00000  Uiso   1.00
H263   H     0.20743   0.10761   0.45871   0.00000  Uiso   1.00
H264   H     0.35869   0.02621   0.42613   0.00000  Uiso   1.00
H265   H     0.28579   0.00555   0.83047   0.00000  Uiso   1.00
H266   H     0.13373   0.18419   0.40335   0.00000  Uiso   1.00
H267   H     0.45269   0.01255   0.33464   0.00000  Uiso   1.00
O268   O     0.32242   0.05170   0.95859   0.00000  Uiso   1.00
O269   O     0.12293   0.28607   0.39822   0.00000  Uiso   1.00
O270   O     0.54139   0.06089   0.30808   0.00000  Uiso   1.00
N271   N     0.34486   0.11024   0.85989   0.00000  Uiso   1.00
N272   N     0.20269   0.27725   0.46058   0.00000  Uiso   1.00
N273   N     0.50088   0.11680   0.39632   0.00000  Uiso   1.00
N274   N     0.30377   0.03981   0.82530   0.00000  Uiso   1.00
N275   N     0.16159   0.20682   0.42598   0.00000  Uiso   1.00
N276   N     0.45978   0.04636   0.36173   0.00000  Uiso   1.00
C277   C     0.14689   0.32572   0.07533   0.00000  Uiso   1.00
C278   C     0.15920   0.36059   0.14530   0.00000  Uiso   1.00
C279   C     0.14666   0.35066   0.22340   0.00000  Uiso   1.00
C280   C     0.16132   0.38737   0.27869   0.00000  Uiso   1.00
C281   C     0.17647   0.43465   0.39070   0.00000  Uiso   1.00
C282   C     0.19839   0.31455   0.03526   0.00000  Uiso   1.00
C283   C     0.21880   0.26593   0.02083   0.00000  Uiso   1.00
C284   C     0.26645   0.26389   0.98347   0.00000  Uiso   1.00
C285   C     0.34242   0.23970   0.92459   0.00000  Uiso   1.00
C286   C     0.11620   0.35878   0.01756   0.00000  Uiso   1.00
C287   C     0.06752   0.34733   0.98823   0.00000  Uiso   1.00
C288   C     0.04598   0.38252   0.93596   0.00000  Uiso   1.00
C289   C     0.99434   0.42700   0.84960   0.00000  Uiso   1.00
C290   C     0.19522   0.40855   0.03465   0.00000  Uiso   1.00
C291   C     0.18545   0.40557   0.12320   0.00000  Uiso   1.00
C292   C     0.20013   0.44230   0.17839   0.00000  Uiso   1.00
C293   C     0.18762   0.43244   0.25656   0.00000  Uiso   1.00
C294   C     0.22464   0.35954   0.01316   0.00000  Uiso   1.00
C295   C     0.27227   0.35757   0.97581   0.00000  Uiso   1.00
C296   C     0.29275   0.30896   0.96133   0.00000  Uiso   1.00
C297   C     0.14245   0.40377   0.99546   0.00000  Uiso   1.00
C298   C     0.12099   0.43898   0.94322   0.00000  Uiso   1.00
C299   C     0.07228   0.42759   0.91382   0.00000  Uiso   1.00
H300   H     0.12645   0.29069   0.09254   0.00000  Uiso   1.00
H301   H     0.12635   0.31584   0.24048   0.00000  Uiso   1.00
H302   H     0.19847   0.23112   0.03793   0.00000  Uiso   1.00
H303   H     0.04721   0.31251   0.00535   0.00000  Uiso   1.00
H304   H     0.13783   0.36355   0.39476   0.00000  Uiso   1.00
H305   H     0.28989   0.18492   0.96765   0.00000  Uiso   1.00
H306   H     0.97094   0.35655   0.89894   0.00000  Uiso   1.00
H307   H     0.21566   0.44358   0.01744   0.00000  Uiso   1.00
H308   H     0.22045   0.47712   0.16127   0.00000  Uiso   1.00
H309   H     0.29257   0.39239   0.95871   0.00000  Uiso   1.00
H310   H     0.14131   0.47379   0.92613   0.00000  Uiso   1.00
H311   H     0.21421   0.49445   0.33047   0.00000  Uiso   1.00
H312   H     0.36627   0.31581   0.90335   0.00000  Uiso   1.00
H313   H     0.04731   0.48745   0.83464   0.00000  Uiso   1.00
O314   O     0.17758   0.44830   0.45859   0.00000  Uiso   1.00
O315   O     0.37707   0.21393   0.89822   0.00000  Uiso   1.00
O316   O     0.95861   0.43911   0.80808   0.00000  Uiso   1.00
N317   N     0.15514   0.38976   0.35989   0.00000  Uiso   1.00
N318   N     0.29731   0.22275   0.96058   0.00000  Uiso   1.00
N319   N     0.99912   0.38320   0.89632   0.00000  Uiso   1.00
N320   N     0.19623   0.46019   0.32530   0.00000  Uiso   1.00
N321   N     0.33841   0.29318   0.92598   0.00000  Uiso   1.00
N322   N     0.04022   0.45364   0.86173   0.00000  Uiso   1.00
C323   C     0.64689   0.82572   0.57533   0.00000  Uiso   1.00
C324   C     0.65920   0.86059   0.64530   0.00000  Uiso   1.00
C325   C     0.64666   0.85066   0.72340   0.00000  Uiso   1.00
C326   C     0.66132   0.88737   0.77869   0.00000  Uiso   1.00
C327   C     0.67647   0.93465   0.89070   0.00000  Uiso   1.00
C328   C     0.69839   0.81455   0.53526   0.00000  Uiso   1.00
C329   C     0.71880   0.76593   0.52083   0.00000  Uiso   1.00
C330   C     0.76645   0.76389   0.48347   0.00000  Uiso   1.00
C331   C     0.84242   0.73970   0.42459   0.00000  Uiso   1.00
C332   C     0.61620   0.85878   0.51756   0.00000  Uiso   1.00
C333   C     0.56752   0.84733   0.48823   0.00000  Uiso   1.00
C334   C     0.54598   0.88252   0.43596   0.00000  Uiso   1.00
C335   C     0.49434   0.92700   0.34960   0.00000  Uiso   1.00
C336   C     0.69522   0.90855   0.53465   0.00000  Uiso   1.00
C337   C     0.68545   0.90557   0.62320   0.00000  Uiso   1.00
C338   C     0.70013   0.94230   0.67839   0.00000  Uiso   1.00
C339   C     0.68762   0.93244   0.75656   0.00000  Uiso   1.00
C340   C     0.72464   0.85954   0.51316   0.00000  Uiso   1.00
C341   C     0.77227   0.85757   0.47581   0.00000  Uiso   1.00
C342   C     0.79275   0.80896   0.46133   0.00000  Uiso   1.00
C343   C     0.64245   0.90377   0.49546   0.00000  Uiso   1.00
C344   C     0.62099   0.93898   0.44322   0.00000  Uiso   1.00
C345   C     0.57228   0.92759   0.41382   0.00000  Uiso   1.00
H346   H     0.62645   0.79069   0.59254   0.00000  Uiso   1.00
H347   H     0.62635   0.81584   0.74048   0.00000  Uiso   1.00
H348   H     0.69847   0.73112   0.53793   0.00000  Uiso   1.00
H349   H     0.54721   0.81251   0.50535   0.00000  Uiso   1.00
H350   H     0.63783   0.86355   0.89476   0.00000  Uiso   1.00
H351   H     0.78989   0.68492   0.46765   0.00000  Uiso   1.00
H352   H     0.47094   0.85655   0.39894   0.00000  Uiso   1.00
H353   H     0.71566   0.94358   0.51744   0.00000  Uiso   1.00
H354   H     0.72045   0.97712   0.66127   0.00000  Uiso   1.00
H355   H     0.79257   0.89239   0.45871   0.00000  Uiso   1.00
H356   H     0.64131   0.97379   0.42613   0.00000  Uiso   1.00
H357   H     0.71421   0.99445   0.83047   0.00000  Uiso   1.00
H358   H     0.86627   0.81581   0.40335   0.00000  Uiso   1.00
H359   H     0.54731   0.98745   0.33464   0.00000  Uiso   1.00
O360   O     0.67758   0.94830   0.95859   0.00000  Uiso   1.00
O361   O     0.87707   0.71393   0.39822   0.00000  Uiso   1.00
O362   O     0.45861   0.93911   0.30808   0.00000  Uiso   1.00
N363   N     0.65514   0.88976   0.85989   0.00000  Uiso   1.00
N364   N     0.79731   0.72275   0.46058   0.00000  Uiso   1.00
N365   N     0.49912   0.88320   0.39632   0.00000  Uiso   1.00
N366   N     0.69623   0.96019   0.82530   0.00000  Uiso   1.00
N367   N     0.83841   0.79318   0.42598   0.00000  Uiso   1.00
N368   N     0.54022   0.95364   0.36173   0.00000  Uiso   1.00
C369   C     0.17428   0.85311   0.82533   0.00000  Uiso   1.00
C370   C     0.13941   0.84080   0.89530   0.00000  Uiso   1.00
C371   C     0.14934   0.85334   0.97340   0.00000  Uiso   1.00
C372   C     0.11263   0.83868   0.02869   0.00000  Uiso   1.00
C373   C     0.06535   0.82353   0.14070   0.00000  Uiso   1.00
C374   C     0.18545   0.80161   0.78526   0.00000  Uiso   1.00
C375   C     0.23407   0.78120   0.77083   0.00000  Uiso   1.00
C376   C     0.23611   0.73355   0.73347   0.00000  Uiso   1.00
C377   C     0.26030   0.65758   0.67459   0.00000  Uiso   1.00
C378   C     0.14122   0.88380   0.76756   0.00000  Uiso   1.00
C379   C     0.15267   0.93248   0.73823   0.00000  Uiso   1.00
C380   C     0.11748   0.95402   0.68596   0.00000  Uiso   1.00
C381   C     0.07300   0.00566   0.59960   0.00000  Uiso   1.00
C382   C     0.09145   0.80478   0.78465   0.00000  Uiso   1.00
C383   C     0.09443   0.81455   0.87320   0.00000  Uiso   1.00
C384   C     0.05770   0.79987   0.92839   0.00000  Uiso   1.00
C385   C     0.06756   0.81238   0.00656   0.00000  Uiso   1.00
C386   C     0.14046   0.77536   0.76316   0.00000  Uiso   1.00
C387   C     0.14243   0.72773   0.72581   0.00000  Uiso   1.00
C388   C     0.19104   0.70725   0.71133   0.00000  Uiso   1.00
C389   C     0.09623   0.85755   0.74546   0.00000  Uiso   1.00
C390   C     0.06102   0.87901   0.69322   0.00000  Uiso   1.00
C391   C     0.07241   0.92772   0.66382   0.00000  Uiso   1.00
H392   H     0.20931   0.87355   0.84254   0.00000  Uiso   1.00
H393   H     0.18416   0.87365   0.99048   0.00000  Uiso   1.00
H394   H     0.26888   0.80153   0.78793   0.00000  Uiso   1.00
H395   H     0.18749   0.95279   0.75535   0.00000  Uiso   1.00
H396   H     0.13645   0.86217   0.14476   0.00000  Uiso   1.00
H397   H     0.31508   0.71011   0.71765   0.00000  Uiso   1.00
H398   H     0.14345   0.02906   0.64894   0.00000  Uiso   1.00
H399   H     0.05642   0.78434   0.76744   0.00000  Uiso   1.00
H400   H     0.02288   0.77955   0.91127   0.00000  Uiso   1.00
H401   H     0.10761   0.70743   0.70871   0.00000  Uiso   1.00
H402   H     0.02621   0.85869   0.67613   0.00000  Uiso   1.00
H403   H     0.00555   0.78579   0.08047   0.00000  Uiso   1.00
H404   H     0.18419   0.63373   0.65335   0.00000  Uiso   1.00
H405   H     0.01255   0.95269   0.58464   0.00000  Uiso   1.00
O406   O     0.05170   0.82242   0.20859   0.00000  Uiso   1.00
O407   O     0.28607   0.62293   0.64822   0.00000  Uiso   1.00
O408   O     0.06089   0.04139   0.55808   0.00000  Uiso   1.00
N409   N     0.11024   0.84486   0.10989   0.00000  Uiso   1.00
N410   N     0.27725   0.70269   0.71058   0.00000  Uiso   1.00
N411   N     0.11680   0.00088   0.64632   0.00000  Uiso   1.00
N412   N     0.03981   0.80377   0.07530   0.00000  Uiso   1.00
N413   N     0.20682   0.66159   0.67598   0.00000  Uiso   1.00
N414   N     0.04636   0.95978   0.61173   0.00000  Uiso   1.00
C415   C     0.67428   0.35311   0.32533   0.00000  Uiso   1.00
C416   C     0.63941   0.34080   0.39530   0.00000  Uiso   1.00
C417   C     0.64934   0.35334   0.47340   0.00000  Uiso   1.00
C418   C     0.61263   0.33868   0.52869   0.00000  Uiso   1.00
C419   C     0.56535   0.32353   0.64070   0.00000  Uiso   1.00
C420   C     0.68545   0.30161   0.28526   0.00000  Uiso   1.00
C421   C     0.73407   0.28120   0.27083   0.00000  Uiso   1.00
C422   C     0.73611   0.23355   0.23347   0.00000  Uiso   1.00
C423   C     0.76030   0.15758   0.17459   0.00000  Uiso   1.00
C424   C     0.64122   0.38380   0.26756   0.00000  Uiso   1.00
C425   C     0.65267   0.43248   0.23823   0.00000  Uiso   1.00
C426   C     0.61748   0.45402   0.18596   0.00000  Uiso   1.00
C427   C     0.57300   0.50566   0.09960   0.00000  Uiso   1.00
C428   C     0.59145   0.30478   0.28465   0.00000  Uiso   1.00
C429   C     0.59443   0.31455   0.37320   0.00000  Uiso   1.00
C430   C     0.55770   0.29987   0.42839   0.00000  Uiso   1.00
C431   C     0.56756   0.31238   0.50656   0.00000  Uiso   1.00
C432   C     0.64046   0.27536   0.26316   0.00000  Uiso   1.00
C433   C     0.64243   0.22773   0.22581   0.00000  Uiso   1.00
C434   C     0.69104   0.20725   0.21133   0.00000  Uiso   1.00
C435   C     0.59623   0.35755   0.24546   0.00000  Uiso   1.00
C436   C     0.56102   0.37901   0.19322   0.00000  Uiso   1.00
C437   C     0.57241   0.42772   0.16382   0.00000  Uiso   1.00
H438   H     0.70931   0.37355   0.34254   0.00000  Uiso   1.00
H439   H     0.68416   0.37365   0.49048   0.00000  Uiso   1.00
H440   H     0.76888   0.30153   0.28793   0.00000  Uiso   1.00
H441   H     0.68749   0.45279   0.25535   0.00000  Uiso   1.00
H442   H     0.63645   0.36217   0.64476   0.00000  Uiso   1.00
H443   H     0.81508   0.21011   0.21765   0.00000  Uiso   1.00
H444   H     0.64345   0.52906   0.14894   0.00000  Uiso   1.00
H445   H     0.55642   0.28434   0.26744   0.00000  Uiso   1.00
H446   H     0.52288   0.27955   0.41127   0.00000  Uiso   1.00
H447   H     0.60761   0.20743   0.20871   0.00000  Uiso   1.00
H448   H     0.52621   0.35869   0.17613   0.00000  Uiso   1.00
H449   H     0.50555   0.28579   0.58047   0.00000  Uiso   1.00
H450   H     0.68419   0.13373   0.15335   0.00000  Uiso   1.00
H451   H     0.51255   0.45269   0.08464   0.00000  Uiso   1.00
O452   O     0.55170   0.32242   0.70859   0.00000  Uiso   1.00
O453   O     0.78607   0.12293   0.14822   0.00000  Uiso   1.00
O454   O     0.56089   0.54139   0.05808   0.00000  Uiso   1.00
N455   N     0.61024   0.34486   0.60989   0.00000  Uiso   1.00
N456   N     0.77725   0.20269   0.21058   0.00000  Uiso   1.00
N457   N     0.61680   0.50088   0.14632   0.00000  Uiso   1.00
N458   N     0.53981   0.30377   0.57530   0.00000  Uiso   1.00
N459   N     0.70682   0.16159   0.17598   0.00000  Uiso   1.00
N460   N     0.54636   0.45978   0.11173   0.00000  Uiso   1.00
C461   C     0.82572   0.14689   0.82533   0.00000  Uiso   1.00
C462   C     0.86059   0.15920   0.89530   0.00000  Uiso   1.00
C463   C     0.85066   0.14666   0.97340   0.00000  Uiso   1.00
C464   C     0.88737   0.16132   0.02869   0.00000  Uiso   1.00
C465   C     0.93465   0.17647   0.14070   0.00000  Uiso   1.00
C466   C     0.81455   0.19839   0.78526   0.00000  Uiso   1.00
C467   C     0.76593   0.21880   0.77083   0.00000  Uiso   1.00
C468   C     0.76389   0.26645   0.73347   0.00000  Uiso   1.00
C469   C     0.73970   0.34242   0.67459   0.00000  Uiso   1.00
C470   C     0.85878   0.11620   0.76756   0.00000  Uiso   1.00
C471   C     0.84733   0.06752   0.73823   0.00000  Uiso   1.00
C472   C     0.88252   0.04598   0.68596   0.00000  Uiso   1.00
C473   C     0.92700   0.99434   0.59960   0.00000  Uiso   1.00
C474   C     0.90855   0.19522   0.78465   0.00000  Uiso   1.00
C475   C     0.90557   0.18545   0.87320   0.00000  Uiso   1.00
C476   C     0.94230   0.20013   0.92839   0.00000  Uiso   1.00
C477   C     0.93244   0.18762   0.00656   0.00000  Uiso   1.00
C478   C     0.85954   0.22464   0.76316   0.00000  Uiso   1.00
C479   C     0.85757   0.27227   0.72581   0.00000  Uiso   1.00
C480   C     0.80896   0.29275   0.71133   0.00000  Uiso   1.00
C481   C     0.90377   0.14245   0.74546   0.00000  Uiso   1.00
C482   C     0.93898   0.12099   0.69322   0.00000  Uiso   1.00
C483   C     0.92759   0.07228   0.66382   0.00000  Uiso   1.00
H484   H     0.79069   0.12645   0.84254   0.00000  Uiso   1.00
H485   H     0.81584   0.12635   0.99048   0.00000  Uiso   1.00
H486   H     0.73112   0.19847   0.78793   0.00000  Uiso   1.00
H487   H     0.81251   0.04721   0.75535   0.00000  Uiso   1.00
H488   H     0.86355   0.13783   0.14476   0.00000  Uiso   1.00
H489   H     0.68492   0.28989   0.71765   0.00000  Uiso   1.00
H490   H     0.85655   0.97094   0.64894   0.00000  Uiso   1.00
H491   H     0.94358   0.21566   0.76744   0.00000  Uiso   1.00
H492   H     0.97712   0.22045   0.91127   0.00000  Uiso   1.00
H493   H     0.89239   0.29257   0.70871   0.00000  Uiso   1.00
H494   H     0.97379   0.14131   0.67613   0.00000  Uiso   1.00
H495   H     0.99445   0.21421   0.08047   0.00000  Uiso   1.00
H496   H     0.81581   0.36627   0.65335   0.00000  Uiso   1.00
H497   H     0.98745   0.04731   0.58464   0.00000  Uiso   1.00
O498   O     0.94830   0.17758   0.20859   0.00000  Uiso   1.00
O499   O     0.71393   0.37707   0.64822   0.00000  Uiso   1.00
O500   O     0.93911   0.95861   0.55808   0.00000  Uiso   1.00
N501   N     0.88976   0.15514   0.10989   0.00000  Uiso   1.00
N502   N     0.72275   0.29731   0.71058   0.00000  Uiso   1.00
N503   N     0.88320   0.99912   0.64632   0.00000  Uiso   1.00
N504   N     0.96019   0.19623   0.07530   0.00000  Uiso   1.00
N505   N     0.79318   0.33841   0.67598   0.00000  Uiso   1.00
N506   N     0.95364   0.04022   0.61173   0.00000  Uiso   1.00
C507   C     0.32572   0.64689   0.32533   0.00000  Uiso   1.00
C508   C     0.36059   0.65920   0.39530   0.00000  Uiso   1.00
C509   C     0.35066   0.64666   0.47340   0.00000  Uiso   1.00
C510   C     0.38737   0.66132   0.52869   0.00000  Uiso   1.00
C511   C     0.43465   0.67647   0.64070   0.00000  Uiso   1.00
C512   C     0.31455   0.69839   0.28526   0.00000  Uiso   1.00
C513   C     0.26593   0.71880   0.27083   0.00000  Uiso   1.00
C514   C     0.26389   0.76645   0.23347   0.00000  Uiso   1.00
C515   C     0.23970   0.84242   0.17459   0.00000  Uiso   1.00
C516   C     0.35878   0.61620   0.26756   0.00000  Uiso   1.00
C517   C     0.34733   0.56752   0.23823   0.00000  Uiso   1.00
C518   C     0.38252   0.54598   0.18596   0.00000  Uiso   1.00
C519   C     0.42700   0.49434   0.09960   0.00000  Uiso   1.00
C520   C     0.40855   0.69522   0.28465   0.00000  Uiso   1.00
C521   C     0.40557   0.68545   0.37320   0.00000  Uiso   1.00
C522   C     0.44230   0.70013   0.42839   0.00000  Uiso   1.00
C523   C     0.43244   0.68762   0.50656   0.00000  Uiso   1.00
C524   C     0.35954   0.72464   0.26316   0.00000  Uiso   1.00
C525   C     0.35757   0.77227   0.22581   0.00000  Uiso   1.00
C526   C     0.30896   0.79275   0.21133   0.00000  Uiso   1.00
C527   C     0.40377   0.64245   0.24546   0.00000  Uiso   1.00
C528   C     0.43898   0.62099   0.19322   0.00000  Uiso   1.00
C529   C     0.42759   0.57228   0.16382   0.00000  Uiso   1.00
H530   H     0.29069   0.62645   0.34254   0.00000  Uiso   1.00
H531   H     0.31584   0.62635   0.49048   0.00000  Uiso   1.00
H532   H     0.23112   0.69847   0.28793   0.00000  Uiso   1.00
H533   H     0.31251   0.54721   0.25535   0.00000  Uiso   1.00
H534   H     0.36355   0.63783   0.64476   0.00000  Uiso   1.00
H535   H     0.18492   0.78989   0.21765   0.00000  Uiso   1.00
H536   H     0.35655   0.47094   0.14894   0.00000  Uiso   1.00
H537   H     0.44358   0.71566   0.26744   0.00000  Uiso   1.00
H538   H     0.47712   0.72045   0.41127   0.00000  Uiso   1.00
H539   H     0.39239   0.79257   0.20871   0.00000  Uiso   1.00
H540   H     0.47379   0.64131   0.17613   0.00000  Uiso   1.00
H541   H     0.49445   0.71421   0.58047   0.00000  Uiso   1.00
H542   H     0.31581   0.86627   0.15335   0.00000  Uiso   1.00
H543   H     0.48745   0.54731   0.08464   0.00000  Uiso   1.00
O544   O     0.44830   0.67758   0.70859   0.00000  Uiso   1.00
O545   O     0.21393   0.87707   0.14822   0.00000  Uiso   1.00
O546   O     0.43911   0.45861   0.05808   0.00000  Uiso   1.00
N547   N     0.38976   0.65514   0.60989   0.00000  Uiso   1.00
N548   N     0.22275   0.79731   0.21058   0.00000  Uiso   1.00
N549   N     0.38320   0.49912   0.14632   0.00000  Uiso   1.00
N550   N     0.46019   0.69623   0.57530   0.00000  Uiso   1.00
N551   N     0.29318   0.83841   0.17598   0.00000  Uiso   1.00
N552   N     0.45364   0.54022   0.11173   0.00000  Uiso   1.00
C553   C     0.64689   0.67428   0.67467   0.00000  Uiso   1.00
C554   C     0.65920   0.63941   0.60470   0.00000  Uiso   1.00
C555   C     0.64666   0.64934   0.52660   0.00000  Uiso   1.00
C556   C     0.66132   0.61263   0.47131   0.00000  Uiso   1.00
C557   C     0.67647   0.56535   0.35930   0.00000  Uiso   1.00
C558   C     0.69839   0.68545   0.71474   0.00000  Uiso   1.00
C559   C     0.71880   0.73407   0.72917   0.00000  Uiso   1.00
C560   C     0.76645   0.73611   0.76653   0.00000  Uiso   1.00
C561   C     0.84242   0.76030   0.82541   0.00000  Uiso   1.00
C562   C     0.61620   0.64122   0.73244   0.00000  Uiso   1.00
C563   C     0.56752   0.65267   0.76177   0.00000  Uiso   1.00
C564   C     0.54598   0.61748   0.81404   0.00000  Uiso   1.00
C565   C     0.49434   0.57300   0.90040   0.00000  Uiso   1.00
C566   C     0.69522   0.59145   0.71535   0.00000  Uiso   1.00
C567   C     0.68545   0.59443   0.62680   0.00000  Uiso   1.00
C568   C     0.70013   0.55770   0.57161   0.00000  Uiso   1.00
C569   C     0.68762   0.56756   0.49344   0.00000  Uiso   1.00
C570   C     0.72464   0.64046   0.73684   0.00000  Uiso   1.00
C571   C     0.77227   0.64243   0.77419   0.00000  Uiso   1.00
C572   C     0.79275   0.69104   0.78867   0.00000  Uiso   1.00
C573   C     0.64245   0.59623   0.75454   0.00000  Uiso   1.00
C574   C     0.62099   0.56102   0.80678   0.00000  Uiso   1.00
C575   C     0.57228   0.57241   0.83618   0.00000  Uiso   1.00
H576   H     0.62645   0.70931   0.65746   0.00000  Uiso   1.00
H577   H     0.62635   0.68416   0.50952   0.00000  Uiso   1.00
H578   H     0.69847   0.76888   0.71207   0.00000  Uiso   1.00
H579   H     0.54721   0.68749   0.74465   0.00000  Uiso   1.00
H580   H     0.63783   0.63645   0.35524   0.00000  Uiso   1.00
H581   H     0.78989   0.81508   0.78235   0.00000  Uiso   1.00
H582   H     0.47094   0.64345   0.85106   0.00000  Uiso   1.00
H583   H     0.71566   0.55642   0.73256   0.00000  Uiso   1.00
H584   H     0.72045   0.52288   0.58873   0.00000  Uiso   1.00
H585   H     0.79257   0.60761   0.79129   0.00000  Uiso   1.00
H586   H     0.64131   0.52621   0.82387   0.00000  Uiso   1.00
H587   H     0.71421   0.50555   0.41953   0.00000  Uiso   1.00
H588   H     0.86627   0.68419   0.84665   0.00000  Uiso   1.00
H589   H     0.54731   0.51255   0.91536   0.00000  Uiso   1.00
O590   O     0.67758   0.55170   0.29141   0.00000  Uiso   1.00
O591   O     0.87707   0.78607   0.85178   0.00000  Uiso   1.00
O592   O     0.45861   0.56089   0.94192   0.00000  Uiso   1.00
N593   N     0.65514   0.61024   0.39011   0.00000  Uiso   1.00
N594   N     0.79731   0.77725   0.78942   0.00000  Uiso   1.00
N595   N     0.49912   0.61680   0.85368   0.00000  Uiso   1.00
N596   N     0.69623   0.53981   0.42470   0.00000  Uiso   1.00
N597   N     0.83841   0.70682   0.82402   0.00000  Uiso   1.00
N598   N     0.54022   0.54636   0.88827   0.00000  Uiso   1.00
C599   C     0.14689   0.17428   0.17467   0.00000  Uiso   1.00
C600   C     0.15920   0.13941   0.10470   0.00000  Uiso   1.00
C601   C     0.14666   0.14934   0.02660   0.00000  Uiso   1.00
C602   C     0.16132   0.11263   0.97131   0.00000  Uiso   1.00
C603   C     0.17647   0.06535   0.85930   0.00000  Uiso   1.00
C604   C     0.19839   0.18545   0.21474   0.00000  Uiso   1.00
C605   C     0.21880   0.23407   0.22917   0.00000  Uiso   1.00
C606   C     0.26645   0.23611   0.26653   0.00000  Uiso   1.00
C607   C     0.34242   0.26030   0.32541   0.00000  Uiso   1.00
C608   C     0.11620   0.14122   0.23244   0.00000  Uiso   1.00
C609   C     0.06752   0.15267   0.26177   0.00000  Uiso   1.00
C610   C     0.04598   0.11748   0.31404   0.00000  Uiso   1.00
C611   C     0.99434   0.07300   0.40040   0.00000  Uiso   1.00
C612   C     0.19522   0.09145   0.21535   0.00000  Uiso   1.00
C613   C     0.18545   0.09443   0.12680   0.00000  Uiso   1.00
C614   C     0.20013   0.05770   0.07161   0.00000  Uiso   1.00
C615   C     0.18762   0.06756   0.99344   0.00000  Uiso   1.00
C616   C     0.22464   0.14046   0.23684   0.00000  Uiso   1.00
C617   C     0.27227   0.14243   0.27419   0.00000  Uiso   1.00
C618   C     0.29275   0.19104   0.28867   0.00000  Uiso   1.00
C619   C     0.14245   0.09623   0.25454   0.00000  Uiso   1.00
C620   C     0.12099   0.06102   0.30678   0.00000  Uiso   1.00
C621   C     0.07228   0.07241   0.33618   0.00000  Uiso   1.00
H622   H     0.12645   0.20931   0.15746   0.00000  Uiso   1.00
H623   H     0.12635   0.18416   0.00952   0.00000  Uiso   1.00
H624   H     0.19847   0.26888   0.21207   0.00000  Uiso   1.00
H625   H     0.04721   0.18749   0.24465   0.00000  Uiso   1.00
H626   H     0.13783   0.13645   0.85524   0.00000  Uiso   1.00
H627   H     0.28989   0.31508   0.28235   0.00000  Uiso   1.00
H628   H     0.97094   0.14345   0.35106   0.00000  Uiso   1.00
H629   H     0.21566   0.05642   0.23256   0.00000  Uiso   1.00
H630   H     0.22045   0.02288   0.08873   0.00000  Uiso   1.00
H631   H     0.29257   0.10761   0.29129   0.00000  Uiso   1.00
H632   H     0.14131   0.02621   0.32387   0.00000  Uiso   1.00
H633   H     0.21421   0.00555   0.91953   0.00000  Uiso   1.00
H634   H     0.36627   0.18419   0.34665   0.00000  Uiso   1.00
H635   H     0.04731   0.01255   0.41536   0.00000  Uiso   1.00
O636   O     0.17758   0.05170   0.79141   0.00000  Uiso   1.00
O637   O     0.37707   0.28607   0.35178   0.00000  Uiso   1.00
O638   O     0.95861   0.06089   0.44192   0.00000  Uiso   1.00
N639   N     0.15514   0.11024   0.89011   0.00000  Uiso   1.00
N640   N     0.29731   0.27725   0.28942   0.00000  Uiso   1.00
N641   N     0.99912   0.11680   0.35368   0.00000  Uiso   1.00
N642   N     0.19623   0.03981   0.92470   0.00000  Uiso   1.00
N643   N     0.33841   0.20682   0.32402   0.00000  Uiso   1.00
N644   N     0.04022   0.04636   0.38827   0.00000  Uiso   1.00
C645   C     0.35311   0.32572   0.67467   0.00000  Uiso   1.00
C646   C     0.34080   0.36059   0.60470   0.00000  Uiso   1.00
C647   C     0.35334   0.35066   0.52660   0.00000  Uiso   1.00
C648   C     0.33868   0.38737   0.47131   0.00000  Uiso   1.00
C649   C     0.32353   0.43465   0.35930   0.00000  Uiso   1.00
C650   C     0.30161   0.31455   0.71474   0.00000  Uiso   1.00
C651   C     0.28120   0.26593   0.72917   0.00000  Uiso   1.00
C652   C     0.23355   0.26389   0.76653   0.00000  Uiso   1.00
C653   C     0.15758   0.23970   0.82541   0.00000  Uiso   1.00
C654   C     0.38380   0.35878   0.73244   0.00000  Uiso   1.00
C655   C     0.43248   0.34733   0.76177   0.00000  Uiso   1.00
C656   C     0.45402   0.38252   0.81404   0.00000  Uiso   1.00
C657   C     0.50566   0.42700   0.90040   0.00000  Uiso   1.00
C658   C     0.30478   0.40855   0.71535   0.00000  Uiso   1.00
C659   C     0.31455   0.40557   0.62680   0.00000  Uiso   1.00
C660   C     0.29987   0.44230   0.57161   0.00000  Uiso   1.00
C661   C     0.31238   0.43244   0.49344   0.00000  Uiso   1.00
C662   C     0.27536   0.35954   0.73684   0.00000  Uiso   1.00
C663   C     0.22773   0.35757   0.77419   0.00000  Uiso   1.00
C664   C     0.20725   0.30896   0.78867   0.00000  Uiso   1.00
C665   C     0.35755   0.40377   0.75454   0.00000  Uiso   1.00
C666   C     0.37901   0.43898   0.80678   0.00000  Uiso   1.00
C667   C     0.42772   0.42759   0.83618   0.00000  Uiso   1.00
H668   H     0.37355   0.29069   0.65746   0.00000  Uiso   1.00
H669   H     0.37365   0.31584   0.50952   0.00000  Uiso   1.00
H670   H     0.30153   0.23112   0.71207   0.00000  Uiso   1.00
H671   H     0.45279   0.31251   0.74465   0.00000  Uiso   1.00
H672   H     0.36217   0.36355   0.35524   0.00000  Uiso   1.00
H673   H     0.21011   0.18492   0.78235   0.00000  Uiso   1.00
H674   H     0.52906   0.35655   0.85106   0.00000  Uiso   1.00
H675   H     0.28434   0.44358   0.73256   0.00000  Uiso   1.00
H676   H     0.27955   0.47712   0.58873   0.00000  Uiso   1.00
H677   H     0.20743   0.39239   0.79129   0.00000  Uiso   1.00
H678   H     0.35869   0.47379   0.82387   0.00000  Uiso   1.00
H679   H     0.28579   0.49445   0.41953   0.00000  Uiso   1.00
H680   H     0.13373   0.31581   0.84665   0.00000  Uiso   1.00
H681   H     0.45269   0.48745   0.91536   0.00000  Uiso   1.00
O682   O     0.32242   0.44830   0.29141   0.00000  Uiso   1.00
O683   O     0.12293   0.21393   0.85178   0.00000  Uiso   1.00
O684   O     0.54139   0.43911   0.94192   0.00000  Uiso   1.00
N685   N     0.34486   0.38976   0.39011   0.00000  Uiso   1.00
N686   N     0.20269   0.22275   0.78942   0.00000  Uiso   1.00
N687   N     0.50088   0.38320   0.85368   0.00000  Uiso   1.00
N688   N     0.30377   0.46019   0.42470   0.00000  Uiso   1.00
N689   N     0.16159   0.29318   0.82402   0.00000  Uiso   1.00
N690   N     0.45978   0.45364   0.88827   0.00000  Uiso   1.00
C691   C     0.85311   0.82572   0.17467   0.00000  Uiso   1.00
C692   C     0.84080   0.86059   0.10470   0.00000  Uiso   1.00
C693   C     0.85334   0.85066   0.02660   0.00000  Uiso   1.00
C694   C     0.83868   0.88737   0.97131   0.00000  Uiso   1.00
C695   C     0.82353   0.93465   0.85930   0.00000  Uiso   1.00
C696   C     0.80161   0.81455   0.21474   0.00000  Uiso   1.00
C697   C     0.78120   0.76593   0.22917   0.00000  Uiso   1.00
C698   C     0.73355   0.76389   0.26653   0.00000  Uiso   1.00
C699   C     0.65758   0.73970   0.32541   0.00000  Uiso   1.00
C700   C     0.88380   0.85878   0.23244   0.00000  Uiso   1.00
C701   C     0.93248   0.84733   0.26177   0.00000  Uiso   1.00
C702   C     0.95402   0.88252   0.31404   0.00000  Uiso   1.00
C703   C     0.00566   0.92700   0.40040   0.00000  Uiso   1.00
C704   C     0.80478   0.90855   0.21535   0.00000  Uiso   1.00
C705   C     0.81455   0.90557   0.12680   0.00000  Uiso   1.00
C706   C     0.79987   0.94230   0.07161   0.00000  Uiso   1.00
C707   C     0.81238   0.93244   0.99344   0.00000  Uiso   1.00
C708   C     0.77536   0.85954   0.23684   0.00000  Uiso   1.00
C709   C     0.72773   0.85757   0.27419   0.00000  Uiso   1.00
C710   C     0.70725   0.80896   0.28867   0.00000  Uiso   1.00
C711   C     0.85755   0.90377   0.25454   0.00000  Uiso   1.00
C712   C     0.87901   0.93898   0.30678   0.00000  Uiso   1.00
C713   C     0.92772   0.92759   0.33618   0.00000  Uiso   1.00
H714   H     0.87355   0.79069   0.15746   0.00000  Uiso   1.00
H715   H     0.87365   0.81584   0.00952   0.00000  Uiso   1.00
H716   H     0.80153   0.73112   0.21207   0.00000  Uiso   1.00
H717   H     0.95279   0.81251   0.24465   0.00000  Uiso   1.00
H718   H     0.86217   0.86355   0.85524   0.00000  Uiso   1.00
H719   H     0.71011   0.68492   0.28235   0.00000  Uiso   1.00
H720   H     0.02906   0.85655   0.35106   0.00000  Uiso   1.00
H721   H     0.78434   0.94358   0.23256   0.00000  Uiso   1.00
H722   H     0.77955   0.97712   0.08873   0.00000  Uiso   1.00
H723   H     0.70743   0.89239   0.29129   0.00000  Uiso   1.00
H724   H     0.85869   0.97379   0.32387   0.00000  Uiso   1.00
H725   H     0.78579   0.99445   0.91953   0.00000  Uiso   1.00
H726   H     0.63373   0.81581   0.34665   0.00000  Uiso   1.00
H727   H     0.95269   0.98745   0.41536   0.00000  Uiso   1.00
O728   O     0.82242   0.94830   0.79141   0.00000  Uiso   1.00
O729   O     0.62293   0.71393   0.35178   0.00000  Uiso   1.00
O730   O     0.04139   0.93911   0.44192   0.00000  Uiso   1.00
N731   N     0.84486   0.88976   0.89011   0.00000  Uiso   1.00
N732   N     0.70269   0.72275   0.28942   0.00000  Uiso   1.00
N733   N     0.00088   0.88320   0.35368   0.00000  Uiso   1.00
N734   N     0.80377   0.96019   0.92470   0.00000  Uiso   1.00
N735   N     0.66159   0.79318   0.32402   0.00000  Uiso   1.00
N736   N     0.95978   0.95364   0.38827   0.00000  Uiso   1.00
