data_job_05762
_audit_creation_date              2018-12-19
_audit_creation_method            'Materials Studio'
_symmetry_space_group_name_H-M    'P1'
_symmetry_Int_Tables_number       1
_symmetry_cell_setting            triclinic
loop_
_symmetry_equiv_pos_as_xyz
  x,y,z
_cell_length_a                    22.9473
_cell_length_b                    13.7625
_cell_length_c                    45.8703
_cell_angle_alpha                 90.0000
_cell_angle_beta                  90.0000
_cell_angle_gamma                 90.0000
loop_
_atom_site_label
_atom_site_type_symbol
_atom_site_fract_x
_atom_site_fract_y
_atom_site_fract_z
_atom_site_U_iso_or_equiv
_atom_site_adp_type
_atom_site_occupancy
C1     C     0.78235   0.02914   0.60740   0.00000  Uiso   1.00
C2     C     0.72308   0.07178   0.59949   0.00000  Uiso   1.00
C3     C     0.67323   0.01889   0.59305   0.00000  Uiso   1.00
C4     C     0.62334   0.07141   0.58634   0.00000  Uiso   1.00
C5     C     0.53132   0.12213   0.57408   0.00000  Uiso   1.00
C6     C     0.82551   0.07130   0.58551   0.00000  Uiso   1.00
C7     C     0.86178   0.01800   0.56733   0.00000  Uiso   1.00
C8     C     0.89812   0.07013   0.54887   0.00000  Uiso   1.00
C9     C     0.96516   0.12011   0.51493   0.00000  Uiso   1.00
C10    C     0.79849   0.07273   0.63687   0.00000  Uiso   1.00
C11    C     0.81206   0.02065   0.66188   0.00000  Uiso   1.00
C12    C     0.82567   0.07399   0.68665   0.00000  Uiso   1.00
C13    C     0.85076   0.12620   0.73246   0.00000  Uiso   1.00
C14    C     0.78241   0.21648   0.60693   0.00000  Uiso   1.00
C15    C     0.72312   0.17353   0.59923   0.00000  Uiso   1.00
C16    C     0.67330   0.22615   0.59254   0.00000  Uiso   1.00
C17    C     0.62338   0.17335   0.58609   0.00000  Uiso   1.00
C18    C     0.82555   0.17305   0.58526   0.00000  Uiso   1.00
C19    C     0.86185   0.22527   0.56682   0.00000  Uiso   1.00
C20    C     0.89816   0.17207   0.54861   0.00000  Uiso   1.00
C21    C     0.79853   0.17449   0.63662   0.00000  Uiso   1.00
C22    C     0.81213   0.22792   0.66136   0.00000  Uiso   1.00
C23    C     0.82571   0.17593   0.68640   0.00000  Uiso   1.00
H24    H     0.78232   0.94993   0.60759   0.00000  Uiso   1.00
H25    H     0.67322   0.94014   0.59324   0.00000  Uiso   1.00
H26    H     0.86175   0.93926   0.56753   0.00000  Uiso   1.00
H27    H     0.81203   0.94191   0.66206   0.00000  Uiso   1.00
H28    H     0.55228   0.97417   0.57722   0.00000  Uiso   1.00
H29    H     0.94981   0.97231   0.52301   0.00000  Uiso   1.00
H30    H     0.84498   0.97789   0.72234   0.00000  Uiso   1.00
H31    H     0.78244   0.29570   0.60674   0.00000  Uiso   1.00
H32    H     0.67334   0.30489   0.59234   0.00000  Uiso   1.00
H33    H     0.86187   0.30401   0.56663   0.00000  Uiso   1.00
H34    H     0.81215   0.30666   0.66116   0.00000  Uiso   1.00
H35    H     0.55238   0.27021   0.57648   0.00000  Uiso   1.00
H36    H     0.94991   0.26835   0.52228   0.00000  Uiso   1.00
H37    H     0.84508   0.27394   0.72161   0.00000  Uiso   1.00
O38    O     0.48056   0.12200   0.56738   0.00000  Uiso   1.00
O39    O     0.00212   0.11956   0.49627   0.00000  Uiso   1.00
O40    O     0.86457   0.12688   0.75779   0.00000  Uiso   1.00
N41    N     0.56727   0.04258   0.57902   0.00000  Uiso   1.00
N42    N     0.93894   0.04084   0.52834   0.00000  Uiso   1.00
N43    N     0.84094   0.04606   0.71470   0.00000  Uiso   1.00
N44    N     0.56732   0.20188   0.57863   0.00000  Uiso   1.00
N45    N     0.93899   0.20014   0.52795   0.00000  Uiso   1.00
N46    N     0.84099   0.20536   0.71430   0.00000  Uiso   1.00
C47    C     0.28235   0.52914   0.10740   0.00000  Uiso   1.00
C48    C     0.22308   0.57178   0.09949   0.00000  Uiso   1.00
C49    C     0.17323   0.51889   0.09305   0.00000  Uiso   1.00
C50    C     0.12334   0.57141   0.08634   0.00000  Uiso   1.00
C51    C     0.03132   0.62213   0.07408   0.00000  Uiso   1.00
C52    C     0.32551   0.57130   0.08551   0.00000  Uiso   1.00
C53    C     0.36178   0.51800   0.06733   0.00000  Uiso   1.00
C54    C     0.39812   0.57013   0.04887   0.00000  Uiso   1.00
C55    C     0.46516   0.62011   0.01493   0.00000  Uiso   1.00
C56    C     0.29849   0.57273   0.13687   0.00000  Uiso   1.00
C57    C     0.31206   0.52065   0.16188   0.00000  Uiso   1.00
C58    C     0.32567   0.57399   0.18665   0.00000  Uiso   1.00
C59    C     0.35076   0.62620   0.23246   0.00000  Uiso   1.00
C60    C     0.28241   0.71648   0.10693   0.00000  Uiso   1.00
C61    C     0.22312   0.67353   0.09923   0.00000  Uiso   1.00
C62    C     0.17330   0.72615   0.09254   0.00000  Uiso   1.00
C63    C     0.12338   0.67335   0.08609   0.00000  Uiso   1.00
C64    C     0.32555   0.67305   0.08526   0.00000  Uiso   1.00
C65    C     0.36185   0.72527   0.06682   0.00000  Uiso   1.00
C66    C     0.39816   0.67207   0.04861   0.00000  Uiso   1.00
C67    C     0.29853   0.67449   0.13662   0.00000  Uiso   1.00
C68    C     0.31213   0.72792   0.16136   0.00000  Uiso   1.00
C69    C     0.32571   0.67593   0.18640   0.00000  Uiso   1.00
H70    H     0.28232   0.44993   0.10759   0.00000  Uiso   1.00
H71    H     0.17322   0.44014   0.09324   0.00000  Uiso   1.00
H72    H     0.36175   0.43926   0.06753   0.00000  Uiso   1.00
H73    H     0.31203   0.44191   0.16206   0.00000  Uiso   1.00
H74    H     0.05228   0.47417   0.07722   0.00000  Uiso   1.00
H75    H     0.44981   0.47231   0.02301   0.00000  Uiso   1.00
H76    H     0.34498   0.47789   0.22234   0.00000  Uiso   1.00
H77    H     0.28244   0.79570   0.10674   0.00000  Uiso   1.00
H78    H     0.17334   0.80489   0.09234   0.00000  Uiso   1.00
H79    H     0.36187   0.80401   0.06663   0.00000  Uiso   1.00
H80    H     0.31215   0.80666   0.16116   0.00000  Uiso   1.00
H81    H     0.05238   0.77021   0.07648   0.00000  Uiso   1.00
H82    H     0.44991   0.76835   0.02228   0.00000  Uiso   1.00
H83    H     0.34508   0.77394   0.22161   0.00000  Uiso   1.00
O84    O     0.98056   0.62200   0.06738   0.00000  Uiso   1.00
O85    O     0.50212   0.61956   0.99627   0.00000  Uiso   1.00
O86    O     0.36457   0.62688   0.25779   0.00000  Uiso   1.00
N87    N     0.06727   0.54258   0.07902   0.00000  Uiso   1.00
N88    N     0.43894   0.54084   0.02834   0.00000  Uiso   1.00
N89    N     0.34094   0.54606   0.21470   0.00000  Uiso   1.00
N90    N     0.06732   0.70188   0.07863   0.00000  Uiso   1.00
N91    N     0.43899   0.70014   0.02795   0.00000  Uiso   1.00
N92    N     0.34099   0.70536   0.21430   0.00000  Uiso   1.00
C93    C     0.71765   0.97086   0.10740   0.00000  Uiso   1.00
C94    C     0.77692   0.92822   0.09949   0.00000  Uiso   1.00
C95    C     0.82677   0.98111   0.09305   0.00000  Uiso   1.00
C96    C     0.87666   0.92859   0.08634   0.00000  Uiso   1.00
C97    C     0.96868   0.87787   0.07408   0.00000  Uiso   1.00
C98    C     0.67449   0.92870   0.08551   0.00000  Uiso   1.00
C99    C     0.63822   0.98200   0.06733   0.00000  Uiso   1.00
C100   C     0.60188   0.92987   0.04887   0.00000  Uiso   1.00
C101   C     0.53484   0.87989   0.01493   0.00000  Uiso   1.00
C102   C     0.70151   0.92727   0.13687   0.00000  Uiso   1.00
C103   C     0.68794   0.97935   0.16188   0.00000  Uiso   1.00
C104   C     0.67433   0.92601   0.18665   0.00000  Uiso   1.00
C105   C     0.64924   0.87380   0.23246   0.00000  Uiso   1.00
C106   C     0.71759   0.78352   0.10693   0.00000  Uiso   1.00
C107   C     0.77688   0.82647   0.09923   0.00000  Uiso   1.00
C108   C     0.82670   0.77385   0.09254   0.00000  Uiso   1.00
C109   C     0.87662   0.82665   0.08609   0.00000  Uiso   1.00
C110   C     0.67445   0.82695   0.08526   0.00000  Uiso   1.00
C111   C     0.63815   0.77473   0.06682   0.00000  Uiso   1.00
C112   C     0.60184   0.82793   0.04861   0.00000  Uiso   1.00
C113   C     0.70147   0.82551   0.13662   0.00000  Uiso   1.00
C114   C     0.68787   0.77208   0.16136   0.00000  Uiso   1.00
C115   C     0.67429   0.82407   0.18640   0.00000  Uiso   1.00
H116   H     0.71768   0.05007   0.10759   0.00000  Uiso   1.00
H117   H     0.82678   0.05986   0.09324   0.00000  Uiso   1.00
H118   H     0.63825   0.06074   0.06753   0.00000  Uiso   1.00
H119   H     0.68797   0.05809   0.16206   0.00000  Uiso   1.00
H120   H     0.94772   0.02583   0.07722   0.00000  Uiso   1.00
H121   H     0.55019   0.02769   0.02301   0.00000  Uiso   1.00
H122   H     0.65502   0.02211   0.22234   0.00000  Uiso   1.00
H123   H     0.71756   0.70430   0.10674   0.00000  Uiso   1.00
H124   H     0.82666   0.69511   0.09234   0.00000  Uiso   1.00
H125   H     0.63813   0.69599   0.06663   0.00000  Uiso   1.00
H126   H     0.68785   0.69334   0.16116   0.00000  Uiso   1.00
H127   H     0.94762   0.72979   0.07648   0.00000  Uiso   1.00
H128   H     0.55009   0.73165   0.02228   0.00000  Uiso   1.00
H129   H     0.65492   0.72606   0.22161   0.00000  Uiso   1.00
O130   O     0.01944   0.87800   0.06738   0.00000  Uiso   1.00
O131   O     0.49788   0.88044   0.99627   0.00000  Uiso   1.00
O132   O     0.63543   0.87312   0.25779   0.00000  Uiso   1.00
N133   N     0.93273   0.95742   0.07902   0.00000  Uiso   1.00
N134   N     0.56106   0.95916   0.02834   0.00000  Uiso   1.00
N135   N     0.65906   0.95394   0.21470   0.00000  Uiso   1.00
N136   N     0.93268   0.79812   0.07863   0.00000  Uiso   1.00
N137   N     0.56101   0.79986   0.02795   0.00000  Uiso   1.00
N138   N     0.65901   0.79464   0.21430   0.00000  Uiso   1.00
C139   C     0.21765   0.47086   0.60740   0.00000  Uiso   1.00
C140   C     0.27692   0.42822   0.59949   0.00000  Uiso   1.00
C141   C     0.32677   0.48111   0.59305   0.00000  Uiso   1.00
C142   C     0.37666   0.42859   0.58634   0.00000  Uiso   1.00
C143   C     0.46868   0.37787   0.57408   0.00000  Uiso   1.00
C144   C     0.17449   0.42870   0.58551   0.00000  Uiso   1.00
C145   C     0.13822   0.48200   0.56733   0.00000  Uiso   1.00
C146   C     0.10188   0.42987   0.54887   0.00000  Uiso   1.00
C147   C     0.03484   0.37989   0.51493   0.00000  Uiso   1.00
C148   C     0.20151   0.42727   0.63687   0.00000  Uiso   1.00
C149   C     0.18794   0.47935   0.66188   0.00000  Uiso   1.00
C150   C     0.17433   0.42601   0.68665   0.00000  Uiso   1.00
C151   C     0.14924   0.37380   0.73246   0.00000  Uiso   1.00
C152   C     0.21759   0.28352   0.60693   0.00000  Uiso   1.00
C153   C     0.27688   0.32647   0.59923   0.00000  Uiso   1.00
C154   C     0.32670   0.27385   0.59254   0.00000  Uiso   1.00
C155   C     0.37662   0.32665   0.58609   0.00000  Uiso   1.00
C156   C     0.17445   0.32695   0.58526   0.00000  Uiso   1.00
C157   C     0.13815   0.27473   0.56682   0.00000  Uiso   1.00
C158   C     0.10184   0.32793   0.54861   0.00000  Uiso   1.00
C159   C     0.20147   0.32551   0.63662   0.00000  Uiso   1.00
C160   C     0.18787   0.27208   0.66136   0.00000  Uiso   1.00
C161   C     0.17429   0.32407   0.68640   0.00000  Uiso   1.00
H162   H     0.21768   0.55007   0.60759   0.00000  Uiso   1.00
H163   H     0.32678   0.55986   0.59324   0.00000  Uiso   1.00
H164   H     0.13825   0.56074   0.56753   0.00000  Uiso   1.00
H165   H     0.18797   0.55809   0.66206   0.00000  Uiso   1.00
H166   H     0.44772   0.52583   0.57722   0.00000  Uiso   1.00
H167   H     0.05019   0.52769   0.52301   0.00000  Uiso   1.00
H168   H     0.15502   0.52211   0.72234   0.00000  Uiso   1.00
H169   H     0.21756   0.20430   0.60674   0.00000  Uiso   1.00
H170   H     0.32666   0.19511   0.59234   0.00000  Uiso   1.00
H171   H     0.13813   0.19599   0.56663   0.00000  Uiso   1.00
H172   H     0.18785   0.19334   0.66116   0.00000  Uiso   1.00
H173   H     0.44762   0.22979   0.57648   0.00000  Uiso   1.00
H174   H     0.05009   0.23165   0.52228   0.00000  Uiso   1.00
H175   H     0.15492   0.22606   0.72161   0.00000  Uiso   1.00
O176   O     0.51944   0.37800   0.56738   0.00000  Uiso   1.00
O177   O     0.99788   0.38044   0.49627   0.00000  Uiso   1.00
O178   O     0.13543   0.37312   0.75779   0.00000  Uiso   1.00
N179   N     0.43273   0.45742   0.57902   0.00000  Uiso   1.00
N180   N     0.06106   0.45916   0.52834   0.00000  Uiso   1.00
N181   N     0.15906   0.45394   0.71470   0.00000  Uiso   1.00
N182   N     0.43268   0.29812   0.57863   0.00000  Uiso   1.00
N183   N     0.06101   0.29986   0.52795   0.00000  Uiso   1.00
N184   N     0.15901   0.29464   0.71430   0.00000  Uiso   1.00
C185   C     0.21765   0.52914   0.89260   0.00000  Uiso   1.00
C186   C     0.27692   0.57178   0.90051   0.00000  Uiso   1.00
C187   C     0.32677   0.51889   0.90695   0.00000  Uiso   1.00
C188   C     0.37666   0.57141   0.91366   0.00000  Uiso   1.00
C189   C     0.46868   0.62213   0.92592   0.00000  Uiso   1.00
C190   C     0.17449   0.57130   0.91449   0.00000  Uiso   1.00
C191   C     0.13822   0.51800   0.93267   0.00000  Uiso   1.00
C192   C     0.10188   0.57013   0.95113   0.00000  Uiso   1.00
C193   C     0.03484   0.62011   0.98507   0.00000  Uiso   1.00
C194   C     0.20151   0.57273   0.86313   0.00000  Uiso   1.00
C195   C     0.18794   0.52065   0.83812   0.00000  Uiso   1.00
C196   C     0.17433   0.57399   0.81335   0.00000  Uiso   1.00
C197   C     0.14924   0.62620   0.76754   0.00000  Uiso   1.00
C198   C     0.21759   0.71648   0.89307   0.00000  Uiso   1.00
C199   C     0.27688   0.67353   0.90077   0.00000  Uiso   1.00
C200   C     0.32670   0.72615   0.90746   0.00000  Uiso   1.00
C201   C     0.37662   0.67335   0.91391   0.00000  Uiso   1.00
C202   C     0.17445   0.67305   0.91474   0.00000  Uiso   1.00
C203   C     0.13815   0.72527   0.93318   0.00000  Uiso   1.00
C204   C     0.10184   0.67207   0.95139   0.00000  Uiso   1.00
C205   C     0.20147   0.67449   0.86338   0.00000  Uiso   1.00
C206   C     0.18787   0.72792   0.83864   0.00000  Uiso   1.00
C207   C     0.17429   0.67593   0.81360   0.00000  Uiso   1.00
H208   H     0.21768   0.44993   0.89241   0.00000  Uiso   1.00
H209   H     0.32678   0.44014   0.90676   0.00000  Uiso   1.00
H210   H     0.13825   0.43926   0.93247   0.00000  Uiso   1.00
H211   H     0.18797   0.44191   0.83794   0.00000  Uiso   1.00
H212   H     0.44772   0.47417   0.92278   0.00000  Uiso   1.00
H213   H     0.05019   0.47231   0.97699   0.00000  Uiso   1.00
H214   H     0.15502   0.47789   0.77766   0.00000  Uiso   1.00
H215   H     0.21756   0.79570   0.89326   0.00000  Uiso   1.00
H216   H     0.32666   0.80489   0.90766   0.00000  Uiso   1.00
H217   H     0.13813   0.80401   0.93337   0.00000  Uiso   1.00
H218   H     0.18785   0.80666   0.83884   0.00000  Uiso   1.00
H219   H     0.44762   0.77021   0.92352   0.00000  Uiso   1.00
H220   H     0.05009   0.76835   0.97772   0.00000  Uiso   1.00
H221   H     0.15492   0.77394   0.77839   0.00000  Uiso   1.00
O222   O     0.51944   0.62200   0.93262   0.00000  Uiso   1.00
O223   O     0.99788   0.61956   0.00373   0.00000  Uiso   1.00
O224   O     0.13543   0.62688   0.74221   0.00000  Uiso   1.00
N225   N     0.43273   0.54258   0.92098   0.00000  Uiso   1.00
N226   N     0.06106   0.54084   0.97166   0.00000  Uiso   1.00
N227   N     0.15906   0.54606   0.78530   0.00000  Uiso   1.00
N228   N     0.43268   0.70188   0.92137   0.00000  Uiso   1.00
N229   N     0.06101   0.70014   0.97205   0.00000  Uiso   1.00
N230   N     0.15901   0.70536   0.78570   0.00000  Uiso   1.00
C231   C     0.71765   0.02914   0.39260   0.00000  Uiso   1.00
C232   C     0.77692   0.07178   0.40051   0.00000  Uiso   1.00
C233   C     0.82677   0.01889   0.40695   0.00000  Uiso   1.00
C234   C     0.87666   0.07141   0.41366   0.00000  Uiso   1.00
C235   C     0.96868   0.12213   0.42592   0.00000  Uiso   1.00
C236   C     0.67449   0.07130   0.41449   0.00000  Uiso   1.00
C237   C     0.63822   0.01800   0.43267   0.00000  Uiso   1.00
C238   C     0.60188   0.07013   0.45113   0.00000  Uiso   1.00
C239   C     0.53484   0.12011   0.48507   0.00000  Uiso   1.00
C240   C     0.70151   0.07273   0.36313   0.00000  Uiso   1.00
C241   C     0.68794   0.02065   0.33812   0.00000  Uiso   1.00
C242   C     0.67433   0.07399   0.31335   0.00000  Uiso   1.00
C243   C     0.64924   0.12620   0.26754   0.00000  Uiso   1.00
C244   C     0.71759   0.21648   0.39307   0.00000  Uiso   1.00
C245   C     0.77688   0.17353   0.40077   0.00000  Uiso   1.00
C246   C     0.82670   0.22615   0.40746   0.00000  Uiso   1.00
C247   C     0.87662   0.17335   0.41391   0.00000  Uiso   1.00
C248   C     0.67445   0.17305   0.41474   0.00000  Uiso   1.00
C249   C     0.63815   0.22527   0.43318   0.00000  Uiso   1.00
C250   C     0.60184   0.17207   0.45139   0.00000  Uiso   1.00
C251   C     0.70147   0.17449   0.36338   0.00000  Uiso   1.00
C252   C     0.68787   0.22792   0.33864   0.00000  Uiso   1.00
C253   C     0.67429   0.17593   0.31360   0.00000  Uiso   1.00
H254   H     0.71768   0.94993   0.39241   0.00000  Uiso   1.00
H255   H     0.82678   0.94014   0.40676   0.00000  Uiso   1.00
H256   H     0.63825   0.93926   0.43247   0.00000  Uiso   1.00
H257   H     0.68797   0.94191   0.33794   0.00000  Uiso   1.00
H258   H     0.94772   0.97417   0.42278   0.00000  Uiso   1.00
H259   H     0.55019   0.97231   0.47699   0.00000  Uiso   1.00
H260   H     0.65502   0.97789   0.27766   0.00000  Uiso   1.00
H261   H     0.71756   0.29570   0.39326   0.00000  Uiso   1.00
H262   H     0.82666   0.30489   0.40766   0.00000  Uiso   1.00
H263   H     0.63813   0.30401   0.43337   0.00000  Uiso   1.00
H264   H     0.68785   0.30666   0.33884   0.00000  Uiso   1.00
H265   H     0.94762   0.27021   0.42352   0.00000  Uiso   1.00
H266   H     0.55009   0.26835   0.47772   0.00000  Uiso   1.00
H267   H     0.65492   0.27394   0.27839   0.00000  Uiso   1.00
O268   O     0.01944   0.12200   0.43262   0.00000  Uiso   1.00
O269   O     0.49788   0.11956   0.50373   0.00000  Uiso   1.00
O270   O     0.63543   0.12688   0.24221   0.00000  Uiso   1.00
N271   N     0.93273   0.04258   0.42098   0.00000  Uiso   1.00
N272   N     0.56106   0.04084   0.47166   0.00000  Uiso   1.00
N273   N     0.65906   0.04606   0.28530   0.00000  Uiso   1.00
N274   N     0.93268   0.20188   0.42137   0.00000  Uiso   1.00
N275   N     0.56101   0.20014   0.47205   0.00000  Uiso   1.00
N276   N     0.65901   0.20536   0.28570   0.00000  Uiso   1.00
C277   C     0.28235   0.47086   0.39260   0.00000  Uiso   1.00
C278   C     0.22308   0.42822   0.40051   0.00000  Uiso   1.00
C279   C     0.17323   0.48111   0.40695   0.00000  Uiso   1.00
C280   C     0.12334   0.42859   0.41366   0.00000  Uiso   1.00
C281   C     0.03132   0.37787   0.42592   0.00000  Uiso   1.00
C282   C     0.32551   0.42870   0.41449   0.00000  Uiso   1.00
C283   C     0.36178   0.48200   0.43267   0.00000  Uiso   1.00
C284   C     0.39812   0.42987   0.45113   0.00000  Uiso   1.00
C285   C     0.46516   0.37989   0.48507   0.00000  Uiso   1.00
C286   C     0.29849   0.42727   0.36313   0.00000  Uiso   1.00
C287   C     0.31206   0.47935   0.33812   0.00000  Uiso   1.00
C288   C     0.32567   0.42601   0.31335   0.00000  Uiso   1.00
C289   C     0.35076   0.37380   0.26754   0.00000  Uiso   1.00
C290   C     0.28241   0.28352   0.39307   0.00000  Uiso   1.00
C291   C     0.22312   0.32647   0.40077   0.00000  Uiso   1.00
C292   C     0.17330   0.27385   0.40746   0.00000  Uiso   1.00
C293   C     0.12338   0.32665   0.41391   0.00000  Uiso   1.00
C294   C     0.32555   0.32695   0.41474   0.00000  Uiso   1.00
C295   C     0.36185   0.27473   0.43318   0.00000  Uiso   1.00
C296   C     0.39816   0.32793   0.45139   0.00000  Uiso   1.00
C297   C     0.29853   0.32551   0.36338   0.00000  Uiso   1.00
C298   C     0.31213   0.27208   0.33864   0.00000  Uiso   1.00
C299   C     0.32571   0.32407   0.31360   0.00000  Uiso   1.00
H300   H     0.28232   0.55008   0.39241   0.00000  Uiso   1.00
H301   H     0.17322   0.55986   0.40676   0.00000  Uiso   1.00
H302   H     0.36175   0.56074   0.43247   0.00000  Uiso   1.00
H303   H     0.31203   0.55809   0.33794   0.00000  Uiso   1.00
H304   H     0.05228   0.52583   0.42278   0.00000  Uiso   1.00
H305   H     0.44981   0.52769   0.47699   0.00000  Uiso   1.00
H306   H     0.34498   0.52211   0.27766   0.00000  Uiso   1.00
H307   H     0.28244   0.20430   0.39326   0.00000  Uiso   1.00
H308   H     0.17334   0.19511   0.40766   0.00000  Uiso   1.00
H309   H     0.36187   0.19599   0.43337   0.00000  Uiso   1.00
H310   H     0.31215   0.19334   0.33884   0.00000  Uiso   1.00
H311   H     0.05238   0.22979   0.42352   0.00000  Uiso   1.00
H312   H     0.44991   0.23165   0.47772   0.00000  Uiso   1.00
H313   H     0.34508   0.22606   0.27839   0.00000  Uiso   1.00
O314   O     0.98056   0.37800   0.43262   0.00000  Uiso   1.00
O315   O     0.50212   0.38044   0.50373   0.00000  Uiso   1.00
O316   O     0.36457   0.37312   0.24221   0.00000  Uiso   1.00
N317   N     0.06727   0.45742   0.42098   0.00000  Uiso   1.00
N318   N     0.43894   0.45916   0.47166   0.00000  Uiso   1.00
N319   N     0.34094   0.45394   0.28530   0.00000  Uiso   1.00
N320   N     0.06732   0.29812   0.42137   0.00000  Uiso   1.00
N321   N     0.43899   0.29986   0.47205   0.00000  Uiso   1.00
N322   N     0.34099   0.29464   0.28570   0.00000  Uiso   1.00
C323   C     0.78235   0.97086   0.89260   0.00000  Uiso   1.00
C324   C     0.72308   0.92822   0.90051   0.00000  Uiso   1.00
C325   C     0.67323   0.98111   0.90695   0.00000  Uiso   1.00
C326   C     0.62334   0.92859   0.91366   0.00000  Uiso   1.00
C327   C     0.53132   0.87787   0.92592   0.00000  Uiso   1.00
C328   C     0.82551   0.92870   0.91449   0.00000  Uiso   1.00
C329   C     0.86178   0.98200   0.93267   0.00000  Uiso   1.00
C330   C     0.89812   0.92987   0.95113   0.00000  Uiso   1.00
C331   C     0.96516   0.87989   0.98507   0.00000  Uiso   1.00
C332   C     0.79849   0.92727   0.86313   0.00000  Uiso   1.00
C333   C     0.81206   0.97935   0.83812   0.00000  Uiso   1.00
C334   C     0.82567   0.92601   0.81335   0.00000  Uiso   1.00
C335   C     0.85076   0.87380   0.76754   0.00000  Uiso   1.00
C336   C     0.78241   0.78352   0.89307   0.00000  Uiso   1.00
C337   C     0.72312   0.82647   0.90077   0.00000  Uiso   1.00
C338   C     0.67330   0.77385   0.90746   0.00000  Uiso   1.00
C339   C     0.62338   0.82665   0.91391   0.00000  Uiso   1.00
C340   C     0.82555   0.82695   0.91474   0.00000  Uiso   1.00
C341   C     0.86185   0.77473   0.93318   0.00000  Uiso   1.00
C342   C     0.89816   0.82793   0.95139   0.00000  Uiso   1.00
C343   C     0.79853   0.82551   0.86338   0.00000  Uiso   1.00
C344   C     0.81213   0.77208   0.83864   0.00000  Uiso   1.00
C345   C     0.82571   0.82407   0.81360   0.00000  Uiso   1.00
H346   H     0.78232   0.05007   0.89241   0.00000  Uiso   1.00
H347   H     0.67322   0.05986   0.90676   0.00000  Uiso   1.00
H348   H     0.86175   0.06074   0.93247   0.00000  Uiso   1.00
H349   H     0.81203   0.05809   0.83794   0.00000  Uiso   1.00
H350   H     0.55228   0.02583   0.92278   0.00000  Uiso   1.00
H351   H     0.94981   0.02769   0.97699   0.00000  Uiso   1.00
H352   H     0.84498   0.02211   0.77766   0.00000  Uiso   1.00
H353   H     0.78244   0.70430   0.89326   0.00000  Uiso   1.00
H354   H     0.67334   0.69511   0.90766   0.00000  Uiso   1.00
H355   H     0.86187   0.69599   0.93337   0.00000  Uiso   1.00
H356   H     0.81215   0.69334   0.83884   0.00000  Uiso   1.00
H357   H     0.55238   0.72979   0.92352   0.00000  Uiso   1.00
H358   H     0.94991   0.73165   0.97772   0.00000  Uiso   1.00
H359   H     0.84508   0.72606   0.77839   0.00000  Uiso   1.00
O360   O     0.48056   0.87800   0.93262   0.00000  Uiso   1.00
O361   O     0.00212   0.88044   0.00373   0.00000  Uiso   1.00
O362   O     0.86457   0.87312   0.74221   0.00000  Uiso   1.00
N363   N     0.56727   0.95742   0.92098   0.00000  Uiso   1.00
N364   N     0.93894   0.95916   0.97166   0.00000  Uiso   1.00
N365   N     0.84094   0.95394   0.78530   0.00000  Uiso   1.00
N366   N     0.56732   0.79812   0.92137   0.00000  Uiso   1.00
N367   N     0.93899   0.79986   0.97205   0.00000  Uiso   1.00
N368   N     0.84099   0.79464   0.78570   0.00000  Uiso   1.00
C369   C     0.21765   0.97086   0.39260   0.00000  Uiso   1.00
C370   C     0.27692   0.92822   0.40051   0.00000  Uiso   1.00
C371   C     0.32677   0.98111   0.40695   0.00000  Uiso   1.00
C372   C     0.37666   0.92859   0.41366   0.00000  Uiso   1.00
C373   C     0.46868   0.87787   0.42592   0.00000  Uiso   1.00
C374   C     0.17449   0.92870   0.41449   0.00000  Uiso   1.00
C375   C     0.13822   0.98200   0.43267   0.00000  Uiso   1.00
C376   C     0.10188   0.92987   0.45113   0.00000  Uiso   1.00
C377   C     0.03484   0.87989   0.48507   0.00000  Uiso   1.00
C378   C     0.20151   0.92727   0.36313   0.00000  Uiso   1.00
C379   C     0.18794   0.97935   0.33812   0.00000  Uiso   1.00
C380   C     0.17433   0.92601   0.31335   0.00000  Uiso   1.00
C381   C     0.14924   0.87380   0.26754   0.00000  Uiso   1.00
C382   C     0.21759   0.78352   0.39307   0.00000  Uiso   1.00
C383   C     0.27688   0.82647   0.40077   0.00000  Uiso   1.00
C384   C     0.32670   0.77385   0.40746   0.00000  Uiso   1.00
C385   C     0.37662   0.82665   0.41391   0.00000  Uiso   1.00
C386   C     0.17445   0.82695   0.41474   0.00000  Uiso   1.00
C387   C     0.13815   0.77473   0.43318   0.00000  Uiso   1.00
C388   C     0.10184   0.82793   0.45139   0.00000  Uiso   1.00
C389   C     0.20147   0.82551   0.36338   0.00000  Uiso   1.00
C390   C     0.18787   0.77208   0.33864   0.00000  Uiso   1.00
C391   C     0.17429   0.82407   0.31360   0.00000  Uiso   1.00
H392   H     0.21768   0.05007   0.39241   0.00000  Uiso   1.00
H393   H     0.32678   0.05986   0.40676   0.00000  Uiso   1.00
H394   H     0.13825   0.06074   0.43247   0.00000  Uiso   1.00
H395   H     0.18797   0.05809   0.33794   0.00000  Uiso   1.00
H396   H     0.44772   0.02583   0.42278   0.00000  Uiso   1.00
H397   H     0.05019   0.02769   0.47699   0.00000  Uiso   1.00
H398   H     0.15502   0.02211   0.27766   0.00000  Uiso   1.00
H399   H     0.21756   0.70430   0.39326   0.00000  Uiso   1.00
H400   H     0.32666   0.69511   0.40766   0.00000  Uiso   1.00
H401   H     0.13813   0.69599   0.43337   0.00000  Uiso   1.00
H402   H     0.18785   0.69334   0.33884   0.00000  Uiso   1.00
H403   H     0.44762   0.72979   0.42352   0.00000  Uiso   1.00
H404   H     0.05009   0.73165   0.47772   0.00000  Uiso   1.00
H405   H     0.15492   0.72606   0.27839   0.00000  Uiso   1.00
O406   O     0.51944   0.87800   0.43262   0.00000  Uiso   1.00
O407   O     0.99788   0.88044   0.50373   0.00000  Uiso   1.00
O408   O     0.13543   0.87312   0.24221   0.00000  Uiso   1.00
N409   N     0.43273   0.95742   0.42098   0.00000  Uiso   1.00
N410   N     0.06106   0.95916   0.47166   0.00000  Uiso   1.00
N411   N     0.15906   0.95394   0.28530   0.00000  Uiso   1.00
N412   N     0.43268   0.79812   0.42137   0.00000  Uiso   1.00
N413   N     0.06101   0.79986   0.47205   0.00000  Uiso   1.00
N414   N     0.15901   0.79464   0.28570   0.00000  Uiso   1.00
C415   C     0.71765   0.47086   0.89260   0.00000  Uiso   1.00
C416   C     0.77692   0.42822   0.90051   0.00000  Uiso   1.00
C417   C     0.82677   0.48111   0.90695   0.00000  Uiso   1.00
C418   C     0.87666   0.42859   0.91366   0.00000  Uiso   1.00
C419   C     0.96868   0.37787   0.92592   0.00000  Uiso   1.00
C420   C     0.67449   0.42870   0.91449   0.00000  Uiso   1.00
C421   C     0.63822   0.48200   0.93267   0.00000  Uiso   1.00
C422   C     0.60188   0.42987   0.95113   0.00000  Uiso   1.00
C423   C     0.53484   0.37989   0.98507   0.00000  Uiso   1.00
C424   C     0.70151   0.42727   0.86313   0.00000  Uiso   1.00
C425   C     0.68794   0.47935   0.83812   0.00000  Uiso   1.00
C426   C     0.67433   0.42601   0.81335   0.00000  Uiso   1.00
C427   C     0.64924   0.37380   0.76754   0.00000  Uiso   1.00
C428   C     0.71759   0.28352   0.89307   0.00000  Uiso   1.00
C429   C     0.77688   0.32647   0.90077   0.00000  Uiso   1.00
C430   C     0.82670   0.27385   0.90746   0.00000  Uiso   1.00
C431   C     0.87662   0.32665   0.91391   0.00000  Uiso   1.00
C432   C     0.67445   0.32695   0.91474   0.00000  Uiso   1.00
C433   C     0.63815   0.27473   0.93318   0.00000  Uiso   1.00
C434   C     0.60184   0.32793   0.95139   0.00000  Uiso   1.00
C435   C     0.70147   0.32551   0.86338   0.00000  Uiso   1.00
C436   C     0.68787   0.27208   0.83864   0.00000  Uiso   1.00
C437   C     0.67429   0.32407   0.81360   0.00000  Uiso   1.00
H438   H     0.71768   0.55007   0.89241   0.00000  Uiso   1.00
H439   H     0.82678   0.55986   0.90676   0.00000  Uiso   1.00
H440   H     0.63825   0.56074   0.93247   0.00000  Uiso   1.00
H441   H     0.68797   0.55809   0.83794   0.00000  Uiso   1.00
H442   H     0.94772   0.52583   0.92278   0.00000  Uiso   1.00
H443   H     0.55019   0.52769   0.97699   0.00000  Uiso   1.00
H444   H     0.65502   0.52211   0.77766   0.00000  Uiso   1.00
H445   H     0.71756   0.20430   0.89326   0.00000  Uiso   1.00
H446   H     0.82666   0.19511   0.90766   0.00000  Uiso   1.00
H447   H     0.63813   0.19599   0.93337   0.00000  Uiso   1.00
H448   H     0.68785   0.19334   0.83884   0.00000  Uiso   1.00
H449   H     0.94762   0.22979   0.92352   0.00000  Uiso   1.00
H450   H     0.55009   0.23165   0.97772   0.00000  Uiso   1.00
H451   H     0.65492   0.22606   0.77839   0.00000  Uiso   1.00
O452   O     0.01944   0.37800   0.93262   0.00000  Uiso   1.00
O453   O     0.49788   0.38044   0.00373   0.00000  Uiso   1.00
O454   O     0.63543   0.37312   0.74221   0.00000  Uiso   1.00
N455   N     0.93273   0.45742   0.92098   0.00000  Uiso   1.00
N456   N     0.56106   0.45916   0.97166   0.00000  Uiso   1.00
N457   N     0.65906   0.45394   0.78530   0.00000  Uiso   1.00
N458   N     0.93268   0.29812   0.92137   0.00000  Uiso   1.00
N459   N     0.56101   0.29986   0.97205   0.00000  Uiso   1.00
N460   N     0.65901   0.29464   0.78570   0.00000  Uiso   1.00
C461   C     0.28235   0.02914   0.89260   0.00000  Uiso   1.00
C462   C     0.22308   0.07178   0.90051   0.00000  Uiso   1.00
C463   C     0.17323   0.01889   0.90695   0.00000  Uiso   1.00
C464   C     0.12334   0.07141   0.91366   0.00000  Uiso   1.00
C465   C     0.03132   0.12213   0.92592   0.00000  Uiso   1.00
C466   C     0.32551   0.07130   0.91449   0.00000  Uiso   1.00
C467   C     0.36178   0.01800   0.93267   0.00000  Uiso   1.00
C468   C     0.39812   0.07013   0.95113   0.00000  Uiso   1.00
C469   C     0.46516   0.12011   0.98507   0.00000  Uiso   1.00
C470   C     0.29849   0.07273   0.86313   0.00000  Uiso   1.00
C471   C     0.31206   0.02065   0.83812   0.00000  Uiso   1.00
C472   C     0.32567   0.07399   0.81335   0.00000  Uiso   1.00
C473   C     0.35076   0.12620   0.76754   0.00000  Uiso   1.00
C474   C     0.28241   0.21648   0.89307   0.00000  Uiso   1.00
C475   C     0.22312   0.17353   0.90077   0.00000  Uiso   1.00
C476   C     0.17330   0.22615   0.90746   0.00000  Uiso   1.00
C477   C     0.12338   0.17335   0.91391   0.00000  Uiso   1.00
C478   C     0.32555   0.17305   0.91474   0.00000  Uiso   1.00
C479   C     0.36185   0.22527   0.93318   0.00000  Uiso   1.00
C480   C     0.39816   0.17207   0.95139   0.00000  Uiso   1.00
C481   C     0.29853   0.17449   0.86338   0.00000  Uiso   1.00
C482   C     0.31213   0.22792   0.83864   0.00000  Uiso   1.00
C483   C     0.32571   0.17593   0.81360   0.00000  Uiso   1.00
H484   H     0.28232   0.94993   0.89241   0.00000  Uiso   1.00
H485   H     0.17322   0.94014   0.90676   0.00000  Uiso   1.00
H486   H     0.36175   0.93926   0.93247   0.00000  Uiso   1.00
H487   H     0.31203   0.94191   0.83794   0.00000  Uiso   1.00
H488   H     0.05228   0.97417   0.92278   0.00000  Uiso   1.00
H489   H     0.44981   0.97231   0.97699   0.00000  Uiso   1.00
H490   H     0.34498   0.97789   0.77766   0.00000  Uiso   1.00
H491   H     0.28244   0.29570   0.89326   0.00000  Uiso   1.00
H492   H     0.17334   0.30489   0.90766   0.00000  Uiso   1.00
H493   H     0.36187   0.30401   0.93337   0.00000  Uiso   1.00
H494   H     0.31215   0.30666   0.83884   0.00000  Uiso   1.00
H495   H     0.05238   0.27021   0.92352   0.00000  Uiso   1.00
H496   H     0.44991   0.26835   0.97772   0.00000  Uiso   1.00
H497   H     0.34508   0.27394   0.77839   0.00000  Uiso   1.00
O498   O     0.98056   0.12200   0.93262   0.00000  Uiso   1.00
O499   O     0.50212   0.11956   0.00373   0.00000  Uiso   1.00
O500   O     0.36457   0.12688   0.74221   0.00000  Uiso   1.00
N501   N     0.06727   0.04258   0.92098   0.00000  Uiso   1.00
N502   N     0.43894   0.04084   0.97166   0.00000  Uiso   1.00
N503   N     0.34094   0.04606   0.78530   0.00000  Uiso   1.00
N504   N     0.06732   0.20188   0.92137   0.00000  Uiso   1.00
N505   N     0.43899   0.20014   0.97205   0.00000  Uiso   1.00
N506   N     0.34099   0.20536   0.78570   0.00000  Uiso   1.00
C507   C     0.78235   0.52914   0.39260   0.00000  Uiso   1.00
C508   C     0.72308   0.57178   0.40051   0.00000  Uiso   1.00
C509   C     0.67323   0.51889   0.40695   0.00000  Uiso   1.00
C510   C     0.62334   0.57141   0.41366   0.00000  Uiso   1.00
C511   C     0.53132   0.62213   0.42592   0.00000  Uiso   1.00
C512   C     0.82551   0.57130   0.41449   0.00000  Uiso   1.00
C513   C     0.86178   0.51800   0.43267   0.00000  Uiso   1.00
C514   C     0.89812   0.57013   0.45113   0.00000  Uiso   1.00
C515   C     0.96516   0.62011   0.48507   0.00000  Uiso   1.00
C516   C     0.79849   0.57273   0.36313   0.00000  Uiso   1.00
C517   C     0.81206   0.52065   0.33812   0.00000  Uiso   1.00
C518   C     0.82567   0.57399   0.31335   0.00000  Uiso   1.00
C519   C     0.85076   0.62620   0.26754   0.00000  Uiso   1.00
C520   C     0.78241   0.71648   0.39307   0.00000  Uiso   1.00
C521   C     0.72312   0.67353   0.40077   0.00000  Uiso   1.00
C522   C     0.67330   0.72615   0.40746   0.00000  Uiso   1.00
C523   C     0.62338   0.67335   0.41391   0.00000  Uiso   1.00
C524   C     0.82555   0.67305   0.41474   0.00000  Uiso   1.00
C525   C     0.86185   0.72527   0.43318   0.00000  Uiso   1.00
C526   C     0.89816   0.67207   0.45139   0.00000  Uiso   1.00
C527   C     0.79853   0.67449   0.36338   0.00000  Uiso   1.00
C528   C     0.81213   0.72792   0.33864   0.00000  Uiso   1.00
C529   C     0.82571   0.67593   0.31360   0.00000  Uiso   1.00
H530   H     0.78232   0.44993   0.39241   0.00000  Uiso   1.00
H531   H     0.67322   0.44014   0.40676   0.00000  Uiso   1.00
H532   H     0.86175   0.43926   0.43247   0.00000  Uiso   1.00
H533   H     0.81203   0.44191   0.33794   0.00000  Uiso   1.00
H534   H     0.55228   0.47417   0.42278   0.00000  Uiso   1.00
H535   H     0.94981   0.47231   0.47699   0.00000  Uiso   1.00
H536   H     0.84498   0.47789   0.27766   0.00000  Uiso   1.00
H537   H     0.78244   0.79570   0.39326   0.00000  Uiso   1.00
H538   H     0.67334   0.80489   0.40766   0.00000  Uiso   1.00
H539   H     0.86187   0.80401   0.43337   0.00000  Uiso   1.00
H540   H     0.81215   0.80666   0.33884   0.00000  Uiso   1.00
H541   H     0.55238   0.77021   0.42352   0.00000  Uiso   1.00
H542   H     0.94991   0.76835   0.47772   0.00000  Uiso   1.00
H543   H     0.84508   0.77394   0.27839   0.00000  Uiso   1.00
O544   O     0.48056   0.62200   0.43262   0.00000  Uiso   1.00
O545   O     0.00212   0.61956   0.50373   0.00000  Uiso   1.00
O546   O     0.86457   0.62688   0.24221   0.00000  Uiso   1.00
N547   N     0.56727   0.54258   0.42098   0.00000  Uiso   1.00
N548   N     0.93894   0.54084   0.47166   0.00000  Uiso   1.00
N549   N     0.84094   0.54606   0.28530   0.00000  Uiso   1.00
N550   N     0.56732   0.70188   0.42137   0.00000  Uiso   1.00
N551   N     0.93899   0.70014   0.47205   0.00000  Uiso   1.00
N552   N     0.84099   0.70536   0.28570   0.00000  Uiso   1.00
C553   C     0.78235   0.47086   0.10740   0.00000  Uiso   1.00
C554   C     0.72308   0.42822   0.09949   0.00000  Uiso   1.00
C555   C     0.67323   0.48111   0.09305   0.00000  Uiso   1.00
C556   C     0.62334   0.42859   0.08634   0.00000  Uiso   1.00
C557   C     0.53132   0.37787   0.07408   0.00000  Uiso   1.00
C558   C     0.82551   0.42870   0.08551   0.00000  Uiso   1.00
C559   C     0.86178   0.48200   0.06733   0.00000  Uiso   1.00
C560   C     0.89812   0.42987   0.04887   0.00000  Uiso   1.00
C561   C     0.96516   0.37989   0.01493   0.00000  Uiso   1.00
C562   C     0.79849   0.42727   0.13687   0.00000  Uiso   1.00
C563   C     0.81206   0.47935   0.16188   0.00000  Uiso   1.00
C564   C     0.82567   0.42601   0.18665   0.00000  Uiso   1.00
C565   C     0.85076   0.37380   0.23246   0.00000  Uiso   1.00
C566   C     0.78241   0.28352   0.10693   0.00000  Uiso   1.00
C567   C     0.72312   0.32647   0.09923   0.00000  Uiso   1.00
C568   C     0.67330   0.27385   0.09254   0.00000  Uiso   1.00
C569   C     0.62338   0.32665   0.08609   0.00000  Uiso   1.00
C570   C     0.82555   0.32695   0.08526   0.00000  Uiso   1.00
C571   C     0.86185   0.27473   0.06682   0.00000  Uiso   1.00
C572   C     0.89816   0.32793   0.04861   0.00000  Uiso   1.00
C573   C     0.79853   0.32551   0.13662   0.00000  Uiso   1.00
C574   C     0.81213   0.27208   0.16136   0.00000  Uiso   1.00
C575   C     0.82571   0.32407   0.18640   0.00000  Uiso   1.00
H576   H     0.78232   0.55007   0.10759   0.00000  Uiso   1.00
H577   H     0.67322   0.55986   0.09324   0.00000  Uiso   1.00
H578   H     0.86175   0.56074   0.06753   0.00000  Uiso   1.00
H579   H     0.81203   0.55809   0.16206   0.00000  Uiso   1.00
H580   H     0.55228   0.52583   0.07722   0.00000  Uiso   1.00
H581   H     0.94981   0.52769   0.02301   0.00000  Uiso   1.00
H582   H     0.84498   0.52211   0.22234   0.00000  Uiso   1.00
H583   H     0.78244   0.20430   0.10674   0.00000  Uiso   1.00
H584   H     0.67334   0.19511   0.09234   0.00000  Uiso   1.00
H585   H     0.86187   0.19599   0.06663   0.00000  Uiso   1.00
H586   H     0.81215   0.19334   0.16116   0.00000  Uiso   1.00
H587   H     0.55238   0.22979   0.07648   0.00000  Uiso   1.00
H588   H     0.94991   0.23165   0.02228   0.00000  Uiso   1.00
H589   H     0.84508   0.22606   0.22161   0.00000  Uiso   1.00
O590   O     0.48056   0.37800   0.06738   0.00000  Uiso   1.00
O591   O     0.00212   0.38044   0.99627   0.00000  Uiso   1.00
O592   O     0.86457   0.37312   0.25779   0.00000  Uiso   1.00
N593   N     0.56727   0.45742   0.07902   0.00000  Uiso   1.00
N594   N     0.93894   0.45916   0.02834   0.00000  Uiso   1.00
N595   N     0.84094   0.45394   0.21470   0.00000  Uiso   1.00
N596   N     0.56732   0.29812   0.07863   0.00000  Uiso   1.00
N597   N     0.93899   0.29986   0.02795   0.00000  Uiso   1.00
N598   N     0.84099   0.29464   0.21430   0.00000  Uiso   1.00
C599   C     0.28235   0.97086   0.60740   0.00000  Uiso   1.00
C600   C     0.22308   0.92822   0.59949   0.00000  Uiso   1.00
C601   C     0.17323   0.98111   0.59305   0.00000  Uiso   1.00
C602   C     0.12334   0.92859   0.58634   0.00000  Uiso   1.00
C603   C     0.03132   0.87787   0.57408   0.00000  Uiso   1.00
C604   C     0.32551   0.92870   0.58551   0.00000  Uiso   1.00
C605   C     0.36178   0.98200   0.56733   0.00000  Uiso   1.00
C606   C     0.39812   0.92987   0.54887   0.00000  Uiso   1.00
C607   C     0.46516   0.87989   0.51493   0.00000  Uiso   1.00
C608   C     0.29849   0.92727   0.63687   0.00000  Uiso   1.00
C609   C     0.31206   0.97935   0.66188   0.00000  Uiso   1.00
C610   C     0.32567   0.92601   0.68665   0.00000  Uiso   1.00
C611   C     0.35076   0.87380   0.73246   0.00000  Uiso   1.00
C612   C     0.28241   0.78352   0.60693   0.00000  Uiso   1.00
C613   C     0.22312   0.82647   0.59923   0.00000  Uiso   1.00
C614   C     0.17330   0.77385   0.59254   0.00000  Uiso   1.00
C615   C     0.12338   0.82665   0.58609   0.00000  Uiso   1.00
C616   C     0.32555   0.82695   0.58526   0.00000  Uiso   1.00
C617   C     0.36185   0.77473   0.56682   0.00000  Uiso   1.00
C618   C     0.39816   0.82793   0.54861   0.00000  Uiso   1.00
C619   C     0.29853   0.82551   0.63662   0.00000  Uiso   1.00
C620   C     0.31213   0.77208   0.66136   0.00000  Uiso   1.00
C621   C     0.32571   0.82407   0.68640   0.00000  Uiso   1.00
H622   H     0.28232   0.05007   0.60759   0.00000  Uiso   1.00
H623   H     0.17322   0.05986   0.59324   0.00000  Uiso   1.00
H624   H     0.36175   0.06074   0.56753   0.00000  Uiso   1.00
H625   H     0.31203   0.05809   0.66206   0.00000  Uiso   1.00
H626   H     0.05228   0.02583   0.57722   0.00000  Uiso   1.00
H627   H     0.44981   0.02769   0.52301   0.00000  Uiso   1.00
H628   H     0.34498   0.02211   0.72234   0.00000  Uiso   1.00
H629   H     0.28244   0.70430   0.60674   0.00000  Uiso   1.00
H630   H     0.17334   0.69511   0.59234   0.00000  Uiso   1.00
H631   H     0.36187   0.69599   0.56663   0.00000  Uiso   1.00
H632   H     0.31215   0.69334   0.66116   0.00000  Uiso   1.00
H633   H     0.05238   0.72979   0.57648   0.00000  Uiso   1.00
H634   H     0.44991   0.73165   0.52228   0.00000  Uiso   1.00
H635   H     0.34508   0.72606   0.72161   0.00000  Uiso   1.00
O636   O     0.98056   0.87800   0.56738   0.00000  Uiso   1.00
O637   O     0.50212   0.88044   0.49627   0.00000  Uiso   1.00
O638   O     0.36457   0.87312   0.75779   0.00000  Uiso   1.00
N639   N     0.06727   0.95742   0.57902   0.00000  Uiso   1.00
N640   N     0.43894   0.95916   0.52834   0.00000  Uiso   1.00
N641   N     0.34094   0.95394   0.71470   0.00000  Uiso   1.00
N642   N     0.06732   0.79812   0.57863   0.00000  Uiso   1.00
N643   N     0.43899   0.79986   0.52795   0.00000  Uiso   1.00
N644   N     0.34099   0.79464   0.71430   0.00000  Uiso   1.00
C645   C     0.71765   0.52914   0.60740   0.00000  Uiso   1.00
C646   C     0.77692   0.57178   0.59949   0.00000  Uiso   1.00
C647   C     0.82677   0.51889   0.59305   0.00000  Uiso   1.00
C648   C     0.87666   0.57141   0.58634   0.00000  Uiso   1.00
C649   C     0.96868   0.62213   0.57408   0.00000  Uiso   1.00
C650   C     0.67449   0.57130   0.58551   0.00000  Uiso   1.00
C651   C     0.63822   0.51800   0.56733   0.00000  Uiso   1.00
C652   C     0.60188   0.57013   0.54887   0.00000  Uiso   1.00
C653   C     0.53484   0.62011   0.51493   0.00000  Uiso   1.00
C654   C     0.70151   0.57273   0.63687   0.00000  Uiso   1.00
C655   C     0.68794   0.52065   0.66188   0.00000  Uiso   1.00
C656   C     0.67433   0.57399   0.68665   0.00000  Uiso   1.00
C657   C     0.64924   0.62620   0.73246   0.00000  Uiso   1.00
C658   C     0.71759   0.71648   0.60693   0.00000  Uiso   1.00
C659   C     0.77688   0.67353   0.59923   0.00000  Uiso   1.00
C660   C     0.82670   0.72615   0.59254   0.00000  Uiso   1.00
C661   C     0.87662   0.67335   0.58609   0.00000  Uiso   1.00
C662   C     0.67445   0.67305   0.58526   0.00000  Uiso   1.00
C663   C     0.63815   0.72527   0.56682   0.00000  Uiso   1.00
C664   C     0.60184   0.67207   0.54861   0.00000  Uiso   1.00
C665   C     0.70147   0.67449   0.63662   0.00000  Uiso   1.00
C666   C     0.68787   0.72792   0.66136   0.00000  Uiso   1.00
C667   C     0.67429   0.67593   0.68640   0.00000  Uiso   1.00
H668   H     0.71768   0.44993   0.60759   0.00000  Uiso   1.00
H669   H     0.82678   0.44014   0.59324   0.00000  Uiso   1.00
H670   H     0.63825   0.43926   0.56753   0.00000  Uiso   1.00
H671   H     0.68797   0.44191   0.66206   0.00000  Uiso   1.00
H672   H     0.94772   0.47417   0.57722   0.00000  Uiso   1.00
H673   H     0.55019   0.47231   0.52301   0.00000  Uiso   1.00
H674   H     0.65502   0.47789   0.72234   0.00000  Uiso   1.00
H675   H     0.71756   0.79570   0.60674   0.00000  Uiso   1.00
H676   H     0.82666   0.80489   0.59234   0.00000  Uiso   1.00
H677   H     0.63813   0.80401   0.56663   0.00000  Uiso   1.00
H678   H     0.68785   0.80666   0.66116   0.00000  Uiso   1.00
H679   H     0.94762   0.77021   0.57648   0.00000  Uiso   1.00
H680   H     0.55009   0.76835   0.52228   0.00000  Uiso   1.00
H681   H     0.65492   0.77394   0.72161   0.00000  Uiso   1.00
O682   O     0.01944   0.62200   0.56738   0.00000  Uiso   1.00
O683   O     0.49788   0.61956   0.49627   0.00000  Uiso   1.00
O684   O     0.63543   0.62688   0.75779   0.00000  Uiso   1.00
N685   N     0.93273   0.54258   0.57902   0.00000  Uiso   1.00
N686   N     0.56106   0.54084   0.52834   0.00000  Uiso   1.00
N687   N     0.65906   0.54606   0.71470   0.00000  Uiso   1.00
N688   N     0.93268   0.70188   0.57863   0.00000  Uiso   1.00
N689   N     0.56101   0.70014   0.52795   0.00000  Uiso   1.00
N690   N     0.65901   0.70536   0.71430   0.00000  Uiso   1.00
C691   C     0.21765   0.02914   0.10740   0.00000  Uiso   1.00
C692   C     0.27692   0.07178   0.09949   0.00000  Uiso   1.00
C693   C     0.32677   0.01889   0.09305   0.00000  Uiso   1.00
C694   C     0.37666   0.07141   0.08634   0.00000  Uiso   1.00
C695   C     0.46868   0.12213   0.07408   0.00000  Uiso   1.00
C696   C     0.17449   0.07130   0.08551   0.00000  Uiso   1.00
C697   C     0.13822   0.01800   0.06733   0.00000  Uiso   1.00
C698   C     0.10188   0.07013   0.04887   0.00000  Uiso   1.00
C699   C     0.03484   0.12011   0.01493   0.00000  Uiso   1.00
C700   C     0.20151   0.07273   0.13687   0.00000  Uiso   1.00
C701   C     0.18794   0.02065   0.16188   0.00000  Uiso   1.00
C702   C     0.17433   0.07399   0.18665   0.00000  Uiso   1.00
C703   C     0.14924   0.12620   0.23246   0.00000  Uiso   1.00
C704   C     0.21759   0.21648   0.10693   0.00000  Uiso   1.00
C705   C     0.27688   0.17353   0.09923   0.00000  Uiso   1.00
C706   C     0.32670   0.22615   0.09254   0.00000  Uiso   1.00
C707   C     0.37662   0.17335   0.08609   0.00000  Uiso   1.00
C708   C     0.17445   0.17305   0.08526   0.00000  Uiso   1.00
C709   C     0.13815   0.22527   0.06682   0.00000  Uiso   1.00
C710   C     0.10184   0.17207   0.04861   0.00000  Uiso   1.00
C711   C     0.20147   0.17449   0.13662   0.00000  Uiso   1.00
C712   C     0.18787   0.22792   0.16136   0.00000  Uiso   1.00
C713   C     0.17429   0.17593   0.18640   0.00000  Uiso   1.00
H714   H     0.21768   0.94993   0.10759   0.00000  Uiso   1.00
H715   H     0.32678   0.94014   0.09324   0.00000  Uiso   1.00
H716   H     0.13825   0.93926   0.06753   0.00000  Uiso   1.00
H717   H     0.18797   0.94191   0.16206   0.00000  Uiso   1.00
H718   H     0.44772   0.97417   0.07722   0.00000  Uiso   1.00
H719   H     0.05019   0.97231   0.02301   0.00000  Uiso   1.00
H720   H     0.15502   0.97789   0.22234   0.00000  Uiso   1.00
H721   H     0.21756   0.29570   0.10674   0.00000  Uiso   1.00
H722   H     0.32666   0.30489   0.09234   0.00000  Uiso   1.00
H723   H     0.13813   0.30401   0.06663   0.00000  Uiso   1.00
H724   H     0.18785   0.30666   0.16116   0.00000  Uiso   1.00
H725   H     0.44762   0.27021   0.07648   0.00000  Uiso   1.00
H726   H     0.05009   0.26835   0.02228   0.00000  Uiso   1.00
H727   H     0.15492   0.27394   0.22161   0.00000  Uiso   1.00
O728   O     0.51944   0.12200   0.06738   0.00000  Uiso   1.00
O729   O     0.99788   0.11956   0.99627   0.00000  Uiso   1.00
O730   O     0.13543   0.12688   0.25779   0.00000  Uiso   1.00
N731   N     0.43273   0.04258   0.07902   0.00000  Uiso   1.00
N732   N     0.06106   0.04084   0.02834   0.00000  Uiso   1.00
N733   N     0.15906   0.04606   0.21470   0.00000  Uiso   1.00
N734   N     0.43268   0.20188   0.07863   0.00000  Uiso   1.00
N735   N     0.06101   0.20014   0.02795   0.00000  Uiso   1.00
N736   N     0.15901   0.20536   0.21430   0.00000  Uiso   1.00
