data_job_01639
_audit_creation_date              2018-12-19
_audit_creation_method            'Materials Studio'
_symmetry_space_group_name_H-M    'P1'
_symmetry_Int_Tables_number       1
_symmetry_cell_setting            triclinic
loop_
_symmetry_equiv_pos_as_xyz
  x,y,z
_cell_length_a                    28.3491
_cell_length_b                    28.3491
_cell_length_c                    15.3699
_cell_angle_alpha                 90.0000
_cell_angle_beta                  90.0000
_cell_angle_gamma                 90.0000
loop_
_atom_site_label
_atom_site_type_symbol
_atom_site_fract_x
_atom_site_fract_y
_atom_site_fract_z
_atom_site_U_iso_or_equiv
_atom_site_adp_type
_atom_site_occupancy
C1     C     0.39652   0.63086   0.60129   0.00000  Uiso   1.00
C2     C     0.42211   0.61381   0.68269   0.00000  Uiso   1.00
C3     C     0.46839   0.59798   0.68617   0.00000  Uiso   1.00
C4     C     0.48529   0.58389   0.76688   0.00000  Uiso   1.00
C5     C     0.52934   0.55713   0.88194   0.00000  Uiso   1.00
C6     C     0.35241   0.60037   0.59333   0.00000  Uiso   1.00
C7     C     0.34009   0.57325   0.52167   0.00000  Uiso   1.00
C8     C     0.29831   0.54786   0.52715   0.00000  Uiso   1.00
C9     C     0.23414   0.50027   0.50345   0.00000  Uiso   1.00
C10    C     0.37919   0.68056   0.62182   0.00000  Uiso   1.00
C11    C     0.38938   0.72085   0.57410   0.00000  Uiso   1.00
C12    C     0.37015   0.76297   0.60356   0.00000  Uiso   1.00
C13    C     0.34756   0.83987   0.62409   0.00000  Uiso   1.00
C14    C     0.34423   0.63401   0.73842   0.00000  Uiso   1.00
C15    C     0.39370   0.61552   0.75717   0.00000  Uiso   1.00
C16    C     0.41054   0.60145   0.83789   0.00000  Uiso   1.00
C17    C     0.45684   0.58560   0.84150   0.00000  Uiso   1.00
C18    C     0.32401   0.60208   0.66781   0.00000  Uiso   1.00
C19    C     0.28224   0.57673   0.67339   0.00000  Uiso   1.00
C20    C     0.26986   0.54957   0.60177   0.00000  Uiso   1.00
C21    C     0.35079   0.68227   0.69630   0.00000  Uiso   1.00
C22    C     0.33153   0.72433   0.72583   0.00000  Uiso   1.00
C23    C     0.34169   0.76468   0.67817   0.00000  Uiso   1.00
H24    H     0.41862   0.62953   0.54330   0.00000  Uiso   1.00
H25    H     0.49036   0.59666   0.62852   0.00000  Uiso   1.00
H26    H     0.36207   0.57194   0.46404   0.00000  Uiso   1.00
H27    H     0.41136   0.71951   0.51647   0.00000  Uiso   1.00
H28    H     0.55735   0.56094   0.75584   0.00000  Uiso   1.00
H29    H     0.28686   0.50884   0.40902   0.00000  Uiso   1.00
H30    H     0.39079   0.82003   0.51957   0.00000  Uiso   1.00
H31    H     0.32211   0.63534   0.79641   0.00000  Uiso   1.00
H32    H     0.38855   0.60278   0.89552   0.00000  Uiso   1.00
H33    H     0.26027   0.57806   0.73104   0.00000  Uiso   1.00
H34    H     0.30956   0.72564   0.78347   0.00000  Uiso   1.00
H35    H     0.47472   0.56591   0.97255   0.00000  Uiso   1.00
H36    H     0.20422   0.51381   0.62573   0.00000  Uiso   1.00
H37    H     0.30816   0.82500   0.73628   0.00000  Uiso   1.00
O38    O     0.56148   0.54189   0.92482   0.00000  Uiso   1.00
O39    O     0.20660   0.47354   0.46980   0.00000  Uiso   1.00
O40    O     0.34295   0.88181   0.61484   0.00000  Uiso   1.00
N41    N     0.52879   0.56659   0.79324   0.00000  Uiso   1.00
N42    N     0.27590   0.51787   0.46899   0.00000  Uiso   1.00
N43    N     0.37305   0.80881   0.57233   0.00000  Uiso   1.00
N44    N     0.48433   0.56926   0.90985   0.00000  Uiso   1.00
N45    N     0.23143   0.52054   0.58560   0.00000  Uiso   1.00
N46    N     0.32859   0.81148   0.68894   0.00000  Uiso   1.00
C47    C     0.89652   0.13086   0.10129   0.00000  Uiso   1.00
C48    C     0.92211   0.11381   0.18269   0.00000  Uiso   1.00
C49    C     0.96839   0.09798   0.18617   0.00000  Uiso   1.00
C50    C     0.98529   0.08389   0.26688   0.00000  Uiso   1.00
C51    C     0.02934   0.05713   0.38194   0.00000  Uiso   1.00
C52    C     0.85241   0.10037   0.09333   0.00000  Uiso   1.00
C53    C     0.84009   0.07325   0.02167   0.00000  Uiso   1.00
C54    C     0.79831   0.04786   0.02715   0.00000  Uiso   1.00
C55    C     0.73414   0.00027   0.00345   0.00000  Uiso   1.00
C56    C     0.87919   0.18056   0.12182   0.00000  Uiso   1.00
C57    C     0.88938   0.22085   0.07410   0.00000  Uiso   1.00
C58    C     0.87015   0.26297   0.10356   0.00000  Uiso   1.00
C59    C     0.84756   0.33987   0.12409   0.00000  Uiso   1.00
C60    C     0.84423   0.13401   0.23842   0.00000  Uiso   1.00
C61    C     0.89370   0.11552   0.25717   0.00000  Uiso   1.00
C62    C     0.91054   0.10145   0.33789   0.00000  Uiso   1.00
C63    C     0.95684   0.08560   0.34150   0.00000  Uiso   1.00
C64    C     0.82401   0.10208   0.16781   0.00000  Uiso   1.00
C65    C     0.78224   0.07673   0.17339   0.00000  Uiso   1.00
C66    C     0.76986   0.04957   0.10177   0.00000  Uiso   1.00
C67    C     0.85079   0.18227   0.19630   0.00000  Uiso   1.00
C68    C     0.83153   0.22433   0.22583   0.00000  Uiso   1.00
C69    C     0.84169   0.26468   0.17817   0.00000  Uiso   1.00
H70    H     0.91862   0.12953   0.04330   0.00000  Uiso   1.00
H71    H     0.99036   0.09666   0.12852   0.00000  Uiso   1.00
H72    H     0.86207   0.07194   0.96404   0.00000  Uiso   1.00
H73    H     0.91136   0.21951   0.01647   0.00000  Uiso   1.00
H74    H     0.05735   0.06094   0.25584   0.00000  Uiso   1.00
H75    H     0.78686   0.00884   0.90902   0.00000  Uiso   1.00
H76    H     0.89079   0.32003   0.01957   0.00000  Uiso   1.00
H77    H     0.82211   0.13534   0.29641   0.00000  Uiso   1.00
H78    H     0.88855   0.10278   0.39552   0.00000  Uiso   1.00
H79    H     0.76027   0.07806   0.23104   0.00000  Uiso   1.00
H80    H     0.80956   0.22564   0.28347   0.00000  Uiso   1.00
H81    H     0.97472   0.06591   0.47255   0.00000  Uiso   1.00
H82    H     0.70422   0.01381   0.12573   0.00000  Uiso   1.00
H83    H     0.80816   0.32500   0.23628   0.00000  Uiso   1.00
O84    O     0.06148   0.04189   0.42482   0.00000  Uiso   1.00
O85    O     0.70660   0.97354   0.96980   0.00000  Uiso   1.00
O86    O     0.84295   0.38181   0.11484   0.00000  Uiso   1.00
N87    N     0.02879   0.06659   0.29324   0.00000  Uiso   1.00
N88    N     0.77590   0.01787   0.96899   0.00000  Uiso   1.00
N89    N     0.87305   0.30881   0.07233   0.00000  Uiso   1.00
N90    N     0.98433   0.06926   0.40985   0.00000  Uiso   1.00
N91    N     0.73143   0.02054   0.08560   0.00000  Uiso   1.00
N92    N     0.82859   0.31148   0.18894   0.00000  Uiso   1.00
C93    C     0.10348   0.86914   0.10129   0.00000  Uiso   1.00
C94    C     0.07789   0.88619   0.18269   0.00000  Uiso   1.00
C95    C     0.03161   0.90202   0.18617   0.00000  Uiso   1.00
C96    C     0.01471   0.91611   0.26688   0.00000  Uiso   1.00
C97    C     0.97066   0.94287   0.38194   0.00000  Uiso   1.00
C98    C     0.14759   0.89963   0.09333   0.00000  Uiso   1.00
C99    C     0.15991   0.92675   0.02167   0.00000  Uiso   1.00
C100   C     0.20169   0.95214   0.02715   0.00000  Uiso   1.00
C101   C     0.26586   0.99973   0.00345   0.00000  Uiso   1.00
C102   C     0.12081   0.81944   0.12182   0.00000  Uiso   1.00
C103   C     0.11062   0.77915   0.07410   0.00000  Uiso   1.00
C104   C     0.12985   0.73703   0.10356   0.00000  Uiso   1.00
C105   C     0.15244   0.66013   0.12409   0.00000  Uiso   1.00
C106   C     0.15577   0.86599   0.23842   0.00000  Uiso   1.00
C107   C     0.10630   0.88448   0.25717   0.00000  Uiso   1.00
C108   C     0.08946   0.89855   0.33789   0.00000  Uiso   1.00
C109   C     0.04316   0.91440   0.34150   0.00000  Uiso   1.00
C110   C     0.17599   0.89792   0.16781   0.00000  Uiso   1.00
C111   C     0.21776   0.92327   0.17339   0.00000  Uiso   1.00
C112   C     0.23014   0.95043   0.10177   0.00000  Uiso   1.00
C113   C     0.14921   0.81773   0.19630   0.00000  Uiso   1.00
C114   C     0.16847   0.77567   0.22583   0.00000  Uiso   1.00
C115   C     0.15831   0.73532   0.17817   0.00000  Uiso   1.00
H116   H     0.08138   0.87047   0.04330   0.00000  Uiso   1.00
H117   H     0.00964   0.90334   0.12852   0.00000  Uiso   1.00
H118   H     0.13793   0.92806   0.96404   0.00000  Uiso   1.00
H119   H     0.08864   0.78049   0.01647   0.00000  Uiso   1.00
H120   H     0.94265   0.93906   0.25584   0.00000  Uiso   1.00
H121   H     0.21314   0.99116   0.90902   0.00000  Uiso   1.00
H122   H     0.10921   0.67997   0.01957   0.00000  Uiso   1.00
H123   H     0.17789   0.86466   0.29641   0.00000  Uiso   1.00
H124   H     0.11145   0.89722   0.39552   0.00000  Uiso   1.00
H125   H     0.23973   0.92194   0.23104   0.00000  Uiso   1.00
H126   H     0.19044   0.77436   0.28347   0.00000  Uiso   1.00
H127   H     0.02528   0.93409   0.47255   0.00000  Uiso   1.00
H128   H     0.29578   0.98619   0.12573   0.00000  Uiso   1.00
H129   H     0.19184   0.67500   0.23628   0.00000  Uiso   1.00
O130   O     0.93852   0.95811   0.42482   0.00000  Uiso   1.00
O131   O     0.29340   0.02646   0.96980   0.00000  Uiso   1.00
O132   O     0.15705   0.61819   0.11484   0.00000  Uiso   1.00
N133   N     0.97121   0.93341   0.29324   0.00000  Uiso   1.00
N134   N     0.22410   0.98213   0.96899   0.00000  Uiso   1.00
N135   N     0.12695   0.69119   0.07233   0.00000  Uiso   1.00
N136   N     0.01567   0.93074   0.40985   0.00000  Uiso   1.00
N137   N     0.26857   0.97946   0.08560   0.00000  Uiso   1.00
N138   N     0.17141   0.68852   0.18894   0.00000  Uiso   1.00
C139   C     0.60348   0.36914   0.60129   0.00000  Uiso   1.00
C140   C     0.57789   0.38619   0.68269   0.00000  Uiso   1.00
C141   C     0.53161   0.40202   0.68617   0.00000  Uiso   1.00
C142   C     0.51471   0.41611   0.76688   0.00000  Uiso   1.00
C143   C     0.47066   0.44287   0.88194   0.00000  Uiso   1.00
C144   C     0.64759   0.39963   0.59333   0.00000  Uiso   1.00
C145   C     0.65991   0.42675   0.52167   0.00000  Uiso   1.00
C146   C     0.70169   0.45214   0.52715   0.00000  Uiso   1.00
C147   C     0.76586   0.49973   0.50345   0.00000  Uiso   1.00
C148   C     0.62081   0.31944   0.62182   0.00000  Uiso   1.00
C149   C     0.61062   0.27915   0.57410   0.00000  Uiso   1.00
C150   C     0.62985   0.23703   0.60356   0.00000  Uiso   1.00
C151   C     0.65244   0.16013   0.62409   0.00000  Uiso   1.00
C152   C     0.65577   0.36599   0.73842   0.00000  Uiso   1.00
C153   C     0.60630   0.38448   0.75717   0.00000  Uiso   1.00
C154   C     0.58946   0.39855   0.83789   0.00000  Uiso   1.00
C155   C     0.54316   0.41440   0.84150   0.00000  Uiso   1.00
C156   C     0.67599   0.39792   0.66781   0.00000  Uiso   1.00
C157   C     0.71776   0.42327   0.67339   0.00000  Uiso   1.00
C158   C     0.73014   0.45043   0.60177   0.00000  Uiso   1.00
C159   C     0.64921   0.31773   0.69630   0.00000  Uiso   1.00
C160   C     0.66847   0.27567   0.72583   0.00000  Uiso   1.00
C161   C     0.65831   0.23532   0.67817   0.00000  Uiso   1.00
H162   H     0.58138   0.37047   0.54330   0.00000  Uiso   1.00
H163   H     0.50964   0.40334   0.62852   0.00000  Uiso   1.00
H164   H     0.63793   0.42806   0.46404   0.00000  Uiso   1.00
H165   H     0.58864   0.28049   0.51647   0.00000  Uiso   1.00
H166   H     0.44265   0.43906   0.75584   0.00000  Uiso   1.00
H167   H     0.71314   0.49116   0.40902   0.00000  Uiso   1.00
H168   H     0.60921   0.17997   0.51957   0.00000  Uiso   1.00
H169   H     0.67789   0.36466   0.79641   0.00000  Uiso   1.00
H170   H     0.61145   0.39722   0.89552   0.00000  Uiso   1.00
H171   H     0.73973   0.42194   0.73104   0.00000  Uiso   1.00
H172   H     0.69044   0.27436   0.78347   0.00000  Uiso   1.00
H173   H     0.52528   0.43409   0.97255   0.00000  Uiso   1.00
H174   H     0.79578   0.48619   0.62573   0.00000  Uiso   1.00
H175   H     0.69184   0.17500   0.73628   0.00000  Uiso   1.00
O176   O     0.43852   0.45811   0.92482   0.00000  Uiso   1.00
O177   O     0.79340   0.52646   0.46980   0.00000  Uiso   1.00
O178   O     0.65705   0.11819   0.61484   0.00000  Uiso   1.00
N179   N     0.47121   0.43341   0.79324   0.00000  Uiso   1.00
N180   N     0.72410   0.48213   0.46899   0.00000  Uiso   1.00
N181   N     0.62695   0.19119   0.57233   0.00000  Uiso   1.00
N182   N     0.51567   0.43074   0.90985   0.00000  Uiso   1.00
N183   N     0.76857   0.47946   0.58560   0.00000  Uiso   1.00
N184   N     0.67141   0.18852   0.68894   0.00000  Uiso   1.00
C185   C     0.36914   0.89652   0.85129   0.00000  Uiso   1.00
C186   C     0.38619   0.92211   0.93269   0.00000  Uiso   1.00
C187   C     0.40202   0.96839   0.93617   0.00000  Uiso   1.00
C188   C     0.41611   0.98529   0.01688   0.00000  Uiso   1.00
C189   C     0.44287   0.02934   0.13194   0.00000  Uiso   1.00
C190   C     0.39963   0.85241   0.84333   0.00000  Uiso   1.00
C191   C     0.42675   0.84009   0.77167   0.00000  Uiso   1.00
C192   C     0.45214   0.79831   0.77715   0.00000  Uiso   1.00
C193   C     0.49973   0.73414   0.75345   0.00000  Uiso   1.00
C194   C     0.31944   0.87919   0.87182   0.00000  Uiso   1.00
C195   C     0.27915   0.88938   0.82410   0.00000  Uiso   1.00
C196   C     0.23703   0.87015   0.85356   0.00000  Uiso   1.00
C197   C     0.16013   0.84756   0.87409   0.00000  Uiso   1.00
C198   C     0.36599   0.84423   0.98842   0.00000  Uiso   1.00
C199   C     0.38448   0.89370   0.00717   0.00000  Uiso   1.00
C200   C     0.39855   0.91054   0.08789   0.00000  Uiso   1.00
C201   C     0.41440   0.95684   0.09150   0.00000  Uiso   1.00
C202   C     0.39792   0.82401   0.91781   0.00000  Uiso   1.00
C203   C     0.42327   0.78224   0.92339   0.00000  Uiso   1.00
C204   C     0.45043   0.76986   0.85177   0.00000  Uiso   1.00
C205   C     0.31773   0.85079   0.94630   0.00000  Uiso   1.00
C206   C     0.27567   0.83153   0.97583   0.00000  Uiso   1.00
C207   C     0.23532   0.84169   0.92817   0.00000  Uiso   1.00
H208   H     0.37047   0.91862   0.79330   0.00000  Uiso   1.00
H209   H     0.40334   0.99036   0.87852   0.00000  Uiso   1.00
H210   H     0.42806   0.86207   0.71404   0.00000  Uiso   1.00
H211   H     0.28049   0.91136   0.76647   0.00000  Uiso   1.00
H212   H     0.43906   0.05735   0.00584   0.00000  Uiso   1.00
H213   H     0.49116   0.78686   0.65902   0.00000  Uiso   1.00
H214   H     0.17997   0.89079   0.76957   0.00000  Uiso   1.00
H215   H     0.36466   0.82211   0.04641   0.00000  Uiso   1.00
H216   H     0.39722   0.88855   0.14552   0.00000  Uiso   1.00
H217   H     0.42194   0.76027   0.98104   0.00000  Uiso   1.00
H218   H     0.27436   0.80956   0.03347   0.00000  Uiso   1.00
H219   H     0.43409   0.97472   0.22255   0.00000  Uiso   1.00
H220   H     0.48619   0.70422   0.87573   0.00000  Uiso   1.00
H221   H     0.17500   0.80816   0.98628   0.00000  Uiso   1.00
O222   O     0.45811   0.06148   0.17482   0.00000  Uiso   1.00
O223   O     0.52646   0.70660   0.71980   0.00000  Uiso   1.00
O224   O     0.11819   0.84295   0.86484   0.00000  Uiso   1.00
N225   N     0.43341   0.02879   0.04324   0.00000  Uiso   1.00
N226   N     0.48213   0.77590   0.71899   0.00000  Uiso   1.00
N227   N     0.19119   0.87305   0.82233   0.00000  Uiso   1.00
N228   N     0.43074   0.98433   0.15985   0.00000  Uiso   1.00
N229   N     0.47946   0.73143   0.83560   0.00000  Uiso   1.00
N230   N     0.18852   0.82859   0.93894   0.00000  Uiso   1.00
C231   C     0.86914   0.39652   0.35129   0.00000  Uiso   1.00
C232   C     0.88619   0.42211   0.43269   0.00000  Uiso   1.00
C233   C     0.90202   0.46839   0.43617   0.00000  Uiso   1.00
C234   C     0.91611   0.48529   0.51688   0.00000  Uiso   1.00
C235   C     0.94287   0.52934   0.63194   0.00000  Uiso   1.00
C236   C     0.89963   0.35241   0.34333   0.00000  Uiso   1.00
C237   C     0.92675   0.34009   0.27167   0.00000  Uiso   1.00
C238   C     0.95214   0.29831   0.27715   0.00000  Uiso   1.00
C239   C     0.99973   0.23414   0.25345   0.00000  Uiso   1.00
C240   C     0.81944   0.37919   0.37182   0.00000  Uiso   1.00
C241   C     0.77915   0.38938   0.32410   0.00000  Uiso   1.00
C242   C     0.73703   0.37015   0.35356   0.00000  Uiso   1.00
C243   C     0.66013   0.34756   0.37409   0.00000  Uiso   1.00
C244   C     0.86599   0.34423   0.48842   0.00000  Uiso   1.00
C245   C     0.88448   0.39370   0.50717   0.00000  Uiso   1.00
C246   C     0.89855   0.41054   0.58789   0.00000  Uiso   1.00
C247   C     0.91440   0.45684   0.59150   0.00000  Uiso   1.00
C248   C     0.89792   0.32401   0.41781   0.00000  Uiso   1.00
C249   C     0.92327   0.28224   0.42339   0.00000  Uiso   1.00
C250   C     0.95043   0.26986   0.35177   0.00000  Uiso   1.00
C251   C     0.81773   0.35079   0.44630   0.00000  Uiso   1.00
C252   C     0.77567   0.33153   0.47583   0.00000  Uiso   1.00
C253   C     0.73532   0.34169   0.42817   0.00000  Uiso   1.00
H254   H     0.87047   0.41862   0.29330   0.00000  Uiso   1.00
H255   H     0.90334   0.49036   0.37852   0.00000  Uiso   1.00
H256   H     0.92806   0.36207   0.21404   0.00000  Uiso   1.00
H257   H     0.78049   0.41136   0.26647   0.00000  Uiso   1.00
H258   H     0.93906   0.55735   0.50584   0.00000  Uiso   1.00
H259   H     0.99116   0.28686   0.15902   0.00000  Uiso   1.00
H260   H     0.67997   0.39079   0.26957   0.00000  Uiso   1.00
H261   H     0.86466   0.32211   0.54641   0.00000  Uiso   1.00
H262   H     0.89722   0.38855   0.64552   0.00000  Uiso   1.00
H263   H     0.92194   0.26027   0.48104   0.00000  Uiso   1.00
H264   H     0.77436   0.30956   0.53347   0.00000  Uiso   1.00
H265   H     0.93409   0.47472   0.72255   0.00000  Uiso   1.00
H266   H     0.98619   0.20422   0.37573   0.00000  Uiso   1.00
H267   H     0.67500   0.30816   0.48628   0.00000  Uiso   1.00
O268   O     0.95811   0.56148   0.67482   0.00000  Uiso   1.00
O269   O     0.02646   0.20660   0.21980   0.00000  Uiso   1.00
O270   O     0.61819   0.34295   0.36484   0.00000  Uiso   1.00
N271   N     0.93341   0.52879   0.54324   0.00000  Uiso   1.00
N272   N     0.98213   0.27590   0.21899   0.00000  Uiso   1.00
N273   N     0.69119   0.37305   0.32233   0.00000  Uiso   1.00
N274   N     0.93074   0.48433   0.65985   0.00000  Uiso   1.00
N275   N     0.97946   0.23143   0.33560   0.00000  Uiso   1.00
N276   N     0.68852   0.32859   0.43894   0.00000  Uiso   1.00
C277   C     0.13086   0.60348   0.35129   0.00000  Uiso   1.00
C278   C     0.11381   0.57789   0.43269   0.00000  Uiso   1.00
C279   C     0.09798   0.53161   0.43617   0.00000  Uiso   1.00
C280   C     0.08389   0.51471   0.51688   0.00000  Uiso   1.00
C281   C     0.05713   0.47066   0.63194   0.00000  Uiso   1.00
C282   C     0.10037   0.64759   0.34333   0.00000  Uiso   1.00
C283   C     0.07325   0.65991   0.27167   0.00000  Uiso   1.00
C284   C     0.04786   0.70169   0.27715   0.00000  Uiso   1.00
C285   C     0.00027   0.76586   0.25345   0.00000  Uiso   1.00
C286   C     0.18056   0.62081   0.37182   0.00000  Uiso   1.00
C287   C     0.22085   0.61062   0.32410   0.00000  Uiso   1.00
C288   C     0.26297   0.62985   0.35356   0.00000  Uiso   1.00
C289   C     0.33987   0.65244   0.37409   0.00000  Uiso   1.00
C290   C     0.13401   0.65577   0.48842   0.00000  Uiso   1.00
C291   C     0.11552   0.60630   0.50717   0.00000  Uiso   1.00
C292   C     0.10145   0.58946   0.58789   0.00000  Uiso   1.00
C293   C     0.08560   0.54316   0.59150   0.00000  Uiso   1.00
C294   C     0.10208   0.67599   0.41781   0.00000  Uiso   1.00
C295   C     0.07673   0.71776   0.42339   0.00000  Uiso   1.00
C296   C     0.04957   0.73014   0.35177   0.00000  Uiso   1.00
C297   C     0.18227   0.64921   0.44630   0.00000  Uiso   1.00
C298   C     0.22433   0.66847   0.47583   0.00000  Uiso   1.00
C299   C     0.26468   0.65831   0.42817   0.00000  Uiso   1.00
H300   H     0.12953   0.58138   0.29330   0.00000  Uiso   1.00
H301   H     0.09666   0.50964   0.37852   0.00000  Uiso   1.00
H302   H     0.07194   0.63793   0.21404   0.00000  Uiso   1.00
H303   H     0.21951   0.58864   0.26647   0.00000  Uiso   1.00
H304   H     0.06094   0.44265   0.50584   0.00000  Uiso   1.00
H305   H     0.00884   0.71314   0.15902   0.00000  Uiso   1.00
H306   H     0.32003   0.60921   0.26957   0.00000  Uiso   1.00
H307   H     0.13534   0.67789   0.54641   0.00000  Uiso   1.00
H308   H     0.10278   0.61145   0.64552   0.00000  Uiso   1.00
H309   H     0.07806   0.73973   0.48104   0.00000  Uiso   1.00
H310   H     0.22564   0.69044   0.53347   0.00000  Uiso   1.00
H311   H     0.06591   0.52528   0.72255   0.00000  Uiso   1.00
H312   H     0.01381   0.79578   0.37573   0.00000  Uiso   1.00
H313   H     0.32500   0.69184   0.48628   0.00000  Uiso   1.00
O314   O     0.04189   0.43852   0.67482   0.00000  Uiso   1.00
O315   O     0.97354   0.79340   0.21980   0.00000  Uiso   1.00
O316   O     0.38181   0.65705   0.36484   0.00000  Uiso   1.00
N317   N     0.06659   0.47121   0.54324   0.00000  Uiso   1.00
N318   N     0.01787   0.72410   0.21899   0.00000  Uiso   1.00
N319   N     0.30881   0.62695   0.32233   0.00000  Uiso   1.00
N320   N     0.06926   0.51567   0.65985   0.00000  Uiso   1.00
N321   N     0.02054   0.76857   0.33560   0.00000  Uiso   1.00
N322   N     0.31148   0.67141   0.43894   0.00000  Uiso   1.00
C323   C     0.63086   0.10348   0.85129   0.00000  Uiso   1.00
C324   C     0.61381   0.07789   0.93269   0.00000  Uiso   1.00
C325   C     0.59798   0.03161   0.93617   0.00000  Uiso   1.00
C326   C     0.58389   0.01471   0.01688   0.00000  Uiso   1.00
C327   C     0.55713   0.97066   0.13194   0.00000  Uiso   1.00
C328   C     0.60037   0.14759   0.84333   0.00000  Uiso   1.00
C329   C     0.57325   0.15991   0.77167   0.00000  Uiso   1.00
C330   C     0.54786   0.20169   0.77715   0.00000  Uiso   1.00
C331   C     0.50027   0.26586   0.75345   0.00000  Uiso   1.00
C332   C     0.68056   0.12081   0.87182   0.00000  Uiso   1.00
C333   C     0.72085   0.11062   0.82410   0.00000  Uiso   1.00
C334   C     0.76297   0.12985   0.85356   0.00000  Uiso   1.00
C335   C     0.83987   0.15244   0.87409   0.00000  Uiso   1.00
C336   C     0.63401   0.15577   0.98842   0.00000  Uiso   1.00
C337   C     0.61552   0.10630   0.00717   0.00000  Uiso   1.00
C338   C     0.60145   0.08946   0.08789   0.00000  Uiso   1.00
C339   C     0.58560   0.04316   0.09150   0.00000  Uiso   1.00
C340   C     0.60208   0.17599   0.91781   0.00000  Uiso   1.00
C341   C     0.57673   0.21776   0.92339   0.00000  Uiso   1.00
C342   C     0.54957   0.23014   0.85177   0.00000  Uiso   1.00
C343   C     0.68227   0.14921   0.94630   0.00000  Uiso   1.00
C344   C     0.72433   0.16847   0.97583   0.00000  Uiso   1.00
C345   C     0.76468   0.15831   0.92817   0.00000  Uiso   1.00
H346   H     0.62953   0.08138   0.79330   0.00000  Uiso   1.00
H347   H     0.59666   0.00964   0.87852   0.00000  Uiso   1.00
H348   H     0.57194   0.13793   0.71404   0.00000  Uiso   1.00
H349   H     0.71951   0.08864   0.76647   0.00000  Uiso   1.00
H350   H     0.56094   0.94265   0.00584   0.00000  Uiso   1.00
H351   H     0.50884   0.21314   0.65902   0.00000  Uiso   1.00
H352   H     0.82003   0.10921   0.76957   0.00000  Uiso   1.00
H353   H     0.63534   0.17789   0.04641   0.00000  Uiso   1.00
H354   H     0.60278   0.11145   0.14552   0.00000  Uiso   1.00
H355   H     0.57806   0.23973   0.98104   0.00000  Uiso   1.00
H356   H     0.72564   0.19044   0.03347   0.00000  Uiso   1.00
H357   H     0.56591   0.02528   0.22255   0.00000  Uiso   1.00
H358   H     0.51381   0.29578   0.87573   0.00000  Uiso   1.00
H359   H     0.82500   0.19184   0.98628   0.00000  Uiso   1.00
O360   O     0.54189   0.93852   0.17482   0.00000  Uiso   1.00
O361   O     0.47354   0.29340   0.71980   0.00000  Uiso   1.00
O362   O     0.88181   0.15705   0.86484   0.00000  Uiso   1.00
N363   N     0.56659   0.97121   0.04324   0.00000  Uiso   1.00
N364   N     0.51787   0.22410   0.71899   0.00000  Uiso   1.00
N365   N     0.80881   0.12695   0.82233   0.00000  Uiso   1.00
N366   N     0.56926   0.01567   0.15985   0.00000  Uiso   1.00
N367   N     0.52054   0.26857   0.83560   0.00000  Uiso   1.00
N368   N     0.81148   0.17141   0.93894   0.00000  Uiso   1.00
C369   C     0.60348   0.86914   0.64871   0.00000  Uiso   1.00
C370   C     0.57789   0.88619   0.56731   0.00000  Uiso   1.00
C371   C     0.53161   0.90202   0.56383   0.00000  Uiso   1.00
C372   C     0.51471   0.91611   0.48312   0.00000  Uiso   1.00
C373   C     0.47066   0.94287   0.36806   0.00000  Uiso   1.00
C374   C     0.64759   0.89963   0.65667   0.00000  Uiso   1.00
C375   C     0.65991   0.92675   0.72833   0.00000  Uiso   1.00
C376   C     0.70169   0.95214   0.72285   0.00000  Uiso   1.00
C377   C     0.76586   0.99973   0.74655   0.00000  Uiso   1.00
C378   C     0.62081   0.81944   0.62818   0.00000  Uiso   1.00
C379   C     0.61062   0.77915   0.67590   0.00000  Uiso   1.00
C380   C     0.62985   0.73703   0.64644   0.00000  Uiso   1.00
C381   C     0.65244   0.66013   0.62591   0.00000  Uiso   1.00
C382   C     0.65577   0.86599   0.51158   0.00000  Uiso   1.00
C383   C     0.60630   0.88448   0.49283   0.00000  Uiso   1.00
C384   C     0.58946   0.89855   0.41211   0.00000  Uiso   1.00
C385   C     0.54316   0.91440   0.40850   0.00000  Uiso   1.00
C386   C     0.67599   0.89792   0.58219   0.00000  Uiso   1.00
C387   C     0.71776   0.92327   0.57661   0.00000  Uiso   1.00
C388   C     0.73014   0.95043   0.64823   0.00000  Uiso   1.00
C389   C     0.64921   0.81773   0.55370   0.00000  Uiso   1.00
C390   C     0.66847   0.77567   0.52417   0.00000  Uiso   1.00
C391   C     0.65831   0.73532   0.57183   0.00000  Uiso   1.00
H392   H     0.58138   0.87047   0.70670   0.00000  Uiso   1.00
H393   H     0.50964   0.90334   0.62148   0.00000  Uiso   1.00
H394   H     0.63793   0.92806   0.78596   0.00000  Uiso   1.00
H395   H     0.58864   0.78049   0.73353   0.00000  Uiso   1.00
H396   H     0.44265   0.93906   0.49416   0.00000  Uiso   1.00
H397   H     0.71314   0.99116   0.84098   0.00000  Uiso   1.00
H398   H     0.60921   0.67997   0.73043   0.00000  Uiso   1.00
H399   H     0.67789   0.86466   0.45359   0.00000  Uiso   1.00
H400   H     0.61145   0.89722   0.35448   0.00000  Uiso   1.00
H401   H     0.73973   0.92194   0.51896   0.00000  Uiso   1.00
H402   H     0.69044   0.77436   0.46653   0.00000  Uiso   1.00
H403   H     0.52528   0.93409   0.27745   0.00000  Uiso   1.00
H404   H     0.79578   0.98619   0.62427   0.00000  Uiso   1.00
H405   H     0.69184   0.67500   0.51372   0.00000  Uiso   1.00
O406   O     0.43852   0.95811   0.32518   0.00000  Uiso   1.00
O407   O     0.79340   0.02646   0.78020   0.00000  Uiso   1.00
O408   O     0.65705   0.61819   0.63516   0.00000  Uiso   1.00
N409   N     0.47121   0.93341   0.45676   0.00000  Uiso   1.00
N410   N     0.72410   0.98213   0.78101   0.00000  Uiso   1.00
N411   N     0.62695   0.69119   0.67767   0.00000  Uiso   1.00
N412   N     0.51567   0.93074   0.34015   0.00000  Uiso   1.00
N413   N     0.76857   0.97946   0.66440   0.00000  Uiso   1.00
N414   N     0.67141   0.68852   0.56106   0.00000  Uiso   1.00
C415   C     0.10348   0.36914   0.14871   0.00000  Uiso   1.00
C416   C     0.07789   0.38619   0.06731   0.00000  Uiso   1.00
C417   C     0.03161   0.40202   0.06383   0.00000  Uiso   1.00
C418   C     0.01471   0.41611   0.98312   0.00000  Uiso   1.00
C419   C     0.97066   0.44287   0.86806   0.00000  Uiso   1.00
C420   C     0.14759   0.39963   0.15667   0.00000  Uiso   1.00
C421   C     0.15991   0.42675   0.22833   0.00000  Uiso   1.00
C422   C     0.20169   0.45214   0.22285   0.00000  Uiso   1.00
C423   C     0.26586   0.49973   0.24655   0.00000  Uiso   1.00
C424   C     0.12081   0.31944   0.12818   0.00000  Uiso   1.00
C425   C     0.11062   0.27915   0.17590   0.00000  Uiso   1.00
C426   C     0.12985   0.23703   0.14644   0.00000  Uiso   1.00
C427   C     0.15244   0.16013   0.12591   0.00000  Uiso   1.00
C428   C     0.15577   0.36599   0.01158   0.00000  Uiso   1.00
C429   C     0.10630   0.38448   0.99283   0.00000  Uiso   1.00
C430   C     0.08946   0.39855   0.91211   0.00000  Uiso   1.00
C431   C     0.04316   0.41440   0.90850   0.00000  Uiso   1.00
C432   C     0.17599   0.39792   0.08219   0.00000  Uiso   1.00
C433   C     0.21776   0.42327   0.07661   0.00000  Uiso   1.00
C434   C     0.23014   0.45043   0.14823   0.00000  Uiso   1.00
C435   C     0.14921   0.31773   0.05370   0.00000  Uiso   1.00
C436   C     0.16847   0.27567   0.02417   0.00000  Uiso   1.00
C437   C     0.15831   0.23532   0.07183   0.00000  Uiso   1.00
H438   H     0.08138   0.37047   0.20670   0.00000  Uiso   1.00
H439   H     0.00964   0.40334   0.12148   0.00000  Uiso   1.00
H440   H     0.13793   0.42806   0.28596   0.00000  Uiso   1.00
H441   H     0.08864   0.28049   0.23353   0.00000  Uiso   1.00
H442   H     0.94265   0.43906   0.99416   0.00000  Uiso   1.00
H443   H     0.21314   0.49116   0.34098   0.00000  Uiso   1.00
H444   H     0.10921   0.17997   0.23043   0.00000  Uiso   1.00
H445   H     0.17789   0.36466   0.95359   0.00000  Uiso   1.00
H446   H     0.11145   0.39722   0.85448   0.00000  Uiso   1.00
H447   H     0.23973   0.42194   0.01896   0.00000  Uiso   1.00
H448   H     0.19044   0.27436   0.96653   0.00000  Uiso   1.00
H449   H     0.02528   0.43409   0.77745   0.00000  Uiso   1.00
H450   H     0.29578   0.48619   0.12427   0.00000  Uiso   1.00
H451   H     0.19184   0.17500   0.01372   0.00000  Uiso   1.00
O452   O     0.93852   0.45811   0.82518   0.00000  Uiso   1.00
O453   O     0.29340   0.52646   0.28020   0.00000  Uiso   1.00
O454   O     0.15705   0.11819   0.13516   0.00000  Uiso   1.00
N455   N     0.97121   0.43341   0.95676   0.00000  Uiso   1.00
N456   N     0.22410   0.48213   0.28101   0.00000  Uiso   1.00
N457   N     0.12695   0.19119   0.17767   0.00000  Uiso   1.00
N458   N     0.01567   0.43074   0.84015   0.00000  Uiso   1.00
N459   N     0.26857   0.47946   0.16440   0.00000  Uiso   1.00
N460   N     0.17141   0.18852   0.06106   0.00000  Uiso   1.00
C461   C     0.89652   0.63086   0.14871   0.00000  Uiso   1.00
C462   C     0.92211   0.61381   0.06731   0.00000  Uiso   1.00
C463   C     0.96839   0.59798   0.06383   0.00000  Uiso   1.00
C464   C     0.98529   0.58389   0.98312   0.00000  Uiso   1.00
C465   C     0.02934   0.55713   0.86806   0.00000  Uiso   1.00
C466   C     0.85241   0.60037   0.15667   0.00000  Uiso   1.00
C467   C     0.84009   0.57325   0.22833   0.00000  Uiso   1.00
C468   C     0.79831   0.54786   0.22285   0.00000  Uiso   1.00
C469   C     0.73414   0.50027   0.24655   0.00000  Uiso   1.00
C470   C     0.87919   0.68056   0.12818   0.00000  Uiso   1.00
C471   C     0.88938   0.72085   0.17590   0.00000  Uiso   1.00
C472   C     0.87015   0.76297   0.14644   0.00000  Uiso   1.00
C473   C     0.84756   0.83987   0.12591   0.00000  Uiso   1.00
C474   C     0.84423   0.63401   0.01158   0.00000  Uiso   1.00
C475   C     0.89370   0.61552   0.99283   0.00000  Uiso   1.00
C476   C     0.91054   0.60145   0.91211   0.00000  Uiso   1.00
C477   C     0.95684   0.58560   0.90850   0.00000  Uiso   1.00
C478   C     0.82401   0.60208   0.08219   0.00000  Uiso   1.00
C479   C     0.78224   0.57673   0.07661   0.00000  Uiso   1.00
C480   C     0.76986   0.54957   0.14823   0.00000  Uiso   1.00
C481   C     0.85079   0.68227   0.05370   0.00000  Uiso   1.00
C482   C     0.83153   0.72433   0.02417   0.00000  Uiso   1.00
C483   C     0.84169   0.76468   0.07183   0.00000  Uiso   1.00
H484   H     0.91862   0.62953   0.20670   0.00000  Uiso   1.00
H485   H     0.99036   0.59666   0.12148   0.00000  Uiso   1.00
H486   H     0.86207   0.57194   0.28596   0.00000  Uiso   1.00
H487   H     0.91136   0.71951   0.23353   0.00000  Uiso   1.00
H488   H     0.05735   0.56094   0.99416   0.00000  Uiso   1.00
H489   H     0.78686   0.50884   0.34098   0.00000  Uiso   1.00
H490   H     0.89079   0.82003   0.23043   0.00000  Uiso   1.00
H491   H     0.82211   0.63534   0.95359   0.00000  Uiso   1.00
H492   H     0.88855   0.60278   0.85448   0.00000  Uiso   1.00
H493   H     0.76027   0.57806   0.01896   0.00000  Uiso   1.00
H494   H     0.80956   0.72564   0.96653   0.00000  Uiso   1.00
H495   H     0.97472   0.56591   0.77745   0.00000  Uiso   1.00
H496   H     0.70422   0.51381   0.12427   0.00000  Uiso   1.00
H497   H     0.80816   0.82500   0.01372   0.00000  Uiso   1.00
O498   O     0.06148   0.54189   0.82518   0.00000  Uiso   1.00
O499   O     0.70660   0.47354   0.28020   0.00000  Uiso   1.00
O500   O     0.84295   0.88181   0.13516   0.00000  Uiso   1.00
N501   N     0.02879   0.56659   0.95676   0.00000  Uiso   1.00
N502   N     0.77590   0.51787   0.28101   0.00000  Uiso   1.00
N503   N     0.87305   0.80881   0.17767   0.00000  Uiso   1.00
N504   N     0.98433   0.56926   0.84015   0.00000  Uiso   1.00
N505   N     0.73143   0.52054   0.16440   0.00000  Uiso   1.00
N506   N     0.82859   0.81148   0.06106   0.00000  Uiso   1.00
C507   C     0.39652   0.13086   0.64871   0.00000  Uiso   1.00
C508   C     0.42211   0.11381   0.56731   0.00000  Uiso   1.00
C509   C     0.46839   0.09798   0.56383   0.00000  Uiso   1.00
C510   C     0.48529   0.08389   0.48312   0.00000  Uiso   1.00
C511   C     0.52934   0.05713   0.36806   0.00000  Uiso   1.00
C512   C     0.35241   0.10037   0.65667   0.00000  Uiso   1.00
C513   C     0.34009   0.07325   0.72833   0.00000  Uiso   1.00
C514   C     0.29831   0.04786   0.72285   0.00000  Uiso   1.00
C515   C     0.23414   0.00027   0.74655   0.00000  Uiso   1.00
C516   C     0.37919   0.18056   0.62818   0.00000  Uiso   1.00
C517   C     0.38938   0.22085   0.67590   0.00000  Uiso   1.00
C518   C     0.37015   0.26297   0.64644   0.00000  Uiso   1.00
C519   C     0.34756   0.33987   0.62591   0.00000  Uiso   1.00
C520   C     0.34423   0.13401   0.51158   0.00000  Uiso   1.00
C521   C     0.39370   0.11552   0.49283   0.00000  Uiso   1.00
C522   C     0.41054   0.10145   0.41211   0.00000  Uiso   1.00
C523   C     0.45684   0.08560   0.40850   0.00000  Uiso   1.00
C524   C     0.32401   0.10208   0.58219   0.00000  Uiso   1.00
C525   C     0.28224   0.07673   0.57661   0.00000  Uiso   1.00
C526   C     0.26986   0.04957   0.64823   0.00000  Uiso   1.00
C527   C     0.35079   0.18227   0.55370   0.00000  Uiso   1.00
C528   C     0.33153   0.22433   0.52417   0.00000  Uiso   1.00
C529   C     0.34169   0.26468   0.57183   0.00000  Uiso   1.00
H530   H     0.41862   0.12953   0.70670   0.00000  Uiso   1.00
H531   H     0.49036   0.09666   0.62148   0.00000  Uiso   1.00
H532   H     0.36207   0.07194   0.78596   0.00000  Uiso   1.00
H533   H     0.41136   0.21951   0.73353   0.00000  Uiso   1.00
H534   H     0.55735   0.06094   0.49416   0.00000  Uiso   1.00
H535   H     0.28686   0.00884   0.84098   0.00000  Uiso   1.00
H536   H     0.39079   0.32003   0.73043   0.00000  Uiso   1.00
H537   H     0.32211   0.13534   0.45359   0.00000  Uiso   1.00
H538   H     0.38855   0.10278   0.35448   0.00000  Uiso   1.00
H539   H     0.26027   0.07806   0.51896   0.00000  Uiso   1.00
H540   H     0.30956   0.22564   0.46653   0.00000  Uiso   1.00
H541   H     0.47472   0.06591   0.27745   0.00000  Uiso   1.00
H542   H     0.20422   0.01381   0.62427   0.00000  Uiso   1.00
H543   H     0.30816   0.32500   0.51372   0.00000  Uiso   1.00
O544   O     0.56148   0.04189   0.32518   0.00000  Uiso   1.00
O545   O     0.20660   0.97354   0.78020   0.00000  Uiso   1.00
O546   O     0.34295   0.38181   0.63516   0.00000  Uiso   1.00
N547   N     0.52879   0.06659   0.45676   0.00000  Uiso   1.00
N548   N     0.27590   0.01787   0.78101   0.00000  Uiso   1.00
N549   N     0.37305   0.30881   0.67767   0.00000  Uiso   1.00
N550   N     0.48433   0.06926   0.34015   0.00000  Uiso   1.00
N551   N     0.23143   0.02054   0.66440   0.00000  Uiso   1.00
N552   N     0.32859   0.31148   0.56106   0.00000  Uiso   1.00
C553   C     0.63086   0.60348   0.39871   0.00000  Uiso   1.00
C554   C     0.61381   0.57789   0.31731   0.00000  Uiso   1.00
C555   C     0.59798   0.53161   0.31383   0.00000  Uiso   1.00
C556   C     0.58389   0.51471   0.23312   0.00000  Uiso   1.00
C557   C     0.55713   0.47066   0.11806   0.00000  Uiso   1.00
C558   C     0.60037   0.64759   0.40667   0.00000  Uiso   1.00
C559   C     0.57325   0.65991   0.47833   0.00000  Uiso   1.00
C560   C     0.54786   0.70169   0.47285   0.00000  Uiso   1.00
C561   C     0.50027   0.76586   0.49655   0.00000  Uiso   1.00
C562   C     0.68056   0.62081   0.37818   0.00000  Uiso   1.00
C563   C     0.72085   0.61062   0.42590   0.00000  Uiso   1.00
C564   C     0.76297   0.62985   0.39644   0.00000  Uiso   1.00
C565   C     0.83987   0.65244   0.37591   0.00000  Uiso   1.00
C566   C     0.63401   0.65577   0.26158   0.00000  Uiso   1.00
C567   C     0.61552   0.60630   0.24283   0.00000  Uiso   1.00
C568   C     0.60145   0.58946   0.16211   0.00000  Uiso   1.00
C569   C     0.58560   0.54316   0.15850   0.00000  Uiso   1.00
C570   C     0.60208   0.67599   0.33219   0.00000  Uiso   1.00
C571   C     0.57673   0.71776   0.32661   0.00000  Uiso   1.00
C572   C     0.54957   0.73014   0.39823   0.00000  Uiso   1.00
C573   C     0.68227   0.64921   0.30370   0.00000  Uiso   1.00
C574   C     0.72433   0.66847   0.27417   0.00000  Uiso   1.00
C575   C     0.76468   0.65831   0.32183   0.00000  Uiso   1.00
H576   H     0.62953   0.58138   0.45670   0.00000  Uiso   1.00
H577   H     0.59666   0.50964   0.37148   0.00000  Uiso   1.00
H578   H     0.57194   0.63793   0.53596   0.00000  Uiso   1.00
H579   H     0.71951   0.58864   0.48353   0.00000  Uiso   1.00
H580   H     0.56094   0.44265   0.24416   0.00000  Uiso   1.00
H581   H     0.50884   0.71314   0.59098   0.00000  Uiso   1.00
H582   H     0.82003   0.60921   0.48043   0.00000  Uiso   1.00
H583   H     0.63534   0.67789   0.20359   0.00000  Uiso   1.00
H584   H     0.60278   0.61145   0.10448   0.00000  Uiso   1.00
H585   H     0.57806   0.73973   0.26896   0.00000  Uiso   1.00
H586   H     0.72564   0.69044   0.21653   0.00000  Uiso   1.00
H587   H     0.56591   0.52528   0.02745   0.00000  Uiso   1.00
H588   H     0.51381   0.79578   0.37427   0.00000  Uiso   1.00
H589   H     0.82500   0.69184   0.26372   0.00000  Uiso   1.00
O590   O     0.54189   0.43852   0.07518   0.00000  Uiso   1.00
O591   O     0.47354   0.79340   0.53020   0.00000  Uiso   1.00
O592   O     0.88181   0.65705   0.38516   0.00000  Uiso   1.00
N593   N     0.56659   0.47121   0.20676   0.00000  Uiso   1.00
N594   N     0.51787   0.72410   0.53101   0.00000  Uiso   1.00
N595   N     0.80881   0.62695   0.42767   0.00000  Uiso   1.00
N596   N     0.56926   0.51567   0.09015   0.00000  Uiso   1.00
N597   N     0.52054   0.76857   0.41440   0.00000  Uiso   1.00
N598   N     0.81148   0.67141   0.31106   0.00000  Uiso   1.00
C599   C     0.13086   0.10348   0.89871   0.00000  Uiso   1.00
C600   C     0.11381   0.07789   0.81731   0.00000  Uiso   1.00
C601   C     0.09798   0.03161   0.81383   0.00000  Uiso   1.00
C602   C     0.08389   0.01471   0.73312   0.00000  Uiso   1.00
C603   C     0.05713   0.97066   0.61806   0.00000  Uiso   1.00
C604   C     0.10037   0.14759   0.90667   0.00000  Uiso   1.00
C605   C     0.07325   0.15991   0.97833   0.00000  Uiso   1.00
C606   C     0.04786   0.20169   0.97285   0.00000  Uiso   1.00
C607   C     0.00027   0.26586   0.99655   0.00000  Uiso   1.00
C608   C     0.18056   0.12081   0.87818   0.00000  Uiso   1.00
C609   C     0.22085   0.11062   0.92590   0.00000  Uiso   1.00
C610   C     0.26297   0.12985   0.89644   0.00000  Uiso   1.00
C611   C     0.33987   0.15244   0.87591   0.00000  Uiso   1.00
C612   C     0.13401   0.15577   0.76158   0.00000  Uiso   1.00
C613   C     0.11552   0.10630   0.74283   0.00000  Uiso   1.00
C614   C     0.10145   0.08946   0.66211   0.00000  Uiso   1.00
C615   C     0.08560   0.04316   0.65850   0.00000  Uiso   1.00
C616   C     0.10208   0.17599   0.83219   0.00000  Uiso   1.00
C617   C     0.07673   0.21776   0.82661   0.00000  Uiso   1.00
C618   C     0.04957   0.23014   0.89823   0.00000  Uiso   1.00
C619   C     0.18227   0.14921   0.80370   0.00000  Uiso   1.00
C620   C     0.22433   0.16847   0.77417   0.00000  Uiso   1.00
C621   C     0.26468   0.15831   0.82183   0.00000  Uiso   1.00
H622   H     0.12953   0.08138   0.95670   0.00000  Uiso   1.00
H623   H     0.09666   0.00964   0.87148   0.00000  Uiso   1.00
H624   H     0.07194   0.13793   0.03596   0.00000  Uiso   1.00
H625   H     0.21951   0.08864   0.98353   0.00000  Uiso   1.00
H626   H     0.06094   0.94265   0.74416   0.00000  Uiso   1.00
H627   H     0.00884   0.21314   0.09098   0.00000  Uiso   1.00
H628   H     0.32003   0.10921   0.98043   0.00000  Uiso   1.00
H629   H     0.13534   0.17789   0.70359   0.00000  Uiso   1.00
H630   H     0.10278   0.11145   0.60448   0.00000  Uiso   1.00
H631   H     0.07806   0.23973   0.76896   0.00000  Uiso   1.00
H632   H     0.22564   0.19044   0.71653   0.00000  Uiso   1.00
H633   H     0.06591   0.02528   0.52745   0.00000  Uiso   1.00
H634   H     0.01381   0.29578   0.87427   0.00000  Uiso   1.00
H635   H     0.32500   0.19184   0.76372   0.00000  Uiso   1.00
O636   O     0.04189   0.93852   0.57518   0.00000  Uiso   1.00
O637   O     0.97354   0.29340   0.03020   0.00000  Uiso   1.00
O638   O     0.38181   0.15705   0.88516   0.00000  Uiso   1.00
N639   N     0.06659   0.97121   0.70676   0.00000  Uiso   1.00
N640   N     0.01787   0.22410   0.03101   0.00000  Uiso   1.00
N641   N     0.30881   0.12695   0.92767   0.00000  Uiso   1.00
N642   N     0.06926   0.01567   0.59015   0.00000  Uiso   1.00
N643   N     0.02054   0.26857   0.91440   0.00000  Uiso   1.00
N644   N     0.31148   0.17141   0.81106   0.00000  Uiso   1.00
C645   C     0.86914   0.89652   0.89871   0.00000  Uiso   1.00
C646   C     0.88619   0.92211   0.81731   0.00000  Uiso   1.00
C647   C     0.90202   0.96839   0.81383   0.00000  Uiso   1.00
C648   C     0.91611   0.98529   0.73312   0.00000  Uiso   1.00
C649   C     0.94287   0.02934   0.61806   0.00000  Uiso   1.00
C650   C     0.89963   0.85241   0.90667   0.00000  Uiso   1.00
C651   C     0.92675   0.84009   0.97833   0.00000  Uiso   1.00
C652   C     0.95214   0.79831   0.97285   0.00000  Uiso   1.00
C653   C     0.99973   0.73414   0.99655   0.00000  Uiso   1.00
C654   C     0.81944   0.87919   0.87818   0.00000  Uiso   1.00
C655   C     0.77915   0.88938   0.92590   0.00000  Uiso   1.00
C656   C     0.73703   0.87015   0.89644   0.00000  Uiso   1.00
C657   C     0.66013   0.84756   0.87591   0.00000  Uiso   1.00
C658   C     0.86599   0.84423   0.76158   0.00000  Uiso   1.00
C659   C     0.88448   0.89370   0.74283   0.00000  Uiso   1.00
C660   C     0.89855   0.91054   0.66211   0.00000  Uiso   1.00
C661   C     0.91440   0.95684   0.65850   0.00000  Uiso   1.00
C662   C     0.89792   0.82401   0.83219   0.00000  Uiso   1.00
C663   C     0.92327   0.78224   0.82661   0.00000  Uiso   1.00
C664   C     0.95043   0.76986   0.89823   0.00000  Uiso   1.00
C665   C     0.81773   0.85079   0.80370   0.00000  Uiso   1.00
C666   C     0.77567   0.83153   0.77417   0.00000  Uiso   1.00
C667   C     0.73532   0.84169   0.82183   0.00000  Uiso   1.00
H668   H     0.87047   0.91862   0.95670   0.00000  Uiso   1.00
H669   H     0.90334   0.99036   0.87148   0.00000  Uiso   1.00
H670   H     0.92806   0.86207   0.03596   0.00000  Uiso   1.00
H671   H     0.78049   0.91136   0.98353   0.00000  Uiso   1.00
H672   H     0.93906   0.05735   0.74416   0.00000  Uiso   1.00
H673   H     0.99116   0.78686   0.09098   0.00000  Uiso   1.00
H674   H     0.67997   0.89079   0.98043   0.00000  Uiso   1.00
H675   H     0.86466   0.82211   0.70359   0.00000  Uiso   1.00
H676   H     0.89722   0.88855   0.60448   0.00000  Uiso   1.00
H677   H     0.92194   0.76027   0.76896   0.00000  Uiso   1.00
H678   H     0.77436   0.80956   0.71653   0.00000  Uiso   1.00
H679   H     0.93409   0.97472   0.52745   0.00000  Uiso   1.00
H680   H     0.98619   0.70422   0.87427   0.00000  Uiso   1.00
H681   H     0.67500   0.80816   0.76372   0.00000  Uiso   1.00
O682   O     0.95811   0.06148   0.57518   0.00000  Uiso   1.00
O683   O     0.02646   0.70660   0.03020   0.00000  Uiso   1.00
O684   O     0.61819   0.84295   0.88516   0.00000  Uiso   1.00
N685   N     0.93341   0.02879   0.70676   0.00000  Uiso   1.00
N686   N     0.98213   0.77590   0.03101   0.00000  Uiso   1.00
N687   N     0.69119   0.87305   0.92767   0.00000  Uiso   1.00
N688   N     0.93074   0.98433   0.59015   0.00000  Uiso   1.00
N689   N     0.97946   0.73143   0.91440   0.00000  Uiso   1.00
N690   N     0.68852   0.82859   0.81106   0.00000  Uiso   1.00
C691   C     0.36914   0.39652   0.39871   0.00000  Uiso   1.00
C692   C     0.38619   0.42211   0.31731   0.00000  Uiso   1.00
C693   C     0.40202   0.46839   0.31383   0.00000  Uiso   1.00
C694   C     0.41611   0.48529   0.23312   0.00000  Uiso   1.00
C695   C     0.44287   0.52934   0.11806   0.00000  Uiso   1.00
C696   C     0.39963   0.35241   0.40667   0.00000  Uiso   1.00
C697   C     0.42675   0.34009   0.47833   0.00000  Uiso   1.00
C698   C     0.45214   0.29831   0.47285   0.00000  Uiso   1.00
C699   C     0.49973   0.23414   0.49655   0.00000  Uiso   1.00
C700   C     0.31944   0.37919   0.37818   0.00000  Uiso   1.00
C701   C     0.27915   0.38938   0.42590   0.00000  Uiso   1.00
C702   C     0.23703   0.37015   0.39644   0.00000  Uiso   1.00
C703   C     0.16013   0.34756   0.37591   0.00000  Uiso   1.00
C704   C     0.36599   0.34423   0.26158   0.00000  Uiso   1.00
C705   C     0.38448   0.39370   0.24283   0.00000  Uiso   1.00
C706   C     0.39855   0.41054   0.16211   0.00000  Uiso   1.00
C707   C     0.41440   0.45684   0.15850   0.00000  Uiso   1.00
C708   C     0.39792   0.32401   0.33219   0.00000  Uiso   1.00
C709   C     0.42327   0.28224   0.32661   0.00000  Uiso   1.00
C710   C     0.45043   0.26986   0.39823   0.00000  Uiso   1.00
C711   C     0.31773   0.35079   0.30370   0.00000  Uiso   1.00
C712   C     0.27567   0.33153   0.27417   0.00000  Uiso   1.00
C713   C     0.23532   0.34169   0.32183   0.00000  Uiso   1.00
H714   H     0.37047   0.41862   0.45670   0.00000  Uiso   1.00
H715   H     0.40334   0.49036   0.37148   0.00000  Uiso   1.00
H716   H     0.42806   0.36207   0.53596   0.00000  Uiso   1.00
H717   H     0.28049   0.41136   0.48353   0.00000  Uiso   1.00
H718   H     0.43906   0.55735   0.24416   0.00000  Uiso   1.00
H719   H     0.49116   0.28686   0.59098   0.00000  Uiso   1.00
H720   H     0.17997   0.39079   0.48043   0.00000  Uiso   1.00
H721   H     0.36466   0.32211   0.20359   0.00000  Uiso   1.00
H722   H     0.39722   0.38855   0.10448   0.00000  Uiso   1.00
H723   H     0.42194   0.26027   0.26896   0.00000  Uiso   1.00
H724   H     0.27436   0.30956   0.21653   0.00000  Uiso   1.00
H725   H     0.43409   0.47472   0.02745   0.00000  Uiso   1.00
H726   H     0.48619   0.20422   0.37427   0.00000  Uiso   1.00
H727   H     0.17500   0.30816   0.26372   0.00000  Uiso   1.00
O728   O     0.45811   0.56148   0.07518   0.00000  Uiso   1.00
O729   O     0.52646   0.20660   0.53020   0.00000  Uiso   1.00
O730   O     0.11819   0.34295   0.38516   0.00000  Uiso   1.00
N731   N     0.43341   0.52879   0.20676   0.00000  Uiso   1.00
N732   N     0.48213   0.27590   0.53101   0.00000  Uiso   1.00
N733   N     0.19119   0.37305   0.42767   0.00000  Uiso   1.00
N734   N     0.43074   0.48433   0.09015   0.00000  Uiso   1.00
N735   N     0.47946   0.23143   0.41440   0.00000  Uiso   1.00
N736   N     0.18852   0.32859   0.31106   0.00000  Uiso   1.00
