data_job_06486
_audit_creation_date              2018-12-19
_audit_creation_method            'Materials Studio'
_symmetry_space_group_name_H-M    'P1'
_symmetry_Int_Tables_number       1
_symmetry_cell_setting            triclinic
loop_
_symmetry_equiv_pos_as_xyz
  x,y,z
_cell_length_a                    33.5056
_cell_length_b                    24.6273
_cell_length_c                    42.9686
_cell_angle_alpha                 90.0000
_cell_angle_beta                  148.7726
_cell_angle_gamma                 90.0000
loop_
_atom_site_label
_atom_site_type_symbol
_atom_site_fract_x
_atom_site_fract_y
_atom_site_fract_z
_atom_site_U_iso_or_equiv
_atom_site_adp_type
_atom_site_occupancy
C1     C     0.80095   0.14503   0.13472   0.00000  Uiso   1.00
C2     C     0.82635   0.16953   0.12073   0.00000  Uiso   1.00
C3     C     0.88647   0.15093   0.14241   0.00000  Uiso   1.00
C4     C     0.90060   0.17891   0.12437   0.00000  Uiso   1.00
C5     C     0.94684   0.21013   0.10849   0.00000  Uiso   1.00
C6     C     0.80455   0.19105   0.16082   0.00000  Uiso   1.00
C7     C     0.84633   0.19055   0.21621   0.00000  Uiso   1.00
C8     C     0.84209   0.23664   0.23191   0.00000  Uiso   1.00
C9     C     0.85443   0.30125   0.27827   0.00000  Uiso   1.00
C10    C     0.71588   0.13122   0.07424   0.00000  Uiso   1.00
C11    C     0.68310   0.08042   0.05683   0.00000  Uiso   1.00
C12    C     0.60420   0.07615   0.99964   0.00000  Uiso   1.00
C13    C     0.47887   0.04788   0.91157   0.00000  Uiso   1.00
C14    C     0.71913   0.22778   0.06412   0.00000  Uiso   1.00
C15    C     0.78191   0.21447   0.08238   0.00000  Uiso   1.00
C16    C     0.79595   0.24248   0.06430   0.00000  Uiso   1.00
C17    C     0.85608   0.22393   0.08595   0.00000  Uiso   1.00
C18    C     0.76011   0.23599   0.12248   0.00000  Uiso   1.00
C19    C     0.75581   0.28210   0.13810   0.00000  Uiso   1.00
C20    C     0.79757   0.28167   0.19350   0.00000  Uiso   1.00
C21    C     0.67144   0.17617   0.03589   0.00000  Uiso   1.00
C22    C     0.59258   0.17197   0.97872   0.00000  Uiso   1.00
C23    C     0.55968   0.12118   0.96123   0.00000  Uiso   1.00
H24    H     0.83554   0.11004   0.16458   0.00000  Uiso   1.00
H25    H     0.92085   0.11615   0.17209   0.00000  Uiso   1.00
H26    H     0.88070   0.15576   0.24587   0.00000  Uiso   1.00
H27    H     0.71750   0.04565   0.08652   0.00000  Uiso   1.00
H28    H     0.99586   0.14276   0.16352   0.00000  Uiso   1.00
H29    H     0.91118   0.22626   0.31909   0.00000  Uiso   1.00
H30    H     0.56704   0.99408   0.98306   0.00000  Uiso   1.00
H31    H     0.68453   0.26277   0.03427   0.00000  Uiso   1.00
H32    H     0.76155   0.27726   0.03463   0.00000  Uiso   1.00
H33    H     0.72141   0.31687   0.10842   0.00000  Uiso   1.00
H34    H     0.55821   0.20676   0.94906   0.00000  Uiso   1.00
H35    H     0.36657   0.77353   0.05196   0.00000  Uiso   1.00
H36    H     0.78189   0.35703   0.20753   0.00000  Uiso   1.00
H37    H     0.43775   0.12485   0.87150   0.00000  Uiso   1.00
O38    O     0.48462   0.71494   0.11034   0.00000  Uiso   1.00
O39    O     0.87352   0.32448   0.31444   0.00000  Uiso   1.00
O40    O     0.42201   0.01986   0.87358   0.00000  Uiso   1.00
N41    N     0.95485   0.17154   0.13720   0.00000  Uiso   1.00
N42    N     0.87569   0.24961   0.28266   0.00000  Uiso   1.00
N43    N     0.55394   0.03255   0.96850   0.00000  Uiso   1.00
N44    N     0.88528   0.24191   0.07717   0.00000  Uiso   1.00
N45    N     0.80612   0.31998   0.22263   0.00000  Uiso   1.00
N46    N     0.48437   0.10291   0.90847   0.00000  Uiso   1.00
C47    C     0.58995   0.87282   0.03754   0.00000  Uiso   1.00
C48    C     0.56329   0.86040   0.98671   0.00000  Uiso   1.00
C49    C     0.49459   0.87739   0.92760   0.00000  Uiso   1.00
C50    C     0.48082   0.86177   0.88787   0.00000  Uiso   1.00
C51    C     0.43133   0.84724   0.80608   0.00000  Uiso   1.00
C52    C     0.60534   0.81799   0.06307   0.00000  Uiso   1.00
C53    C     0.57200   0.79934   0.06817   0.00000  Uiso   1.00
C54    C     0.59364   0.74803   0.09273   0.00000  Uiso   1.00
C55    C     0.60948   0.66768   0.12954   0.00000  Uiso   1.00
C56    C     0.66818   0.90036   0.08652   0.00000  Uiso   1.00
C57    C     0.68768   0.95096   0.11135   0.00000  Uiso   1.00
C58    C     0.76223   0.96900   0.15567   0.00000  Uiso   1.00
C59    C     0.87564   0.01654   0.22888   0.00000  Uiso   1.00
C60    C     0.68767   0.81487   0.07209   0.00000  Uiso   1.00
C61    C     0.61637   0.82891   0.00548   0.00000  Uiso   1.00
C62    C     0.60271   0.81327   0.96583   0.00000  Uiso   1.00
C63    C     0.53399   0.83024   0.90667   0.00000  Uiso   1.00
C64    C     0.65842   0.78651   0.08184   0.00000  Uiso   1.00
C65    C     0.68012   0.73522   0.10640   0.00000  Uiso   1.00
C66    C     0.64681   0.71649   0.11154   0.00000  Uiso   1.00
C67    C     0.72126   0.86888   0.10529   0.00000  Uiso   1.00
C68    C     0.79580   0.88684   0.14958   0.00000  Uiso   1.00
C69    C     0.81541   0.93746   0.17447   0.00000  Uiso   1.00
H70    H     0.54863   0.89733   0.02292   0.00000  Uiso   1.00
H71    H     0.45352   0.90175   0.91309   0.00000  Uiso   1.00
H72    H     0.53093   0.82371   0.05365   0.00000  Uiso   1.00
H73    H     0.64659   0.97531   0.09681   0.00000  Uiso   1.00
H74    H     0.37148   0.89275   0.79959   0.00000  Uiso   1.00
H75    H     0.53471   0.72821   0.09598   0.00000  Uiso   1.00
H76    H     0.77861   0.04789   0.18701   0.00000  Uiso   1.00
H77    H     0.72900   0.79036   0.08671   0.00000  Uiso   1.00
H78    H     0.64379   0.78891   0.98037   0.00000  Uiso   1.00
H79    H     0.72119   0.71087   0.12093   0.00000  Uiso   1.00
H80    H     0.83686   0.86247   0.16409   0.00000  Uiso   1.00
H81    H     0.52590   0.80116   0.85419   0.00000  Uiso   1.00
H82    H     0.68914   0.63662   0.15059   0.00000  Uiso   1.00
H83    H     0.93304   0.95630   0.24161   0.00000  Uiso   1.00
O84    O     0.38937   0.84792   0.75578   0.00000  Uiso   1.00
O85    O     0.60354   0.63206   0.14465   0.00000  Uiso   1.00
O86    O     0.92353   0.05147   0.26407   0.00000  Uiso   1.00
N87    N     0.41952   0.87140   0.82704   0.00000  Uiso   1.00
N88    N     0.57213   0.71757   0.10413   0.00000  Uiso   1.00
N89    N     0.80016   0.01643   0.18925   0.00000  Uiso   1.00
N90    N     0.50262   0.82212   0.85642   0.00000  Uiso   1.00
N91    N     0.65522   0.66828   0.13352   0.00000  Uiso   1.00
N92    N     0.88325   0.96715   0.21863   0.00000  Uiso   1.00
C93    C     0.18340   0.18295   0.73472   0.00000  Uiso   1.00
C94    C     0.17027   0.22529   0.70061   0.00000  Uiso   1.00
C95    C     0.21812   0.26897   0.72602   0.00000  Uiso   1.00
C96    C     0.19602   0.30310   0.68717   0.00000  Uiso   1.00
C97    C     0.18588   0.37025   0.64364   0.00000  Uiso   1.00
C98    C     0.11141   0.18384   0.70702   0.00000  Uiso   1.00
C99    C     0.10977   0.19268   0.73782   0.00000  Uiso   1.00
C100   C     0.03812   0.19191   0.70436   0.00000  Uiso   1.00
C101   C     0.93660   0.19469   0.67078   0.00000  Uiso   1.00
C102   C     0.18332   0.12803   0.71828   0.00000  Uiso   1.00
C103   C     0.24213   0.08993   0.75854   0.00000  Uiso   1.00
C104   C     0.23102   0.04217   0.73456   0.00000  Uiso   1.00
C105   C     0.24116   0.95830   0.71846   0.00000  Uiso   1.00
C106   C     0.05908   0.16588   0.62054   0.00000  Uiso   1.00
C107   C     0.10274   0.21601   0.63859   0.00000  Uiso   1.00
C108   C     0.08057   0.25008   0.59969   0.00000  Uiso   1.00
C109   C     0.12837   0.29380   0.62504   0.00000  Uiso   1.00
C110   C     0.04389   0.17457   0.64500   0.00000  Uiso   1.00
C111   C     0.97222   0.17378   0.61149   0.00000  Uiso   1.00
C112   C     0.97047   0.18262   0.64222   0.00000  Uiso   1.00
C113   C     0.11580   0.11876   0.65626   0.00000  Uiso   1.00
C114   C     0.10459   0.07104   0.63221   0.00000  Uiso   1.00
C115   C     0.16337   0.03288   0.67243   0.00000  Uiso   1.00
H116   H     0.23597   0.19018   0.78301   0.00000  Uiso   1.00
H117   H     0.27037   0.27614   0.77402   0.00000  Uiso   1.00
H118   H     0.16204   0.19985   0.78581   0.00000  Uiso   1.00
H119   H     0.29438   0.09713   0.80653   0.00000  Uiso   1.00
H120   H     0.27870   0.36736   0.73670   0.00000  Uiso   1.00
H121   H     0.05028   0.20649   0.76158   0.00000  Uiso   1.00
H122   H     0.32936   0.98987   0.80527   0.00000  Uiso   1.00
H123   H     0.00650   0.15865   0.57225   0.00000  Uiso   1.00
H124   H     0.02831   0.24289   0.55170   0.00000  Uiso   1.00
H125   H     0.91998   0.16660   0.56350   0.00000  Uiso   1.00
H126   H     0.05232   0.06388   0.58421   0.00000  Uiso   1.00
H127   H     0.08224   0.34038   0.55626   0.00000  Uiso   1.00
H128   H     0.85382   0.17950   0.58113   0.00000  Uiso   1.00
H129   H     0.13290   0.96289   0.62482   0.00000  Uiso   1.00
O130   O     0.19894   0.40986   0.63676   0.00000  Uiso   1.00
O131   O     0.89927   0.19879   0.66940   0.00000  Uiso   1.00
O132   O     0.26541   0.91460   0.72672   0.00000  Uiso   1.00
N133   N     0.22948   0.34944   0.69706   0.00000  Uiso   1.00
N134   N     0.01592   0.19905   0.72031   0.00000  Uiso   1.00
N135   N     0.27683   0.99652   0.76116   0.00000  Uiso   1.00
N136   N     0.12377   0.33492   0.59996   0.00000  Uiso   1.00
N137   N     0.91021   0.18453   0.62322   0.00000  Uiso   1.00
N138   N     0.17111   0.98200   0.66406   0.00000  Uiso   1.00
C139   C     0.30095   0.64503   0.13472   0.00000  Uiso   1.00
C140   C     0.32635   0.66953   0.12073   0.00000  Uiso   1.00
C141   C     0.38647   0.65093   0.14241   0.00000  Uiso   1.00
C142   C     0.40060   0.67891   0.12437   0.00000  Uiso   1.00
C143   C     0.44684   0.71013   0.10849   0.00000  Uiso   1.00
C144   C     0.30455   0.69105   0.16082   0.00000  Uiso   1.00
C145   C     0.34633   0.69055   0.21621   0.00000  Uiso   1.00
C146   C     0.34209   0.73664   0.23191   0.00000  Uiso   1.00
C147   C     0.35443   0.80125   0.27827   0.00000  Uiso   1.00
C148   C     0.21588   0.63122   0.07424   0.00000  Uiso   1.00
C149   C     0.18310   0.58042   0.05683   0.00000  Uiso   1.00
C150   C     0.10420   0.57615   0.99964   0.00000  Uiso   1.00
C151   C     0.97887   0.54788   0.91157   0.00000  Uiso   1.00
C152   C     0.21913   0.72778   0.06412   0.00000  Uiso   1.00
C153   C     0.28191   0.71447   0.08238   0.00000  Uiso   1.00
C154   C     0.29595   0.74248   0.06430   0.00000  Uiso   1.00
C155   C     0.35608   0.72393   0.08595   0.00000  Uiso   1.00
C156   C     0.26011   0.73599   0.12248   0.00000  Uiso   1.00
C157   C     0.25581   0.78210   0.13810   0.00000  Uiso   1.00
C158   C     0.29757   0.78167   0.19350   0.00000  Uiso   1.00
C159   C     0.17144   0.67617   0.03589   0.00000  Uiso   1.00
C160   C     0.09258   0.67197   0.97872   0.00000  Uiso   1.00
C161   C     0.05968   0.62118   0.96123   0.00000  Uiso   1.00
H162   H     0.33554   0.61004   0.16458   0.00000  Uiso   1.00
H163   H     0.42085   0.61615   0.17209   0.00000  Uiso   1.00
H164   H     0.38070   0.65576   0.24587   0.00000  Uiso   1.00
H165   H     0.21750   0.54565   0.08652   0.00000  Uiso   1.00
H166   H     0.49586   0.64276   0.16352   0.00000  Uiso   1.00
H167   H     0.41118   0.72626   0.31909   0.00000  Uiso   1.00
H168   H     0.06704   0.49408   0.98306   0.00000  Uiso   1.00
H169   H     0.18453   0.76277   0.03427   0.00000  Uiso   1.00
H170   H     0.26155   0.77726   0.03463   0.00000  Uiso   1.00
H171   H     0.22141   0.81687   0.10842   0.00000  Uiso   1.00
H172   H     0.05821   0.70676   0.94906   0.00000  Uiso   1.00
H173   H     0.86657   0.27353   0.05196   0.00000  Uiso   1.00
H174   H     0.28189   0.85703   0.20753   0.00000  Uiso   1.00
H175   H     0.93775   0.62485   0.87150   0.00000  Uiso   1.00
O176   O     0.98462   0.21494   0.11034   0.00000  Uiso   1.00
O177   O     0.37352   0.82448   0.31444   0.00000  Uiso   1.00
O178   O     0.92201   0.51986   0.87358   0.00000  Uiso   1.00
N179   N     0.45485   0.67154   0.13720   0.00000  Uiso   1.00
N180   N     0.37569   0.74961   0.28266   0.00000  Uiso   1.00
N181   N     0.05394   0.53255   0.96850   0.00000  Uiso   1.00
N182   N     0.38528   0.74191   0.07717   0.00000  Uiso   1.00
N183   N     0.30612   0.81998   0.22263   0.00000  Uiso   1.00
N184   N     0.98437   0.60291   0.90847   0.00000  Uiso   1.00
C185   C     0.08995   0.37282   0.03754   0.00000  Uiso   1.00
C186   C     0.06329   0.36040   0.98671   0.00000  Uiso   1.00
C187   C     0.99459   0.37739   0.92760   0.00000  Uiso   1.00
C188   C     0.98082   0.36177   0.88787   0.00000  Uiso   1.00
C189   C     0.93133   0.34724   0.80608   0.00000  Uiso   1.00
C190   C     0.10534   0.31799   0.06307   0.00000  Uiso   1.00
C191   C     0.07200   0.29934   0.06817   0.00000  Uiso   1.00
C192   C     0.09364   0.24803   0.09273   0.00000  Uiso   1.00
C193   C     0.10948   0.16768   0.12954   0.00000  Uiso   1.00
C194   C     0.16818   0.40036   0.08652   0.00000  Uiso   1.00
C195   C     0.18768   0.45096   0.11135   0.00000  Uiso   1.00
C196   C     0.26223   0.46900   0.15567   0.00000  Uiso   1.00
C197   C     0.37564   0.51654   0.22888   0.00000  Uiso   1.00
C198   C     0.18767   0.31487   0.07209   0.00000  Uiso   1.00
C199   C     0.11637   0.32891   0.00548   0.00000  Uiso   1.00
C200   C     0.10271   0.31327   0.96583   0.00000  Uiso   1.00
C201   C     0.03399   0.33024   0.90667   0.00000  Uiso   1.00
C202   C     0.15842   0.28651   0.08184   0.00000  Uiso   1.00
C203   C     0.18012   0.23522   0.10640   0.00000  Uiso   1.00
C204   C     0.14681   0.21649   0.11154   0.00000  Uiso   1.00
C205   C     0.22126   0.36888   0.10529   0.00000  Uiso   1.00
C206   C     0.29580   0.38684   0.14958   0.00000  Uiso   1.00
C207   C     0.31541   0.43746   0.17447   0.00000  Uiso   1.00
H208   H     0.04863   0.39733   0.02292   0.00000  Uiso   1.00
H209   H     0.95352   0.40175   0.91309   0.00000  Uiso   1.00
H210   H     0.03093   0.32371   0.05365   0.00000  Uiso   1.00
H211   H     0.14659   0.47531   0.09681   0.00000  Uiso   1.00
H212   H     0.87148   0.39275   0.79959   0.00000  Uiso   1.00
H213   H     0.03471   0.22821   0.09598   0.00000  Uiso   1.00
H214   H     0.27861   0.54789   0.18701   0.00000  Uiso   1.00
H215   H     0.22900   0.29036   0.08671   0.00000  Uiso   1.00
H216   H     0.14379   0.28891   0.98037   0.00000  Uiso   1.00
H217   H     0.22119   0.21087   0.12093   0.00000  Uiso   1.00
H218   H     0.33686   0.36247   0.16409   0.00000  Uiso   1.00
H219   H     0.02590   0.30116   0.85419   0.00000  Uiso   1.00
H220   H     0.18914   0.13662   0.15059   0.00000  Uiso   1.00
H221   H     0.43304   0.45630   0.24161   0.00000  Uiso   1.00
O222   O     0.88937   0.34792   0.75578   0.00000  Uiso   1.00
O223   O     0.10354   0.13206   0.14465   0.00000  Uiso   1.00
O224   O     0.42353   0.55147   0.26407   0.00000  Uiso   1.00
N225   N     0.91952   0.37140   0.82704   0.00000  Uiso   1.00
N226   N     0.07213   0.21757   0.10413   0.00000  Uiso   1.00
N227   N     0.30016   0.51643   0.18925   0.00000  Uiso   1.00
N228   N     0.00262   0.32212   0.85642   0.00000  Uiso   1.00
N229   N     0.15522   0.16828   0.13352   0.00000  Uiso   1.00
N230   N     0.38325   0.46715   0.21863   0.00000  Uiso   1.00
C231   C     0.68340   0.68295   0.73472   0.00000  Uiso   1.00
C232   C     0.67027   0.72529   0.70061   0.00000  Uiso   1.00
C233   C     0.71812   0.76897   0.72602   0.00000  Uiso   1.00
C234   C     0.69602   0.80310   0.68717   0.00000  Uiso   1.00
C235   C     0.68588   0.87025   0.64364   0.00000  Uiso   1.00
C236   C     0.61141   0.68384   0.70702   0.00000  Uiso   1.00
C237   C     0.60977   0.69268   0.73782   0.00000  Uiso   1.00
C238   C     0.53812   0.69191   0.70436   0.00000  Uiso   1.00
C239   C     0.43660   0.69469   0.67078   0.00000  Uiso   1.00
C240   C     0.68332   0.62803   0.71828   0.00000  Uiso   1.00
C241   C     0.74213   0.58993   0.75854   0.00000  Uiso   1.00
C242   C     0.73102   0.54217   0.73456   0.00000  Uiso   1.00
C243   C     0.74116   0.45830   0.71846   0.00000  Uiso   1.00
C244   C     0.55908   0.66588   0.62054   0.00000  Uiso   1.00
C245   C     0.60274   0.71601   0.63859   0.00000  Uiso   1.00
C246   C     0.58057   0.75008   0.59969   0.00000  Uiso   1.00
C247   C     0.62837   0.79380   0.62504   0.00000  Uiso   1.00
C248   C     0.54389   0.67457   0.64500   0.00000  Uiso   1.00
C249   C     0.47222   0.67378   0.61149   0.00000  Uiso   1.00
C250   C     0.47047   0.68262   0.64222   0.00000  Uiso   1.00
C251   C     0.61580   0.61876   0.65626   0.00000  Uiso   1.00
C252   C     0.60459   0.57104   0.63221   0.00000  Uiso   1.00
C253   C     0.66337   0.53288   0.67243   0.00000  Uiso   1.00
H254   H     0.73597   0.69018   0.78301   0.00000  Uiso   1.00
H255   H     0.77037   0.77614   0.77402   0.00000  Uiso   1.00
H256   H     0.66204   0.69985   0.78581   0.00000  Uiso   1.00
H257   H     0.79438   0.59713   0.80653   0.00000  Uiso   1.00
H258   H     0.77870   0.86736   0.73670   0.00000  Uiso   1.00
H259   H     0.55028   0.70649   0.76158   0.00000  Uiso   1.00
H260   H     0.82936   0.48987   0.80527   0.00000  Uiso   1.00
H261   H     0.50650   0.65865   0.57225   0.00000  Uiso   1.00
H262   H     0.52831   0.74289   0.55170   0.00000  Uiso   1.00
H263   H     0.41998   0.66660   0.56350   0.00000  Uiso   1.00
H264   H     0.55232   0.56388   0.58421   0.00000  Uiso   1.00
H265   H     0.58224   0.84038   0.55626   0.00000  Uiso   1.00
H266   H     0.35382   0.67950   0.58113   0.00000  Uiso   1.00
H267   H     0.63290   0.46289   0.62482   0.00000  Uiso   1.00
O268   O     0.69894   0.90986   0.63676   0.00000  Uiso   1.00
O269   O     0.39927   0.69879   0.66940   0.00000  Uiso   1.00
O270   O     0.76541   0.41460   0.72672   0.00000  Uiso   1.00
N271   N     0.72948   0.84944   0.69706   0.00000  Uiso   1.00
N272   N     0.51592   0.69905   0.72031   0.00000  Uiso   1.00
N273   N     0.77683   0.49652   0.76116   0.00000  Uiso   1.00
N274   N     0.62377   0.83492   0.59996   0.00000  Uiso   1.00
N275   N     0.41021   0.68453   0.62322   0.00000  Uiso   1.00
N276   N     0.67111   0.48200   0.66406   0.00000  Uiso   1.00
C277   C     0.19905   0.14503   0.36528   0.00000  Uiso   1.00
C278   C     0.17365   0.16953   0.37927   0.00000  Uiso   1.00
C279   C     0.11353   0.15093   0.35759   0.00000  Uiso   1.00
C280   C     0.09940   0.17891   0.37563   0.00000  Uiso   1.00
C281   C     0.05316   0.21013   0.39151   0.00000  Uiso   1.00
C282   C     0.19545   0.19105   0.33918   0.00000  Uiso   1.00
C283   C     0.15367   0.19055   0.28379   0.00000  Uiso   1.00
C284   C     0.15791   0.23664   0.26809   0.00000  Uiso   1.00
C285   C     0.14557   0.30125   0.22173   0.00000  Uiso   1.00
C286   C     0.28412   0.13122   0.42576   0.00000  Uiso   1.00
C287   C     0.31690   0.08042   0.44317   0.00000  Uiso   1.00
C288   C     0.39580   0.07615   0.50036   0.00000  Uiso   1.00
C289   C     0.52113   0.04788   0.58843   0.00000  Uiso   1.00
C290   C     0.28087   0.22778   0.43588   0.00000  Uiso   1.00
C291   C     0.21809   0.21447   0.41762   0.00000  Uiso   1.00
C292   C     0.20405   0.24248   0.43570   0.00000  Uiso   1.00
C293   C     0.14392   0.22393   0.41405   0.00000  Uiso   1.00
C294   C     0.23989   0.23599   0.37752   0.00000  Uiso   1.00
C295   C     0.24419   0.28210   0.36190   0.00000  Uiso   1.00
C296   C     0.20243   0.28167   0.30650   0.00000  Uiso   1.00
C297   C     0.32856   0.17617   0.46411   0.00000  Uiso   1.00
C298   C     0.40742   0.17197   0.52128   0.00000  Uiso   1.00
C299   C     0.44032   0.12118   0.53877   0.00000  Uiso   1.00
H300   H     0.16446   0.11004   0.33542   0.00000  Uiso   1.00
H301   H     0.07915   0.11615   0.32791   0.00000  Uiso   1.00
H302   H     0.11930   0.15576   0.25413   0.00000  Uiso   1.00
H303   H     0.28250   0.04565   0.41348   0.00000  Uiso   1.00
H304   H     0.00414   0.14276   0.33648   0.00000  Uiso   1.00
H305   H     0.08882   0.22626   0.18091   0.00000  Uiso   1.00
H306   H     0.43296   0.99408   0.51694   0.00000  Uiso   1.00
H307   H     0.31547   0.26277   0.46573   0.00000  Uiso   1.00
H308   H     0.23845   0.27726   0.46537   0.00000  Uiso   1.00
H309   H     0.27859   0.31687   0.39158   0.00000  Uiso   1.00
H310   H     0.44179   0.20676   0.55094   0.00000  Uiso   1.00
H311   H     0.63343   0.77353   0.44804   0.00000  Uiso   1.00
H312   H     0.21811   0.35703   0.29247   0.00000  Uiso   1.00
H313   H     0.56225   0.12485   0.62850   0.00000  Uiso   1.00
O314   O     0.51538   0.71494   0.38966   0.00000  Uiso   1.00
O315   O     0.12648   0.32448   0.18556   0.00000  Uiso   1.00
O316   O     0.57799   0.01986   0.62642   0.00000  Uiso   1.00
N317   N     0.04515   0.17154   0.36280   0.00000  Uiso   1.00
N318   N     0.12431   0.24961   0.21734   0.00000  Uiso   1.00
N319   N     0.44606   0.03255   0.53150   0.00000  Uiso   1.00
N320   N     0.11472   0.24191   0.42283   0.00000  Uiso   1.00
N321   N     0.19388   0.31998   0.27737   0.00000  Uiso   1.00
N322   N     0.51563   0.10291   0.59153   0.00000  Uiso   1.00
C323   C     0.41005   0.87282   0.46246   0.00000  Uiso   1.00
C324   C     0.43671   0.86040   0.51329   0.00000  Uiso   1.00
C325   C     0.50541   0.87739   0.57240   0.00000  Uiso   1.00
C326   C     0.51918   0.86177   0.61213   0.00000  Uiso   1.00
C327   C     0.56867   0.84724   0.69392   0.00000  Uiso   1.00
C328   C     0.39466   0.81799   0.43693   0.00000  Uiso   1.00
C329   C     0.42800   0.79934   0.43183   0.00000  Uiso   1.00
C330   C     0.40636   0.74803   0.40727   0.00000  Uiso   1.00
C331   C     0.39052   0.66768   0.37046   0.00000  Uiso   1.00
C332   C     0.33182   0.90036   0.41348   0.00000  Uiso   1.00
C333   C     0.31232   0.95096   0.38865   0.00000  Uiso   1.00
C334   C     0.23777   0.96900   0.34433   0.00000  Uiso   1.00
C335   C     0.12436   0.01654   0.27112   0.00000  Uiso   1.00
C336   C     0.31233   0.81487   0.42791   0.00000  Uiso   1.00
C337   C     0.38363   0.82891   0.49452   0.00000  Uiso   1.00
C338   C     0.39729   0.81327   0.53417   0.00000  Uiso   1.00
C339   C     0.46601   0.83024   0.59333   0.00000  Uiso   1.00
C340   C     0.34158   0.78651   0.41816   0.00000  Uiso   1.00
C341   C     0.31988   0.73522   0.39360   0.00000  Uiso   1.00
C342   C     0.35319   0.71649   0.38846   0.00000  Uiso   1.00
C343   C     0.27874   0.86888   0.39471   0.00000  Uiso   1.00
C344   C     0.20420   0.88684   0.35042   0.00000  Uiso   1.00
C345   C     0.18459   0.93746   0.32553   0.00000  Uiso   1.00
H346   H     0.45137   0.89733   0.47708   0.00000  Uiso   1.00
H347   H     0.54648   0.90175   0.58691   0.00000  Uiso   1.00
H348   H     0.46907   0.82371   0.44635   0.00000  Uiso   1.00
H349   H     0.35341   0.97531   0.40319   0.00000  Uiso   1.00
H350   H     0.62852   0.89275   0.70041   0.00000  Uiso   1.00
H351   H     0.46529   0.72821   0.40402   0.00000  Uiso   1.00
H352   H     0.22139   0.04789   0.31299   0.00000  Uiso   1.00
H353   H     0.27100   0.79036   0.41329   0.00000  Uiso   1.00
H354   H     0.35621   0.78891   0.51963   0.00000  Uiso   1.00
H355   H     0.27881   0.71087   0.37907   0.00000  Uiso   1.00
H356   H     0.16314   0.86247   0.33591   0.00000  Uiso   1.00
H357   H     0.47410   0.80116   0.64581   0.00000  Uiso   1.00
H358   H     0.31086   0.63662   0.34941   0.00000  Uiso   1.00
H359   H     0.06696   0.95630   0.25839   0.00000  Uiso   1.00
O360   O     0.61063   0.84792   0.74422   0.00000  Uiso   1.00
O361   O     0.39646   0.63206   0.35535   0.00000  Uiso   1.00
O362   O     0.07647   0.05147   0.23593   0.00000  Uiso   1.00
N363   N     0.58048   0.87140   0.67296   0.00000  Uiso   1.00
N364   N     0.42787   0.71757   0.39587   0.00000  Uiso   1.00
N365   N     0.19984   0.01643   0.31075   0.00000  Uiso   1.00
N366   N     0.49738   0.82212   0.64358   0.00000  Uiso   1.00
N367   N     0.34478   0.66828   0.36648   0.00000  Uiso   1.00
N368   N     0.11675   0.96715   0.28137   0.00000  Uiso   1.00
C369   C     0.81660   0.18295   0.76528   0.00000  Uiso   1.00
C370   C     0.82973   0.22529   0.79939   0.00000  Uiso   1.00
C371   C     0.78188   0.26897   0.77398   0.00000  Uiso   1.00
C372   C     0.80398   0.30310   0.81283   0.00000  Uiso   1.00
C373   C     0.81412   0.37025   0.85636   0.00000  Uiso   1.00
C374   C     0.88859   0.18384   0.79298   0.00000  Uiso   1.00
C375   C     0.89023   0.19268   0.76218   0.00000  Uiso   1.00
C376   C     0.96188   0.19191   0.79564   0.00000  Uiso   1.00
C377   C     0.06340   0.19469   0.82922   0.00000  Uiso   1.00
C378   C     0.81668   0.12803   0.78172   0.00000  Uiso   1.00
C379   C     0.75787   0.08993   0.74146   0.00000  Uiso   1.00
C380   C     0.76898   0.04217   0.76544   0.00000  Uiso   1.00
C381   C     0.75884   0.95830   0.78154   0.00000  Uiso   1.00
C382   C     0.94092   0.16588   0.87946   0.00000  Uiso   1.00
C383   C     0.89726   0.21601   0.86141   0.00000  Uiso   1.00
C384   C     0.91943   0.25008   0.90031   0.00000  Uiso   1.00
C385   C     0.87163   0.29380   0.87496   0.00000  Uiso   1.00
C386   C     0.95611   0.17457   0.85500   0.00000  Uiso   1.00
C387   C     0.02778   0.17378   0.88851   0.00000  Uiso   1.00
C388   C     0.02953   0.18262   0.85778   0.00000  Uiso   1.00
C389   C     0.88420   0.11876   0.84374   0.00000  Uiso   1.00
C390   C     0.89541   0.07104   0.86779   0.00000  Uiso   1.00
C391   C     0.83663   0.03288   0.82757   0.00000  Uiso   1.00
H392   H     0.76403   0.19018   0.71699   0.00000  Uiso   1.00
H393   H     0.72963   0.27614   0.72598   0.00000  Uiso   1.00
H394   H     0.83796   0.19985   0.71419   0.00000  Uiso   1.00
H395   H     0.70562   0.09713   0.69347   0.00000  Uiso   1.00
H396   H     0.72130   0.36736   0.76330   0.00000  Uiso   1.00
H397   H     0.94972   0.20649   0.73842   0.00000  Uiso   1.00
H398   H     0.67064   0.98987   0.69473   0.00000  Uiso   1.00
H399   H     0.99350   0.15865   0.92775   0.00000  Uiso   1.00
H400   H     0.97169   0.24289   0.94830   0.00000  Uiso   1.00
H401   H     0.08002   0.16660   0.93650   0.00000  Uiso   1.00
H402   H     0.94768   0.06388   0.91579   0.00000  Uiso   1.00
H403   H     0.91776   0.34038   0.94374   0.00000  Uiso   1.00
H404   H     0.14618   0.17950   0.91887   0.00000  Uiso   1.00
H405   H     0.86710   0.96289   0.87518   0.00000  Uiso   1.00
O406   O     0.80106   0.40986   0.86324   0.00000  Uiso   1.00
O407   O     0.10073   0.19879   0.83060   0.00000  Uiso   1.00
O408   O     0.73459   0.91460   0.77328   0.00000  Uiso   1.00
N409   N     0.77052   0.34944   0.80294   0.00000  Uiso   1.00
N410   N     0.98408   0.19905   0.77969   0.00000  Uiso   1.00
N411   N     0.72317   0.99652   0.73884   0.00000  Uiso   1.00
N412   N     0.87623   0.33492   0.90004   0.00000  Uiso   1.00
N413   N     0.08979   0.18453   0.87678   0.00000  Uiso   1.00
N414   N     0.82889   0.98200   0.83594   0.00000  Uiso   1.00
C415   C     0.69905   0.64503   0.36528   0.00000  Uiso   1.00
C416   C     0.67365   0.66953   0.37927   0.00000  Uiso   1.00
C417   C     0.61353   0.65093   0.35759   0.00000  Uiso   1.00
C418   C     0.59940   0.67891   0.37563   0.00000  Uiso   1.00
C419   C     0.55316   0.71013   0.39151   0.00000  Uiso   1.00
C420   C     0.69545   0.69105   0.33918   0.00000  Uiso   1.00
C421   C     0.65367   0.69055   0.28379   0.00000  Uiso   1.00
C422   C     0.65791   0.73664   0.26809   0.00000  Uiso   1.00
C423   C     0.64557   0.80125   0.22173   0.00000  Uiso   1.00
C424   C     0.78412   0.63122   0.42576   0.00000  Uiso   1.00
C425   C     0.81690   0.58042   0.44317   0.00000  Uiso   1.00
C426   C     0.89580   0.57615   0.50036   0.00000  Uiso   1.00
C427   C     0.02113   0.54788   0.58843   0.00000  Uiso   1.00
C428   C     0.78087   0.72778   0.43588   0.00000  Uiso   1.00
C429   C     0.71809   0.71447   0.41762   0.00000  Uiso   1.00
C430   C     0.70405   0.74248   0.43570   0.00000  Uiso   1.00
C431   C     0.64392   0.72393   0.41405   0.00000  Uiso   1.00
C432   C     0.73989   0.73599   0.37752   0.00000  Uiso   1.00
C433   C     0.74419   0.78210   0.36190   0.00000  Uiso   1.00
C434   C     0.70243   0.78167   0.30650   0.00000  Uiso   1.00
C435   C     0.82856   0.67617   0.46411   0.00000  Uiso   1.00
C436   C     0.90742   0.67197   0.52128   0.00000  Uiso   1.00
C437   C     0.94032   0.62118   0.53877   0.00000  Uiso   1.00
H438   H     0.66446   0.61004   0.33542   0.00000  Uiso   1.00
H439   H     0.57915   0.61615   0.32791   0.00000  Uiso   1.00
H440   H     0.61930   0.65576   0.25413   0.00000  Uiso   1.00
H441   H     0.78250   0.54565   0.41348   0.00000  Uiso   1.00
H442   H     0.50414   0.64276   0.33648   0.00000  Uiso   1.00
H443   H     0.58882   0.72626   0.18091   0.00000  Uiso   1.00
H444   H     0.93296   0.49408   0.51694   0.00000  Uiso   1.00
H445   H     0.81547   0.76277   0.46573   0.00000  Uiso   1.00
H446   H     0.73845   0.77726   0.46537   0.00000  Uiso   1.00
H447   H     0.77859   0.81687   0.39158   0.00000  Uiso   1.00
H448   H     0.94179   0.70676   0.55094   0.00000  Uiso   1.00
H449   H     0.13343   0.27353   0.44804   0.00000  Uiso   1.00
H450   H     0.71811   0.85703   0.29247   0.00000  Uiso   1.00
H451   H     0.06225   0.62485   0.62850   0.00000  Uiso   1.00
O452   O     0.01538   0.21494   0.38966   0.00000  Uiso   1.00
O453   O     0.62648   0.82448   0.18556   0.00000  Uiso   1.00
O454   O     0.07799   0.51986   0.62642   0.00000  Uiso   1.00
N455   N     0.54515   0.67154   0.36280   0.00000  Uiso   1.00
N456   N     0.62431   0.74961   0.21734   0.00000  Uiso   1.00
N457   N     0.94606   0.53255   0.53150   0.00000  Uiso   1.00
N458   N     0.61472   0.74191   0.42283   0.00000  Uiso   1.00
N459   N     0.69388   0.81998   0.27737   0.00000  Uiso   1.00
N460   N     0.01563   0.60291   0.59153   0.00000  Uiso   1.00
C461   C     0.91005   0.37282   0.46246   0.00000  Uiso   1.00
C462   C     0.93671   0.36040   0.51329   0.00000  Uiso   1.00
C463   C     0.00541   0.37739   0.57240   0.00000  Uiso   1.00
C464   C     0.01918   0.36177   0.61213   0.00000  Uiso   1.00
C465   C     0.06867   0.34724   0.69392   0.00000  Uiso   1.00
C466   C     0.89466   0.31799   0.43693   0.00000  Uiso   1.00
C467   C     0.92800   0.29934   0.43183   0.00000  Uiso   1.00
C468   C     0.90636   0.24803   0.40727   0.00000  Uiso   1.00
C469   C     0.89052   0.16768   0.37046   0.00000  Uiso   1.00
C470   C     0.83182   0.40036   0.41348   0.00000  Uiso   1.00
C471   C     0.81232   0.45096   0.38865   0.00000  Uiso   1.00
C472   C     0.73777   0.46900   0.34433   0.00000  Uiso   1.00
C473   C     0.62436   0.51654   0.27112   0.00000  Uiso   1.00
C474   C     0.81233   0.31487   0.42791   0.00000  Uiso   1.00
C475   C     0.88363   0.32891   0.49452   0.00000  Uiso   1.00
C476   C     0.89729   0.31327   0.53417   0.00000  Uiso   1.00
C477   C     0.96601   0.33024   0.59333   0.00000  Uiso   1.00
C478   C     0.84158   0.28651   0.41816   0.00000  Uiso   1.00
C479   C     0.81988   0.23522   0.39360   0.00000  Uiso   1.00
C480   C     0.85319   0.21649   0.38846   0.00000  Uiso   1.00
C481   C     0.77874   0.36888   0.39471   0.00000  Uiso   1.00
C482   C     0.70420   0.38684   0.35042   0.00000  Uiso   1.00
C483   C     0.68459   0.43746   0.32553   0.00000  Uiso   1.00
H484   H     0.95137   0.39733   0.47708   0.00000  Uiso   1.00
H485   H     0.04648   0.40175   0.58691   0.00000  Uiso   1.00
H486   H     0.96907   0.32371   0.44635   0.00000  Uiso   1.00
H487   H     0.85341   0.47531   0.40319   0.00000  Uiso   1.00
H488   H     0.12852   0.39275   0.70041   0.00000  Uiso   1.00
H489   H     0.96529   0.22821   0.40402   0.00000  Uiso   1.00
H490   H     0.72139   0.54789   0.31299   0.00000  Uiso   1.00
H491   H     0.77100   0.29036   0.41329   0.00000  Uiso   1.00
H492   H     0.85621   0.28891   0.51963   0.00000  Uiso   1.00
H493   H     0.77881   0.21087   0.37907   0.00000  Uiso   1.00
H494   H     0.66314   0.36247   0.33591   0.00000  Uiso   1.00
H495   H     0.97410   0.30116   0.64581   0.00000  Uiso   1.00
H496   H     0.81086   0.13662   0.34941   0.00000  Uiso   1.00
H497   H     0.56696   0.45630   0.25839   0.00000  Uiso   1.00
O498   O     0.11063   0.34792   0.74422   0.00000  Uiso   1.00
O499   O     0.89646   0.13206   0.35535   0.00000  Uiso   1.00
O500   O     0.57647   0.55147   0.23593   0.00000  Uiso   1.00
N501   N     0.08048   0.37140   0.67296   0.00000  Uiso   1.00
N502   N     0.92787   0.21757   0.39587   0.00000  Uiso   1.00
N503   N     0.69984   0.51643   0.31075   0.00000  Uiso   1.00
N504   N     0.99738   0.32212   0.64358   0.00000  Uiso   1.00
N505   N     0.84478   0.16828   0.36648   0.00000  Uiso   1.00
N506   N     0.61675   0.46715   0.28137   0.00000  Uiso   1.00
C507   C     0.31660   0.68295   0.76528   0.00000  Uiso   1.00
C508   C     0.32973   0.72529   0.79939   0.00000  Uiso   1.00
C509   C     0.28188   0.76897   0.77398   0.00000  Uiso   1.00
C510   C     0.30398   0.80310   0.81283   0.00000  Uiso   1.00
C511   C     0.31412   0.87025   0.85636   0.00000  Uiso   1.00
C512   C     0.38859   0.68384   0.79298   0.00000  Uiso   1.00
C513   C     0.39023   0.69268   0.76218   0.00000  Uiso   1.00
C514   C     0.46188   0.69191   0.79564   0.00000  Uiso   1.00
C515   C     0.56340   0.69469   0.82922   0.00000  Uiso   1.00
C516   C     0.31668   0.62803   0.78172   0.00000  Uiso   1.00
C517   C     0.25787   0.58993   0.74146   0.00000  Uiso   1.00
C518   C     0.26898   0.54217   0.76544   0.00000  Uiso   1.00
C519   C     0.25884   0.45830   0.78154   0.00000  Uiso   1.00
C520   C     0.44092   0.66588   0.87946   0.00000  Uiso   1.00
C521   C     0.39726   0.71601   0.86141   0.00000  Uiso   1.00
C522   C     0.41943   0.75008   0.90031   0.00000  Uiso   1.00
C523   C     0.37163   0.79380   0.87496   0.00000  Uiso   1.00
C524   C     0.45611   0.67457   0.85500   0.00000  Uiso   1.00
C525   C     0.52778   0.67378   0.88851   0.00000  Uiso   1.00
C526   C     0.52953   0.68262   0.85778   0.00000  Uiso   1.00
C527   C     0.38420   0.61876   0.84374   0.00000  Uiso   1.00
C528   C     0.39541   0.57104   0.86779   0.00000  Uiso   1.00
C529   C     0.33663   0.53288   0.82757   0.00000  Uiso   1.00
H530   H     0.26403   0.69018   0.71699   0.00000  Uiso   1.00
H531   H     0.22963   0.77614   0.72598   0.00000  Uiso   1.00
H532   H     0.33796   0.69985   0.71419   0.00000  Uiso   1.00
H533   H     0.20562   0.59713   0.69347   0.00000  Uiso   1.00
H534   H     0.22130   0.86736   0.76330   0.00000  Uiso   1.00
H535   H     0.44972   0.70649   0.73842   0.00000  Uiso   1.00
H536   H     0.17064   0.48987   0.69473   0.00000  Uiso   1.00
H537   H     0.49350   0.65865   0.92775   0.00000  Uiso   1.00
H538   H     0.47169   0.74289   0.94830   0.00000  Uiso   1.00
H539   H     0.58002   0.66660   0.93650   0.00000  Uiso   1.00
H540   H     0.44768   0.56388   0.91579   0.00000  Uiso   1.00
H541   H     0.41776   0.84038   0.94374   0.00000  Uiso   1.00
H542   H     0.64618   0.67950   0.91887   0.00000  Uiso   1.00
H543   H     0.36710   0.46289   0.87518   0.00000  Uiso   1.00
O544   O     0.30106   0.90986   0.86324   0.00000  Uiso   1.00
O545   O     0.60073   0.69879   0.83060   0.00000  Uiso   1.00
O546   O     0.23459   0.41460   0.77328   0.00000  Uiso   1.00
N547   N     0.27052   0.84944   0.80294   0.00000  Uiso   1.00
N548   N     0.48408   0.69905   0.77969   0.00000  Uiso   1.00
N549   N     0.22317   0.49652   0.73884   0.00000  Uiso   1.00
N550   N     0.37623   0.83492   0.90004   0.00000  Uiso   1.00
N551   N     0.58979   0.68453   0.87678   0.00000  Uiso   1.00
N552   N     0.32889   0.48200   0.83594   0.00000  Uiso   1.00
C553   C     0.19905   0.85497   0.86528   0.00000  Uiso   1.00
C554   C     0.17365   0.83047   0.87927   0.00000  Uiso   1.00
C555   C     0.11353   0.84907   0.85759   0.00000  Uiso   1.00
C556   C     0.09940   0.82109   0.87563   0.00000  Uiso   1.00
C557   C     0.05316   0.78987   0.89151   0.00000  Uiso   1.00
C558   C     0.19545   0.80895   0.83918   0.00000  Uiso   1.00
C559   C     0.15367   0.80945   0.78379   0.00000  Uiso   1.00
C560   C     0.15791   0.76336   0.76809   0.00000  Uiso   1.00
C561   C     0.14557   0.69875   0.72173   0.00000  Uiso   1.00
C562   C     0.28412   0.86878   0.92576   0.00000  Uiso   1.00
C563   C     0.31690   0.91958   0.94317   0.00000  Uiso   1.00
C564   C     0.39580   0.92385   0.00036   0.00000  Uiso   1.00
C565   C     0.52113   0.95212   0.08843   0.00000  Uiso   1.00
C566   C     0.28087   0.77222   0.93588   0.00000  Uiso   1.00
C567   C     0.21809   0.78553   0.91762   0.00000  Uiso   1.00
C568   C     0.20405   0.75752   0.93570   0.00000  Uiso   1.00
C569   C     0.14392   0.77607   0.91405   0.00000  Uiso   1.00
C570   C     0.23989   0.76401   0.87752   0.00000  Uiso   1.00
C571   C     0.24419   0.71790   0.86190   0.00000  Uiso   1.00
C572   C     0.20243   0.71833   0.80650   0.00000  Uiso   1.00
C573   C     0.32856   0.82383   0.96411   0.00000  Uiso   1.00
C574   C     0.40742   0.82803   0.02128   0.00000  Uiso   1.00
C575   C     0.44032   0.87882   0.03877   0.00000  Uiso   1.00
H576   H     0.16446   0.88996   0.83542   0.00000  Uiso   1.00
H577   H     0.07915   0.88385   0.82791   0.00000  Uiso   1.00
H578   H     0.11930   0.84424   0.75413   0.00000  Uiso   1.00
H579   H     0.28250   0.95435   0.91348   0.00000  Uiso   1.00
H580   H     0.00414   0.85724   0.83648   0.00000  Uiso   1.00
H581   H     0.08882   0.77374   0.68091   0.00000  Uiso   1.00
H582   H     0.43296   0.00592   0.01694   0.00000  Uiso   1.00
H583   H     0.31547   0.73723   0.96573   0.00000  Uiso   1.00
H584   H     0.23845   0.72274   0.96537   0.00000  Uiso   1.00
H585   H     0.27859   0.68313   0.89158   0.00000  Uiso   1.00
H586   H     0.44179   0.79324   0.05094   0.00000  Uiso   1.00
H587   H     0.63343   0.22647   0.94804   0.00000  Uiso   1.00
H588   H     0.21811   0.64297   0.79247   0.00000  Uiso   1.00
H589   H     0.56225   0.87515   0.12850   0.00000  Uiso   1.00
O590   O     0.51538   0.28506   0.88966   0.00000  Uiso   1.00
O591   O     0.12648   0.67552   0.68556   0.00000  Uiso   1.00
O592   O     0.57799   0.98014   0.12642   0.00000  Uiso   1.00
N593   N     0.04515   0.82846   0.86280   0.00000  Uiso   1.00
N594   N     0.12431   0.75039   0.71734   0.00000  Uiso   1.00
N595   N     0.44606   0.96745   0.03150   0.00000  Uiso   1.00
N596   N     0.11472   0.75809   0.92283   0.00000  Uiso   1.00
N597   N     0.19388   0.68002   0.77737   0.00000  Uiso   1.00
N598   N     0.51563   0.89709   0.09153   0.00000  Uiso   1.00
C599   C     0.41005   0.12718   0.96246   0.00000  Uiso   1.00
C600   C     0.43671   0.13960   0.01329   0.00000  Uiso   1.00
C601   C     0.50541   0.12261   0.07240   0.00000  Uiso   1.00
C602   C     0.51918   0.13823   0.11213   0.00000  Uiso   1.00
C603   C     0.56867   0.15276   0.19392   0.00000  Uiso   1.00
C604   C     0.39466   0.18201   0.93693   0.00000  Uiso   1.00
C605   C     0.42800   0.20066   0.93183   0.00000  Uiso   1.00
C606   C     0.40636   0.25197   0.90727   0.00000  Uiso   1.00
C607   C     0.39052   0.33232   0.87046   0.00000  Uiso   1.00
C608   C     0.33182   0.09964   0.91348   0.00000  Uiso   1.00
C609   C     0.31232   0.04904   0.88865   0.00000  Uiso   1.00
C610   C     0.23777   0.03100   0.84433   0.00000  Uiso   1.00
C611   C     0.12436   0.98346   0.77112   0.00000  Uiso   1.00
C612   C     0.31233   0.18513   0.92791   0.00000  Uiso   1.00
C613   C     0.38363   0.17109   0.99452   0.00000  Uiso   1.00
C614   C     0.39729   0.18673   0.03417   0.00000  Uiso   1.00
C615   C     0.46601   0.16976   0.09333   0.00000  Uiso   1.00
C616   C     0.34158   0.21349   0.91816   0.00000  Uiso   1.00
C617   C     0.31988   0.26478   0.89360   0.00000  Uiso   1.00
C618   C     0.35319   0.28351   0.88846   0.00000  Uiso   1.00
C619   C     0.27874   0.13112   0.89471   0.00000  Uiso   1.00
C620   C     0.20420   0.11316   0.85042   0.00000  Uiso   1.00
C621   C     0.18459   0.06254   0.82553   0.00000  Uiso   1.00
H622   H     0.45137   0.10267   0.97708   0.00000  Uiso   1.00
H623   H     0.54648   0.09825   0.08691   0.00000  Uiso   1.00
H624   H     0.46907   0.17629   0.94635   0.00000  Uiso   1.00
H625   H     0.35341   0.02469   0.90319   0.00000  Uiso   1.00
H626   H     0.62852   0.10725   0.20041   0.00000  Uiso   1.00
H627   H     0.46529   0.27179   0.90402   0.00000  Uiso   1.00
H628   H     0.22139   0.95211   0.81299   0.00000  Uiso   1.00
H629   H     0.27100   0.20964   0.91329   0.00000  Uiso   1.00
H630   H     0.35621   0.21109   0.01963   0.00000  Uiso   1.00
H631   H     0.27881   0.28913   0.87907   0.00000  Uiso   1.00
H632   H     0.16314   0.13753   0.83591   0.00000  Uiso   1.00
H633   H     0.47410   0.19884   0.14581   0.00000  Uiso   1.00
H634   H     0.31086   0.36338   0.84941   0.00000  Uiso   1.00
H635   H     0.06696   0.04370   0.75839   0.00000  Uiso   1.00
O636   O     0.61063   0.15208   0.24422   0.00000  Uiso   1.00
O637   O     0.39646   0.36794   0.85535   0.00000  Uiso   1.00
O638   O     0.07647   0.94853   0.73593   0.00000  Uiso   1.00
N639   N     0.58048   0.12860   0.17296   0.00000  Uiso   1.00
N640   N     0.42787   0.28243   0.89587   0.00000  Uiso   1.00
N641   N     0.19984   0.98357   0.81075   0.00000  Uiso   1.00
N642   N     0.49738   0.17788   0.14358   0.00000  Uiso   1.00
N643   N     0.34478   0.33172   0.86648   0.00000  Uiso   1.00
N644   N     0.11675   0.03285   0.78137   0.00000  Uiso   1.00
C645   C     0.81660   0.81705   0.26528   0.00000  Uiso   1.00
C646   C     0.82973   0.77471   0.29939   0.00000  Uiso   1.00
C647   C     0.78188   0.73103   0.27398   0.00000  Uiso   1.00
C648   C     0.80398   0.69690   0.31283   0.00000  Uiso   1.00
C649   C     0.81412   0.62975   0.35636   0.00000  Uiso   1.00
C650   C     0.88859   0.81616   0.29298   0.00000  Uiso   1.00
C651   C     0.89023   0.80732   0.26218   0.00000  Uiso   1.00
C652   C     0.96188   0.80809   0.29564   0.00000  Uiso   1.00
C653   C     0.06340   0.80531   0.32922   0.00000  Uiso   1.00
C654   C     0.81668   0.87197   0.28172   0.00000  Uiso   1.00
C655   C     0.75787   0.91007   0.24146   0.00000  Uiso   1.00
C656   C     0.76898   0.95783   0.26544   0.00000  Uiso   1.00
C657   C     0.75884   0.04170   0.28154   0.00000  Uiso   1.00
C658   C     0.94092   0.83412   0.37946   0.00000  Uiso   1.00
C659   C     0.89726   0.78399   0.36141   0.00000  Uiso   1.00
C660   C     0.91943   0.74992   0.40031   0.00000  Uiso   1.00
C661   C     0.87163   0.70620   0.37496   0.00000  Uiso   1.00
C662   C     0.95611   0.82543   0.35500   0.00000  Uiso   1.00
C663   C     0.02778   0.82622   0.38851   0.00000  Uiso   1.00
C664   C     0.02953   0.81738   0.35778   0.00000  Uiso   1.00
C665   C     0.88420   0.88124   0.34374   0.00000  Uiso   1.00
C666   C     0.89541   0.92896   0.36779   0.00000  Uiso   1.00
C667   C     0.83663   0.96712   0.32757   0.00000  Uiso   1.00
H668   H     0.76403   0.80982   0.21699   0.00000  Uiso   1.00
H669   H     0.72963   0.72386   0.22598   0.00000  Uiso   1.00
H670   H     0.83796   0.80015   0.21419   0.00000  Uiso   1.00
H671   H     0.70562   0.90287   0.19347   0.00000  Uiso   1.00
H672   H     0.72130   0.63264   0.26330   0.00000  Uiso   1.00
H673   H     0.94972   0.79351   0.23842   0.00000  Uiso   1.00
H674   H     0.67064   0.01013   0.19473   0.00000  Uiso   1.00
H675   H     0.99350   0.84135   0.42775   0.00000  Uiso   1.00
H676   H     0.97169   0.75711   0.44830   0.00000  Uiso   1.00
H677   H     0.08002   0.83340   0.43650   0.00000  Uiso   1.00
H678   H     0.94768   0.93612   0.41579   0.00000  Uiso   1.00
H679   H     0.91776   0.65962   0.44374   0.00000  Uiso   1.00
H680   H     0.14618   0.82050   0.41887   0.00000  Uiso   1.00
H681   H     0.86710   0.03711   0.37518   0.00000  Uiso   1.00
O682   O     0.80106   0.59014   0.36324   0.00000  Uiso   1.00
O683   O     0.10073   0.80121   0.33060   0.00000  Uiso   1.00
O684   O     0.73459   0.08540   0.27328   0.00000  Uiso   1.00
N685   N     0.77052   0.65056   0.30294   0.00000  Uiso   1.00
N686   N     0.98408   0.80095   0.27969   0.00000  Uiso   1.00
N687   N     0.72317   0.00348   0.23884   0.00000  Uiso   1.00
N688   N     0.87623   0.66508   0.40004   0.00000  Uiso   1.00
N689   N     0.08979   0.81547   0.37678   0.00000  Uiso   1.00
N690   N     0.82889   0.01800   0.33594   0.00000  Uiso   1.00
C691   C     0.69905   0.35497   0.86528   0.00000  Uiso   1.00
C692   C     0.67365   0.33047   0.87927   0.00000  Uiso   1.00
C693   C     0.61353   0.34907   0.85759   0.00000  Uiso   1.00
C694   C     0.59940   0.32109   0.87563   0.00000  Uiso   1.00
C695   C     0.55316   0.28987   0.89151   0.00000  Uiso   1.00
C696   C     0.69545   0.30895   0.83918   0.00000  Uiso   1.00
C697   C     0.65367   0.30945   0.78379   0.00000  Uiso   1.00
C698   C     0.65791   0.26336   0.76809   0.00000  Uiso   1.00
C699   C     0.64557   0.19875   0.72173   0.00000  Uiso   1.00
C700   C     0.78412   0.36878   0.92576   0.00000  Uiso   1.00
C701   C     0.81690   0.41958   0.94317   0.00000  Uiso   1.00
C702   C     0.89580   0.42385   0.00036   0.00000  Uiso   1.00
C703   C     0.02113   0.45212   0.08843   0.00000  Uiso   1.00
C704   C     0.78087   0.27222   0.93588   0.00000  Uiso   1.00
C705   C     0.71809   0.28553   0.91762   0.00000  Uiso   1.00
C706   C     0.70405   0.25752   0.93570   0.00000  Uiso   1.00
C707   C     0.64392   0.27607   0.91405   0.00000  Uiso   1.00
C708   C     0.73989   0.26401   0.87752   0.00000  Uiso   1.00
C709   C     0.74419   0.21790   0.86190   0.00000  Uiso   1.00
C710   C     0.70243   0.21833   0.80650   0.00000  Uiso   1.00
C711   C     0.82856   0.32383   0.96411   0.00000  Uiso   1.00
C712   C     0.90742   0.32803   0.02128   0.00000  Uiso   1.00
C713   C     0.94032   0.37882   0.03877   0.00000  Uiso   1.00
H714   H     0.66446   0.38996   0.83542   0.00000  Uiso   1.00
H715   H     0.57915   0.38385   0.82791   0.00000  Uiso   1.00
H716   H     0.61930   0.34424   0.75413   0.00000  Uiso   1.00
H717   H     0.78250   0.45435   0.91348   0.00000  Uiso   1.00
H718   H     0.50414   0.35724   0.83648   0.00000  Uiso   1.00
H719   H     0.58882   0.27374   0.68091   0.00000  Uiso   1.00
H720   H     0.93296   0.50592   0.01694   0.00000  Uiso   1.00
H721   H     0.81547   0.23723   0.96573   0.00000  Uiso   1.00
H722   H     0.73845   0.22274   0.96537   0.00000  Uiso   1.00
H723   H     0.77859   0.18313   0.89158   0.00000  Uiso   1.00
H724   H     0.94179   0.29324   0.05094   0.00000  Uiso   1.00
H725   H     0.13343   0.72647   0.94804   0.00000  Uiso   1.00
H726   H     0.71811   0.14297   0.79247   0.00000  Uiso   1.00
H727   H     0.06225   0.37515   0.12850   0.00000  Uiso   1.00
O728   O     0.01538   0.78506   0.88966   0.00000  Uiso   1.00
O729   O     0.62648   0.17552   0.68556   0.00000  Uiso   1.00
O730   O     0.07799   0.48014   0.12642   0.00000  Uiso   1.00
N731   N     0.54515   0.32846   0.86280   0.00000  Uiso   1.00
N732   N     0.62431   0.25039   0.71734   0.00000  Uiso   1.00
N733   N     0.94606   0.46745   0.03150   0.00000  Uiso   1.00
N734   N     0.61472   0.25809   0.92283   0.00000  Uiso   1.00
N735   N     0.69388   0.18002   0.77737   0.00000  Uiso   1.00
N736   N     0.01563   0.39709   0.09153   0.00000  Uiso   1.00
C737   C     0.91005   0.62718   0.96246   0.00000  Uiso   1.00
C738   C     0.93671   0.63960   0.01329   0.00000  Uiso   1.00
C739   C     0.00541   0.62261   0.07240   0.00000  Uiso   1.00
C740   C     0.01918   0.63823   0.11213   0.00000  Uiso   1.00
C741   C     0.06867   0.65276   0.19392   0.00000  Uiso   1.00
C742   C     0.89466   0.68201   0.93693   0.00000  Uiso   1.00
C743   C     0.92800   0.70066   0.93183   0.00000  Uiso   1.00
C744   C     0.90636   0.75197   0.90727   0.00000  Uiso   1.00
C745   C     0.89052   0.83232   0.87046   0.00000  Uiso   1.00
C746   C     0.83182   0.59964   0.91348   0.00000  Uiso   1.00
C747   C     0.81232   0.54904   0.88865   0.00000  Uiso   1.00
C748   C     0.73777   0.53100   0.84433   0.00000  Uiso   1.00
C749   C     0.62436   0.48346   0.77112   0.00000  Uiso   1.00
C750   C     0.81233   0.68513   0.92791   0.00000  Uiso   1.00
C751   C     0.88363   0.67109   0.99452   0.00000  Uiso   1.00
C752   C     0.89729   0.68673   0.03417   0.00000  Uiso   1.00
C753   C     0.96601   0.66976   0.09333   0.00000  Uiso   1.00
C754   C     0.84158   0.71349   0.91816   0.00000  Uiso   1.00
C755   C     0.81988   0.76478   0.89360   0.00000  Uiso   1.00
C756   C     0.85319   0.78351   0.88846   0.00000  Uiso   1.00
C757   C     0.77874   0.63112   0.89471   0.00000  Uiso   1.00
C758   C     0.70420   0.61316   0.85042   0.00000  Uiso   1.00
C759   C     0.68459   0.56254   0.82553   0.00000  Uiso   1.00
H760   H     0.95137   0.60267   0.97708   0.00000  Uiso   1.00
H761   H     0.04648   0.59825   0.08691   0.00000  Uiso   1.00
H762   H     0.96907   0.67629   0.94635   0.00000  Uiso   1.00
H763   H     0.85341   0.52469   0.90319   0.00000  Uiso   1.00
H764   H     0.12852   0.60725   0.20041   0.00000  Uiso   1.00
H765   H     0.96529   0.77179   0.90402   0.00000  Uiso   1.00
H766   H     0.72139   0.45211   0.81299   0.00000  Uiso   1.00
H767   H     0.77100   0.70964   0.91329   0.00000  Uiso   1.00
H768   H     0.85621   0.71109   0.01963   0.00000  Uiso   1.00
H769   H     0.77881   0.78913   0.87907   0.00000  Uiso   1.00
H770   H     0.66314   0.63753   0.83591   0.00000  Uiso   1.00
H771   H     0.97410   0.69884   0.14581   0.00000  Uiso   1.00
H772   H     0.81086   0.86338   0.84941   0.00000  Uiso   1.00
H773   H     0.56696   0.54370   0.75839   0.00000  Uiso   1.00
O774   O     0.11063   0.65208   0.24422   0.00000  Uiso   1.00
O775   O     0.89646   0.86794   0.85535   0.00000  Uiso   1.00
O776   O     0.57647   0.44853   0.73593   0.00000  Uiso   1.00
N777   N     0.08048   0.62860   0.17296   0.00000  Uiso   1.00
N778   N     0.92787   0.78243   0.89587   0.00000  Uiso   1.00
N779   N     0.69984   0.48357   0.81075   0.00000  Uiso   1.00
N780   N     0.99738   0.67788   0.14358   0.00000  Uiso   1.00
N781   N     0.84478   0.83172   0.86648   0.00000  Uiso   1.00
N782   N     0.61675   0.53285   0.78137   0.00000  Uiso   1.00
C783   C     0.31660   0.31705   0.26528   0.00000  Uiso   1.00
C784   C     0.32973   0.27471   0.29939   0.00000  Uiso   1.00
C785   C     0.28188   0.23103   0.27398   0.00000  Uiso   1.00
C786   C     0.30398   0.19690   0.31283   0.00000  Uiso   1.00
C787   C     0.31412   0.12975   0.35636   0.00000  Uiso   1.00
C788   C     0.38859   0.31616   0.29298   0.00000  Uiso   1.00
C789   C     0.39023   0.30732   0.26218   0.00000  Uiso   1.00
C790   C     0.46188   0.30809   0.29564   0.00000  Uiso   1.00
C791   C     0.56340   0.30531   0.32922   0.00000  Uiso   1.00
C792   C     0.31668   0.37197   0.28172   0.00000  Uiso   1.00
C793   C     0.25787   0.41007   0.24146   0.00000  Uiso   1.00
C794   C     0.26898   0.45783   0.26544   0.00000  Uiso   1.00
C795   C     0.25884   0.54170   0.28154   0.00000  Uiso   1.00
C796   C     0.44092   0.33412   0.37946   0.00000  Uiso   1.00
C797   C     0.39726   0.28399   0.36141   0.00000  Uiso   1.00
C798   C     0.41943   0.24992   0.40031   0.00000  Uiso   1.00
C799   C     0.37163   0.20620   0.37496   0.00000  Uiso   1.00
C800   C     0.45611   0.32543   0.35500   0.00000  Uiso   1.00
C801   C     0.52778   0.32622   0.38851   0.00000  Uiso   1.00
C802   C     0.52953   0.31738   0.35778   0.00000  Uiso   1.00
C803   C     0.38420   0.38124   0.34374   0.00000  Uiso   1.00
C804   C     0.39541   0.42896   0.36779   0.00000  Uiso   1.00
C805   C     0.33663   0.46712   0.32757   0.00000  Uiso   1.00
H806   H     0.26403   0.30982   0.21699   0.00000  Uiso   1.00
H807   H     0.22963   0.22386   0.22598   0.00000  Uiso   1.00
H808   H     0.33796   0.30015   0.21419   0.00000  Uiso   1.00
H809   H     0.20562   0.40287   0.19347   0.00000  Uiso   1.00
H810   H     0.22130   0.13264   0.26330   0.00000  Uiso   1.00
H811   H     0.44972   0.29351   0.23842   0.00000  Uiso   1.00
H812   H     0.17064   0.51013   0.19473   0.00000  Uiso   1.00
H813   H     0.49350   0.34135   0.42775   0.00000  Uiso   1.00
H814   H     0.47169   0.25711   0.44830   0.00000  Uiso   1.00
H815   H     0.58002   0.33340   0.43650   0.00000  Uiso   1.00
H816   H     0.44768   0.43612   0.41579   0.00000  Uiso   1.00
H817   H     0.41776   0.15962   0.44374   0.00000  Uiso   1.00
H818   H     0.64618   0.32050   0.41887   0.00000  Uiso   1.00
H819   H     0.36710   0.53711   0.37518   0.00000  Uiso   1.00
O820   O     0.30106   0.09014   0.36324   0.00000  Uiso   1.00
O821   O     0.60073   0.30121   0.33060   0.00000  Uiso   1.00
O822   O     0.23459   0.58540   0.27328   0.00000  Uiso   1.00
N823   N     0.27052   0.15056   0.30294   0.00000  Uiso   1.00
N824   N     0.48408   0.30095   0.27969   0.00000  Uiso   1.00
N825   N     0.22317   0.50348   0.23884   0.00000  Uiso   1.00
N826   N     0.37623   0.16508   0.40004   0.00000  Uiso   1.00
N827   N     0.58979   0.31547   0.37678   0.00000  Uiso   1.00
N828   N     0.32889   0.51800   0.33594   0.00000  Uiso   1.00
C829   C     0.80095   0.85497   0.63472   0.00000  Uiso   1.00
C830   C     0.82635   0.83047   0.62073   0.00000  Uiso   1.00
C831   C     0.88647   0.84907   0.64241   0.00000  Uiso   1.00
C832   C     0.90060   0.82109   0.62437   0.00000  Uiso   1.00
C833   C     0.94684   0.78987   0.60849   0.00000  Uiso   1.00
C834   C     0.80455   0.80895   0.66082   0.00000  Uiso   1.00
C835   C     0.84633   0.80945   0.71621   0.00000  Uiso   1.00
C836   C     0.84209   0.76336   0.73191   0.00000  Uiso   1.00
C837   C     0.85443   0.69875   0.77827   0.00000  Uiso   1.00
C838   C     0.71588   0.86878   0.57424   0.00000  Uiso   1.00
C839   C     0.68310   0.91958   0.55683   0.00000  Uiso   1.00
C840   C     0.60420   0.92385   0.49964   0.00000  Uiso   1.00
C841   C     0.47887   0.95212   0.41157   0.00000  Uiso   1.00
C842   C     0.71913   0.77222   0.56412   0.00000  Uiso   1.00
C843   C     0.78191   0.78553   0.58238   0.00000  Uiso   1.00
C844   C     0.79595   0.75752   0.56430   0.00000  Uiso   1.00
C845   C     0.85608   0.77607   0.58595   0.00000  Uiso   1.00
C846   C     0.76011   0.76401   0.62248   0.00000  Uiso   1.00
C847   C     0.75581   0.71790   0.63810   0.00000  Uiso   1.00
C848   C     0.79757   0.71833   0.69350   0.00000  Uiso   1.00
C849   C     0.67144   0.82383   0.53589   0.00000  Uiso   1.00
C850   C     0.59258   0.82803   0.47872   0.00000  Uiso   1.00
C851   C     0.55968   0.87882   0.46123   0.00000  Uiso   1.00
H852   H     0.83554   0.88996   0.66458   0.00000  Uiso   1.00
H853   H     0.92085   0.88385   0.67209   0.00000  Uiso   1.00
H854   H     0.88070   0.84424   0.74587   0.00000  Uiso   1.00
H855   H     0.71750   0.95435   0.58652   0.00000  Uiso   1.00
H856   H     0.99586   0.85724   0.66352   0.00000  Uiso   1.00
H857   H     0.91118   0.77374   0.81909   0.00000  Uiso   1.00
H858   H     0.56704   0.00592   0.48306   0.00000  Uiso   1.00
H859   H     0.68453   0.73723   0.53427   0.00000  Uiso   1.00
H860   H     0.76155   0.72274   0.53463   0.00000  Uiso   1.00
H861   H     0.72141   0.68313   0.60842   0.00000  Uiso   1.00
H862   H     0.55821   0.79324   0.44906   0.00000  Uiso   1.00
H863   H     0.36657   0.22647   0.55196   0.00000  Uiso   1.00
H864   H     0.78189   0.64297   0.70753   0.00000  Uiso   1.00
H865   H     0.43775   0.87515   0.37150   0.00000  Uiso   1.00
O866   O     0.48462   0.28506   0.61034   0.00000  Uiso   1.00
O867   O     0.87352   0.67552   0.81444   0.00000  Uiso   1.00
O868   O     0.42201   0.98014   0.37358   0.00000  Uiso   1.00
N869   N     0.95485   0.82846   0.63720   0.00000  Uiso   1.00
N870   N     0.87569   0.75039   0.78266   0.00000  Uiso   1.00
N871   N     0.55394   0.96745   0.46850   0.00000  Uiso   1.00
N872   N     0.88528   0.75809   0.57717   0.00000  Uiso   1.00
N873   N     0.80612   0.68002   0.72263   0.00000  Uiso   1.00
N874   N     0.48437   0.89709   0.40847   0.00000  Uiso   1.00
C875   C     0.58995   0.12718   0.53754   0.00000  Uiso   1.00
C876   C     0.56329   0.13960   0.48671   0.00000  Uiso   1.00
C877   C     0.49459   0.12261   0.42760   0.00000  Uiso   1.00
C878   C     0.48082   0.13823   0.38787   0.00000  Uiso   1.00
C879   C     0.43133   0.15276   0.30608   0.00000  Uiso   1.00
C880   C     0.60534   0.18201   0.56307   0.00000  Uiso   1.00
C881   C     0.57200   0.20066   0.56817   0.00000  Uiso   1.00
C882   C     0.59364   0.25197   0.59273   0.00000  Uiso   1.00
C883   C     0.60948   0.33232   0.62954   0.00000  Uiso   1.00
C884   C     0.66818   0.09964   0.58652   0.00000  Uiso   1.00
C885   C     0.68768   0.04904   0.61135   0.00000  Uiso   1.00
C886   C     0.76223   0.03100   0.65567   0.00000  Uiso   1.00
C887   C     0.87564   0.98346   0.72888   0.00000  Uiso   1.00
C888   C     0.68767   0.18513   0.57209   0.00000  Uiso   1.00
C889   C     0.61637   0.17109   0.50548   0.00000  Uiso   1.00
C890   C     0.60271   0.18673   0.46583   0.00000  Uiso   1.00
C891   C     0.53399   0.16976   0.40667   0.00000  Uiso   1.00
C892   C     0.65842   0.21349   0.58184   0.00000  Uiso   1.00
C893   C     0.68012   0.26478   0.60640   0.00000  Uiso   1.00
C894   C     0.64681   0.28351   0.61154   0.00000  Uiso   1.00
C895   C     0.72126   0.13112   0.60529   0.00000  Uiso   1.00
C896   C     0.79580   0.11316   0.64958   0.00000  Uiso   1.00
C897   C     0.81541   0.06254   0.67447   0.00000  Uiso   1.00
H898   H     0.54863   0.10267   0.52292   0.00000  Uiso   1.00
H899   H     0.45352   0.09825   0.41309   0.00000  Uiso   1.00
H900   H     0.53093   0.17629   0.55365   0.00000  Uiso   1.00
H901   H     0.64659   0.02469   0.59681   0.00000  Uiso   1.00
H902   H     0.37148   0.10725   0.29959   0.00000  Uiso   1.00
H903   H     0.53471   0.27179   0.59598   0.00000  Uiso   1.00
H904   H     0.77861   0.95211   0.68701   0.00000  Uiso   1.00
H905   H     0.72900   0.20964   0.58671   0.00000  Uiso   1.00
H906   H     0.64379   0.21109   0.48037   0.00000  Uiso   1.00
H907   H     0.72119   0.28913   0.62093   0.00000  Uiso   1.00
H908   H     0.83686   0.13753   0.66409   0.00000  Uiso   1.00
H909   H     0.52590   0.19884   0.35419   0.00000  Uiso   1.00
H910   H     0.68914   0.36338   0.65059   0.00000  Uiso   1.00
H911   H     0.93304   0.04370   0.74161   0.00000  Uiso   1.00
O912   O     0.38937   0.15208   0.25578   0.00000  Uiso   1.00
O913   O     0.60354   0.36794   0.64465   0.00000  Uiso   1.00
O914   O     0.92353   0.94853   0.76407   0.00000  Uiso   1.00
N915   N     0.41952   0.12860   0.32704   0.00000  Uiso   1.00
N916   N     0.57213   0.28243   0.60413   0.00000  Uiso   1.00
N917   N     0.80016   0.98357   0.68925   0.00000  Uiso   1.00
N918   N     0.50262   0.17788   0.35642   0.00000  Uiso   1.00
N919   N     0.65522   0.33172   0.63352   0.00000  Uiso   1.00
N920   N     0.88325   0.03285   0.71863   0.00000  Uiso   1.00
C921   C     0.18340   0.81705   0.23472   0.00000  Uiso   1.00
C922   C     0.17027   0.77471   0.20061   0.00000  Uiso   1.00
C923   C     0.21812   0.73103   0.22602   0.00000  Uiso   1.00
C924   C     0.19602   0.69690   0.18717   0.00000  Uiso   1.00
C925   C     0.18588   0.62975   0.14364   0.00000  Uiso   1.00
C926   C     0.11141   0.81616   0.20702   0.00000  Uiso   1.00
C927   C     0.10977   0.80732   0.23782   0.00000  Uiso   1.00
C928   C     0.03812   0.80809   0.20436   0.00000  Uiso   1.00
C929   C     0.93660   0.80531   0.17078   0.00000  Uiso   1.00
C930   C     0.18332   0.87197   0.21828   0.00000  Uiso   1.00
C931   C     0.24213   0.91007   0.25854   0.00000  Uiso   1.00
C932   C     0.23102   0.95783   0.23456   0.00000  Uiso   1.00
C933   C     0.24116   0.04170   0.21846   0.00000  Uiso   1.00
C934   C     0.05908   0.83412   0.12054   0.00000  Uiso   1.00
C935   C     0.10274   0.78399   0.13859   0.00000  Uiso   1.00
C936   C     0.08057   0.74992   0.09969   0.00000  Uiso   1.00
C937   C     0.12837   0.70620   0.12504   0.00000  Uiso   1.00
C938   C     0.04389   0.82543   0.14500   0.00000  Uiso   1.00
C939   C     0.97222   0.82622   0.11149   0.00000  Uiso   1.00
C940   C     0.97047   0.81738   0.14222   0.00000  Uiso   1.00
C941   C     0.11580   0.88124   0.15626   0.00000  Uiso   1.00
C942   C     0.10459   0.92896   0.13221   0.00000  Uiso   1.00
C943   C     0.16337   0.96712   0.17243   0.00000  Uiso   1.00
H944   H     0.23597   0.80982   0.28301   0.00000  Uiso   1.00
H945   H     0.27037   0.72386   0.27402   0.00000  Uiso   1.00
H946   H     0.16204   0.80015   0.28581   0.00000  Uiso   1.00
H947   H     0.29438   0.90287   0.30653   0.00000  Uiso   1.00
H948   H     0.27870   0.63264   0.23670   0.00000  Uiso   1.00
H949   H     0.05028   0.79351   0.26158   0.00000  Uiso   1.00
H950   H     0.32936   0.01013   0.30527   0.00000  Uiso   1.00
H951   H     0.00650   0.84135   0.07225   0.00000  Uiso   1.00
H952   H     0.02831   0.75711   0.05170   0.00000  Uiso   1.00
H953   H     0.91998   0.83340   0.06350   0.00000  Uiso   1.00
H954   H     0.05232   0.93612   0.08421   0.00000  Uiso   1.00
H955   H     0.08224   0.65962   0.05626   0.00000  Uiso   1.00
H956   H     0.85382   0.82050   0.08113   0.00000  Uiso   1.00
H957   H     0.13290   0.03711   0.12482   0.00000  Uiso   1.00
O958   O     0.19894   0.59014   0.13676   0.00000  Uiso   1.00
O959   O     0.89927   0.80121   0.16940   0.00000  Uiso   1.00
O960   O     0.26541   0.08540   0.22672   0.00000  Uiso   1.00
N961   N     0.22948   0.65056   0.19706   0.00000  Uiso   1.00
N962   N     0.01592   0.80095   0.22031   0.00000  Uiso   1.00
N963   N     0.27683   0.00348   0.26116   0.00000  Uiso   1.00
N964   N     0.12377   0.66508   0.09996   0.00000  Uiso   1.00
N965   N     0.91021   0.81547   0.12322   0.00000  Uiso   1.00
N966   N     0.17111   0.01800   0.16406   0.00000  Uiso   1.00
C967   C     0.30095   0.35497   0.63472   0.00000  Uiso   1.00
C968   C     0.32635   0.33047   0.62073   0.00000  Uiso   1.00
C969   C     0.38647   0.34907   0.64241   0.00000  Uiso   1.00
C970   C     0.40060   0.32109   0.62437   0.00000  Uiso   1.00
C971   C     0.44684   0.28987   0.60849   0.00000  Uiso   1.00
C972   C     0.30455   0.30895   0.66082   0.00000  Uiso   1.00
C973   C     0.34633   0.30945   0.71621   0.00000  Uiso   1.00
C974   C     0.34209   0.26336   0.73191   0.00000  Uiso   1.00
C975   C     0.35443   0.19875   0.77827   0.00000  Uiso   1.00
C976   C     0.21588   0.36878   0.57424   0.00000  Uiso   1.00
C977   C     0.18310   0.41958   0.55683   0.00000  Uiso   1.00
C978   C     0.10420   0.42385   0.49964   0.00000  Uiso   1.00
C979   C     0.97887   0.45212   0.41157   0.00000  Uiso   1.00
C980   C     0.21913   0.27222   0.56412   0.00000  Uiso   1.00
C981   C     0.28191   0.28553   0.58238   0.00000  Uiso   1.00
C982   C     0.29595   0.25752   0.56430   0.00000  Uiso   1.00
C983   C     0.35608   0.27607   0.58595   0.00000  Uiso   1.00
C984   C     0.26011   0.26401   0.62248   0.00000  Uiso   1.00
C985   C     0.25581   0.21790   0.63810   0.00000  Uiso   1.00
C986   C     0.29757   0.21833   0.69350   0.00000  Uiso   1.00
C987   C     0.17144   0.32383   0.53589   0.00000  Uiso   1.00
C988   C     0.09258   0.32803   0.47872   0.00000  Uiso   1.00
C989   C     0.05968   0.37882   0.46123   0.00000  Uiso   1.00
H990   H     0.33554   0.38996   0.66458   0.00000  Uiso   1.00
H991   H     0.42085   0.38385   0.67209   0.00000  Uiso   1.00
H992   H     0.38070   0.34424   0.74587   0.00000  Uiso   1.00
H993   H     0.21750   0.45435   0.58652   0.00000  Uiso   1.00
H994   H     0.49586   0.35724   0.66352   0.00000  Uiso   1.00
H995   H     0.41118   0.27374   0.81909   0.00000  Uiso   1.00
H996   H     0.06704   0.50592   0.48306   0.00000  Uiso   1.00
H997   H     0.18453   0.23723   0.53427   0.00000  Uiso   1.00
H998   H     0.26155   0.22274   0.53463   0.00000  Uiso   1.00
H999   H     0.22141   0.18313   0.60842   0.00000  Uiso   1.00
H1000  H     0.05821   0.29324   0.44906   0.00000  Uiso   1.00
H1001  H     0.86657   0.72647   0.55196   0.00000  Uiso   1.00
H1002  H     0.28189   0.14297   0.70753   0.00000  Uiso   1.00
H1003  H     0.93775   0.37515   0.37150   0.00000  Uiso   1.00
O1004  O     0.98462   0.78506   0.61034   0.00000  Uiso   1.00
O1005  O     0.37352   0.17552   0.81444   0.00000  Uiso   1.00
O1006  O     0.92201   0.48014   0.37358   0.00000  Uiso   1.00
N1007  N     0.45485   0.32846   0.63720   0.00000  Uiso   1.00
N1008  N     0.37569   0.25039   0.78266   0.00000  Uiso   1.00
N1009  N     0.05394   0.46745   0.46850   0.00000  Uiso   1.00
N1010  N     0.38528   0.25809   0.57717   0.00000  Uiso   1.00
N1011  N     0.30612   0.18002   0.72263   0.00000  Uiso   1.00
N1012  N     0.98437   0.39709   0.40847   0.00000  Uiso   1.00
C1013  C     0.08995   0.62718   0.53754   0.00000  Uiso   1.00
C1014  C     0.06329   0.63960   0.48671   0.00000  Uiso   1.00
C1015  C     0.99459   0.62261   0.42760   0.00000  Uiso   1.00
C1016  C     0.98082   0.63823   0.38787   0.00000  Uiso   1.00
C1017  C     0.93133   0.65276   0.30608   0.00000  Uiso   1.00
C1018  C     0.10534   0.68201   0.56307   0.00000  Uiso   1.00
C1019  C     0.07200   0.70066   0.56817   0.00000  Uiso   1.00
C1020  C     0.09364   0.75197   0.59273   0.00000  Uiso   1.00
C1021  C     0.10948   0.83232   0.62954   0.00000  Uiso   1.00
C1022  C     0.16818   0.59964   0.58652   0.00000  Uiso   1.00
C1023  C     0.18768   0.54904   0.61135   0.00000  Uiso   1.00
C1024  C     0.26223   0.53100   0.65567   0.00000  Uiso   1.00
C1025  C     0.37564   0.48346   0.72888   0.00000  Uiso   1.00
C1026  C     0.18767   0.68513   0.57209   0.00000  Uiso   1.00
C1027  C     0.11637   0.67109   0.50548   0.00000  Uiso   1.00
C1028  C     0.10271   0.68673   0.46583   0.00000  Uiso   1.00
C1029  C     0.03399   0.66976   0.40667   0.00000  Uiso   1.00
C1030  C     0.15842   0.71349   0.58184   0.00000  Uiso   1.00
C1031  C     0.18012   0.76478   0.60640   0.00000  Uiso   1.00
C1032  C     0.14681   0.78351   0.61154   0.00000  Uiso   1.00
C1033  C     0.22126   0.63112   0.60529   0.00000  Uiso   1.00
C1034  C     0.29580   0.61316   0.64958   0.00000  Uiso   1.00
C1035  C     0.31541   0.56254   0.67447   0.00000  Uiso   1.00
H1036  H     0.04863   0.60267   0.52292   0.00000  Uiso   1.00
H1037  H     0.95352   0.59825   0.41309   0.00000  Uiso   1.00
H1038  H     0.03093   0.67629   0.55365   0.00000  Uiso   1.00
H1039  H     0.14659   0.52469   0.59681   0.00000  Uiso   1.00
H1040  H     0.87148   0.60725   0.29959   0.00000  Uiso   1.00
H1041  H     0.03471   0.77179   0.59598   0.00000  Uiso   1.00
H1042  H     0.27861   0.45211   0.68701   0.00000  Uiso   1.00
H1043  H     0.22900   0.70964   0.58671   0.00000  Uiso   1.00
H1044  H     0.14379   0.71109   0.48037   0.00000  Uiso   1.00
H1045  H     0.22119   0.78913   0.62093   0.00000  Uiso   1.00
H1046  H     0.33686   0.63753   0.66409   0.00000  Uiso   1.00
H1047  H     0.02590   0.69884   0.35419   0.00000  Uiso   1.00
H1048  H     0.18914   0.86338   0.65059   0.00000  Uiso   1.00
H1049  H     0.43304   0.54370   0.74161   0.00000  Uiso   1.00
O1050  O     0.88937   0.65208   0.25578   0.00000  Uiso   1.00
O1051  O     0.10354   0.86794   0.64465   0.00000  Uiso   1.00
O1052  O     0.42353   0.44853   0.76407   0.00000  Uiso   1.00
N1053  N     0.91952   0.62860   0.32704   0.00000  Uiso   1.00
N1054  N     0.07213   0.78243   0.60413   0.00000  Uiso   1.00
N1055  N     0.30016   0.48357   0.68925   0.00000  Uiso   1.00
N1056  N     0.00262   0.67788   0.35642   0.00000  Uiso   1.00
N1057  N     0.15522   0.83172   0.63352   0.00000  Uiso   1.00
N1058  N     0.38325   0.53285   0.71863   0.00000  Uiso   1.00
C1059  C     0.68340   0.31705   0.23472   0.00000  Uiso   1.00
C1060  C     0.67027   0.27471   0.20061   0.00000  Uiso   1.00
C1061  C     0.71812   0.23103   0.22602   0.00000  Uiso   1.00
C1062  C     0.69602   0.19690   0.18717   0.00000  Uiso   1.00
C1063  C     0.68588   0.12975   0.14364   0.00000  Uiso   1.00
C1064  C     0.61141   0.31616   0.20702   0.00000  Uiso   1.00
C1065  C     0.60977   0.30732   0.23782   0.00000  Uiso   1.00
C1066  C     0.53812   0.30809   0.20436   0.00000  Uiso   1.00
C1067  C     0.43660   0.30531   0.17078   0.00000  Uiso   1.00
C1068  C     0.68332   0.37197   0.21828   0.00000  Uiso   1.00
C1069  C     0.74213   0.41007   0.25854   0.00000  Uiso   1.00
C1070  C     0.73102   0.45783   0.23456   0.00000  Uiso   1.00
C1071  C     0.74116   0.54170   0.21846   0.00000  Uiso   1.00
C1072  C     0.55908   0.33412   0.12054   0.00000  Uiso   1.00
C1073  C     0.60274   0.28399   0.13859   0.00000  Uiso   1.00
C1074  C     0.58057   0.24992   0.09969   0.00000  Uiso   1.00
C1075  C     0.62837   0.20620   0.12504   0.00000  Uiso   1.00
C1076  C     0.54389   0.32543   0.14500   0.00000  Uiso   1.00
C1077  C     0.47222   0.32622   0.11149   0.00000  Uiso   1.00
C1078  C     0.47047   0.31738   0.14222   0.00000  Uiso   1.00
C1079  C     0.61580   0.38124   0.15626   0.00000  Uiso   1.00
C1080  C     0.60459   0.42896   0.13221   0.00000  Uiso   1.00
C1081  C     0.66337   0.46712   0.17243   0.00000  Uiso   1.00
H1082  H     0.73597   0.30982   0.28301   0.00000  Uiso   1.00
H1083  H     0.77037   0.22386   0.27402   0.00000  Uiso   1.00
H1084  H     0.66204   0.30015   0.28581   0.00000  Uiso   1.00
H1085  H     0.79438   0.40287   0.30653   0.00000  Uiso   1.00
H1086  H     0.77870   0.13264   0.23670   0.00000  Uiso   1.00
H1087  H     0.55028   0.29351   0.26158   0.00000  Uiso   1.00
H1088  H     0.82936   0.51013   0.30527   0.00000  Uiso   1.00
H1089  H     0.50650   0.34135   0.07225   0.00000  Uiso   1.00
H1090  H     0.52831   0.25711   0.05170   0.00000  Uiso   1.00
H1091  H     0.41998   0.33340   0.06350   0.00000  Uiso   1.00
H1092  H     0.55232   0.43612   0.08421   0.00000  Uiso   1.00
H1093  H     0.58224   0.15962   0.05626   0.00000  Uiso   1.00
H1094  H     0.35382   0.32050   0.08113   0.00000  Uiso   1.00
H1095  H     0.63290   0.53711   0.12482   0.00000  Uiso   1.00
O1096  O     0.69894   0.09014   0.13676   0.00000  Uiso   1.00
O1097  O     0.39927   0.30121   0.16940   0.00000  Uiso   1.00
O1098  O     0.76541   0.58540   0.22672   0.00000  Uiso   1.00
N1099  N     0.72948   0.15056   0.19706   0.00000  Uiso   1.00
N1100  N     0.51592   0.30095   0.22031   0.00000  Uiso   1.00
N1101  N     0.77683   0.50348   0.26116   0.00000  Uiso   1.00
N1102  N     0.62377   0.16508   0.09996   0.00000  Uiso   1.00
N1103  N     0.41021   0.31547   0.12322   0.00000  Uiso   1.00
N1104  N     0.67111   0.51800   0.16406   0.00000  Uiso   1.00
