data_job_03571
_audit_creation_date              2018-12-19
_audit_creation_method            'Materials Studio'
_symmetry_space_group_name_H-M    'P1'
_symmetry_Int_Tables_number       1
_symmetry_cell_setting            triclinic
loop_
_symmetry_equiv_pos_as_xyz
  x,y,z
_cell_length_a                    29.1530
_cell_length_b                    20.0964
_cell_length_c                    19.1193
_cell_angle_alpha                 90.0000
_cell_angle_beta                  90.0000
_cell_angle_gamma                 90.0000
loop_
_atom_site_label
_atom_site_type_symbol
_atom_site_fract_x
_atom_site_fract_y
_atom_site_fract_z
_atom_site_U_iso_or_equiv
_atom_site_adp_type
_atom_site_occupancy
C1     C     0.10181   0.26802   0.90185   0.00000  Uiso   1.00
C2     C     0.12894   0.33290   0.90243   0.00000  Uiso   1.00
C3     C     0.11337   0.39397   0.87825   0.00000  Uiso   1.00
C4     C     0.14341   0.44736   0.88335   0.00000  Uiso   1.00
C5     C     0.17884   0.54923   0.87992   0.00000  Uiso   1.00
C6     C     0.13100   0.21815   0.86143   0.00000  Uiso   1.00
C7     C     0.11715   0.18274   0.80280   0.00000  Uiso   1.00
C8     C     0.14892   0.13953   0.77340   0.00000  Uiso   1.00
C9     C     0.18754   0.06322   0.70635   0.00000  Uiso   1.00
C10    C     0.10103   0.24357   0.97734   0.00000  Uiso   1.00
C11    C     0.06199   0.22952   0.01616   0.00000  Uiso   1.00
C12    C     0.06853   0.20769   0.08434   0.00000  Uiso   1.00
C13    C     0.06062   0.17085   0.19726   0.00000  Uiso   1.00
C14    C     0.18285   0.25425   0.95389   0.00000  Uiso   1.00
C15    C     0.17296   0.32541   0.93070   0.00000  Uiso   1.00
C16    C     0.20302   0.37873   0.93584   0.00000  Uiso   1.00
C17    C     0.18750   0.43987   0.91168   0.00000  Uiso   1.00
C18    C     0.17501   0.21067   0.88970   0.00000  Uiso   1.00
C19    C     0.20681   0.16750   0.86038   0.00000  Uiso   1.00
C20    C     0.19302   0.13204   0.80171   0.00000  Uiso   1.00
C21    C     0.14505   0.23609   0.00561   0.00000  Uiso   1.00
C22    C     0.15165   0.21428   0.07374   0.00000  Uiso   1.00
C23    C     0.11262   0.20020   0.11266   0.00000  Uiso   1.00
H24    H     0.06755   0.27384   0.87984   0.00000  Uiso   1.00
H25    H     0.07931   0.39974   0.85637   0.00000  Uiso   1.00
H26    H     0.08309   0.18854   0.78094   0.00000  Uiso   1.00
H27    H     0.02794   0.23531   0.99426   0.00000  Uiso   1.00
H28    H     0.11176   0.53601   0.84281   0.00000  Uiso   1.00
H29    H     0.11973   0.09066   0.68376   0.00000  Uiso   1.00
H30    H     0.00343   0.18929   0.13360   0.00000  Uiso   1.00
H31    H     0.21712   0.24842   0.97590   0.00000  Uiso   1.00
H32    H     0.23708   0.37292   0.95771   0.00000  Uiso   1.00
H33    H     0.24087   0.16172   0.88227   0.00000  Uiso   1.00
H34    H     0.18571   0.20850   0.09560   0.00000  Uiso   1.00
H35    H     0.23982   0.51424   0.92505   0.00000  Uiso   1.00
H36    H     0.24779   0.06890   0.76600   0.00000  Uiso   1.00
H37    H     0.13149   0.16753   0.21585   0.00000  Uiso   1.00
O38    O     0.18623   0.60748   0.87021   0.00000  Uiso   1.00
O39    O     0.19669   0.02320   0.66155   0.00000  Uiso   1.00
O40    O     0.04410   0.15260   0.25173   0.00000  Uiso   1.00
N41    N     0.13915   0.51380   0.86467   0.00000  Uiso   1.00
N42    N     0.14661   0.09744   0.71596   0.00000  Uiso   1.00
N43    N     0.03788   0.18963   0.13652   0.00000  Uiso   1.00
N44    N     0.20806   0.50209   0.90893   0.00000  Uiso   1.00
N45    N     0.21552   0.08573   0.76022   0.00000  Uiso   1.00
N46    N     0.10678   0.17792   0.18078   0.00000  Uiso   1.00
C47    C     0.10195   0.73256   0.67142   0.00000  Uiso   1.00
C48    C     0.12897   0.66759   0.67044   0.00000  Uiso   1.00
C49    C     0.11328   0.60643   0.69419   0.00000  Uiso   1.00
C50    C     0.14323   0.55297   0.68877   0.00000  Uiso   1.00
C51    C     0.17850   0.45096   0.69158   0.00000  Uiso   1.00
C52    C     0.13119   0.78208   0.71221   0.00000  Uiso   1.00
C53    C     0.11737   0.81719   0.77106   0.00000  Uiso   1.00
C54    C     0.14919   0.86011   0.80079   0.00000  Uiso   1.00
C55    C     0.18790   0.93588   0.86840   0.00000  Uiso   1.00
C56    C     0.10126   0.75747   0.59609   0.00000  Uiso   1.00
C57    C     0.06226   0.77190   0.55731   0.00000  Uiso   1.00
C58    C     0.06888   0.79410   0.48929   0.00000  Uiso   1.00
C59    C     0.06110   0.83166   0.37661   0.00000  Uiso   1.00
C60    C     0.18304   0.74637   0.61958   0.00000  Uiso   1.00
C61    C     0.17301   0.67509   0.64229   0.00000  Uiso   1.00
C62    C     0.20300   0.62171   0.63684   0.00000  Uiso   1.00
C63    C     0.18736   0.56048   0.66057   0.00000  Uiso   1.00
C64    C     0.17524   0.78958   0.68405   0.00000  Uiso   1.00
C65    C     0.20708   0.83246   0.71371   0.00000  Uiso   1.00
C66    C     0.19332   0.86762   0.77259   0.00000  Uiso   1.00
C67    C     0.14530   0.76496   0.56793   0.00000  Uiso   1.00
C68    C     0.15198   0.78716   0.49996   0.00000  Uiso   1.00
C69    C     0.11300   0.80162   0.46108   0.00000  Uiso   1.00
H70    H     0.06766   0.72673   0.69334   0.00000  Uiso   1.00
H71    H     0.07919   0.60065   0.71598   0.00000  Uiso   1.00
H72    H     0.08328   0.81138   0.79283   0.00000  Uiso   1.00
H73    H     0.02818   0.76609   0.57912   0.00000  Uiso   1.00
H74    H     0.11141   0.46419   0.72868   0.00000  Uiso   1.00
H75    H     0.12003   0.90853   0.89072   0.00000  Uiso   1.00
H76    H     0.00384   0.81303   0.44006   0.00000  Uiso   1.00
H77    H     0.21733   0.75220   0.59766   0.00000  Uiso   1.00
H78    H     0.23708   0.62752   0.61504   0.00000  Uiso   1.00
H79    H     0.24116   0.83825   0.69190   0.00000  Uiso   1.00
H80    H     0.18607   0.79296   0.47819   0.00000  Uiso   1.00
H81    H     0.23956   0.48600   0.64677   0.00000  Uiso   1.00
H82    H     0.24817   0.93035   0.80880   0.00000  Uiso   1.00
H83    H     0.13198   0.83484   0.35814   0.00000  Uiso   1.00
O84    O     0.18578   0.39262   0.70091   0.00000  Uiso   1.00
O85    O     0.19708   0.97559   0.91348   0.00000  Uiso   1.00
O86    O     0.04464   0.85029   0.32223   0.00000  Uiso   1.00
N87    N     0.13886   0.48643   0.70701   0.00000  Uiso   1.00
N88    N     0.14691   0.90186   0.85850   0.00000  Uiso   1.00
N89    N     0.03829   0.81259   0.43718   0.00000  Uiso   1.00
N90    N     0.20781   0.49817   0.66292   0.00000  Uiso   1.00
N91    N     0.21587   0.91359   0.81442   0.00000  Uiso   1.00
N92    N     0.10724   0.82432   0.39310   0.00000  Uiso   1.00
C93    C     0.39819   0.73198   0.40185   0.00000  Uiso   1.00
C94    C     0.37106   0.66710   0.40243   0.00000  Uiso   1.00
C95    C     0.38663   0.60603   0.37825   0.00000  Uiso   1.00
C96    C     0.35659   0.55264   0.38335   0.00000  Uiso   1.00
C97    C     0.32116   0.45077   0.37992   0.00000  Uiso   1.00
C98    C     0.36900   0.78185   0.36143   0.00000  Uiso   1.00
C99    C     0.38285   0.81726   0.30280   0.00000  Uiso   1.00
C100   C     0.35108   0.86047   0.27340   0.00000  Uiso   1.00
C101   C     0.31246   0.93678   0.20635   0.00000  Uiso   1.00
C102   C     0.39897   0.75643   0.47734   0.00000  Uiso   1.00
C103   C     0.43801   0.77048   0.51616   0.00000  Uiso   1.00
C104   C     0.43147   0.79231   0.58434   0.00000  Uiso   1.00
C105   C     0.43938   0.82915   0.69726   0.00000  Uiso   1.00
C106   C     0.31715   0.74575   0.45389   0.00000  Uiso   1.00
C107   C     0.32704   0.67459   0.43070   0.00000  Uiso   1.00
C108   C     0.29698   0.62127   0.43584   0.00000  Uiso   1.00
C109   C     0.31250   0.56013   0.41168   0.00000  Uiso   1.00
C110   C     0.32499   0.78933   0.38970   0.00000  Uiso   1.00
C111   C     0.29319   0.83250   0.36038   0.00000  Uiso   1.00
C112   C     0.30698   0.86796   0.30171   0.00000  Uiso   1.00
C113   C     0.35495   0.76391   0.50561   0.00000  Uiso   1.00
C114   C     0.34835   0.78572   0.57374   0.00000  Uiso   1.00
C115   C     0.38738   0.79980   0.61266   0.00000  Uiso   1.00
H116   H     0.43245   0.72616   0.37984   0.00000  Uiso   1.00
H117   H     0.42069   0.60026   0.35637   0.00000  Uiso   1.00
H118   H     0.41691   0.81146   0.28094   0.00000  Uiso   1.00
H119   H     0.47206   0.76469   0.49426   0.00000  Uiso   1.00
H120   H     0.38824   0.46399   0.34281   0.00000  Uiso   1.00
H121   H     0.38027   0.90934   0.18376   0.00000  Uiso   1.00
H122   H     0.49657   0.81071   0.63360   0.00000  Uiso   1.00
H123   H     0.28288   0.75158   0.47590   0.00000  Uiso   1.00
H124   H     0.26292   0.62708   0.45771   0.00000  Uiso   1.00
H125   H     0.25913   0.83828   0.38227   0.00000  Uiso   1.00
H126   H     0.31429   0.79150   0.59560   0.00000  Uiso   1.00
H127   H     0.26018   0.48576   0.42505   0.00000  Uiso   1.00
H128   H     0.25221   0.93110   0.26600   0.00000  Uiso   1.00
H129   H     0.36851   0.83247   0.71585   0.00000  Uiso   1.00
O130   O     0.31377   0.39252   0.37021   0.00000  Uiso   1.00
O131   O     0.30331   0.97680   0.16155   0.00000  Uiso   1.00
O132   O     0.45590   0.84740   0.75173   0.00000  Uiso   1.00
N133   N     0.36085   0.48620   0.36467   0.00000  Uiso   1.00
N134   N     0.35339   0.90256   0.21596   0.00000  Uiso   1.00
N135   N     0.46212   0.81037   0.63652   0.00000  Uiso   1.00
N136   N     0.29194   0.49791   0.40893   0.00000  Uiso   1.00
N137   N     0.28448   0.91427   0.26022   0.00000  Uiso   1.00
N138   N     0.39322   0.82208   0.68078   0.00000  Uiso   1.00
C139   C     0.39805   0.26744   0.17142   0.00000  Uiso   1.00
C140   C     0.37103   0.33241   0.17044   0.00000  Uiso   1.00
C141   C     0.38672   0.39357   0.19419   0.00000  Uiso   1.00
C142   C     0.35677   0.44703   0.18877   0.00000  Uiso   1.00
C143   C     0.32150   0.54904   0.19158   0.00000  Uiso   1.00
C144   C     0.36881   0.21792   0.21221   0.00000  Uiso   1.00
C145   C     0.38263   0.18281   0.27106   0.00000  Uiso   1.00
C146   C     0.35081   0.13989   0.30079   0.00000  Uiso   1.00
C147   C     0.31210   0.06412   0.36840   0.00000  Uiso   1.00
C148   C     0.39874   0.24253   0.09609   0.00000  Uiso   1.00
C149   C     0.43774   0.22810   0.05731   0.00000  Uiso   1.00
C150   C     0.43112   0.20590   0.98929   0.00000  Uiso   1.00
C151   C     0.43890   0.16834   0.87661   0.00000  Uiso   1.00
C152   C     0.31696   0.25363   0.11958   0.00000  Uiso   1.00
C153   C     0.32699   0.32491   0.14229   0.00000  Uiso   1.00
C154   C     0.29700   0.37829   0.13684   0.00000  Uiso   1.00
C155   C     0.31264   0.43952   0.16057   0.00000  Uiso   1.00
C156   C     0.32476   0.21042   0.18405   0.00000  Uiso   1.00
C157   C     0.29292   0.16754   0.21371   0.00000  Uiso   1.00
C158   C     0.30668   0.13238   0.27259   0.00000  Uiso   1.00
C159   C     0.35470   0.23504   0.06793   0.00000  Uiso   1.00
C160   C     0.34802   0.21284   0.99996   0.00000  Uiso   1.00
C161   C     0.38700   0.19838   0.96108   0.00000  Uiso   1.00
H162   H     0.43234   0.27327   0.19334   0.00000  Uiso   1.00
H163   H     0.42081   0.39935   0.21598   0.00000  Uiso   1.00
H164   H     0.41672   0.18862   0.29283   0.00000  Uiso   1.00
H165   H     0.47182   0.23391   0.07912   0.00000  Uiso   1.00
H166   H     0.38859   0.53581   0.22868   0.00000  Uiso   1.00
H167   H     0.37997   0.09147   0.39072   0.00000  Uiso   1.00
H168   H     0.49616   0.18697   0.94006   0.00000  Uiso   1.00
H169   H     0.28267   0.24780   0.09766   0.00000  Uiso   1.00
H170   H     0.26292   0.37248   0.11504   0.00000  Uiso   1.00
H171   H     0.25884   0.16175   0.19190   0.00000  Uiso   1.00
H172   H     0.31393   0.20704   0.97819   0.00000  Uiso   1.00
H173   H     0.26044   0.51400   0.14677   0.00000  Uiso   1.00
H174   H     0.25183   0.06965   0.30880   0.00000  Uiso   1.00
H175   H     0.36802   0.16516   0.85814   0.00000  Uiso   1.00
O176   O     0.31422   0.60738   0.20091   0.00000  Uiso   1.00
O177   O     0.30292   0.02441   0.41348   0.00000  Uiso   1.00
O178   O     0.45536   0.14971   0.82223   0.00000  Uiso   1.00
N179   N     0.36114   0.51357   0.20701   0.00000  Uiso   1.00
N180   N     0.35309   0.09814   0.35850   0.00000  Uiso   1.00
N181   N     0.46171   0.18741   0.93718   0.00000  Uiso   1.00
N182   N     0.29219   0.50183   0.16292   0.00000  Uiso   1.00
N183   N     0.28413   0.08641   0.31442   0.00000  Uiso   1.00
N184   N     0.39276   0.17568   0.89310   0.00000  Uiso   1.00
C185   C     0.89819   0.76802   0.59815   0.00000  Uiso   1.00
C186   C     0.87106   0.83290   0.59757   0.00000  Uiso   1.00
C187   C     0.88663   0.89397   0.62175   0.00000  Uiso   1.00
C188   C     0.85659   0.94736   0.61665   0.00000  Uiso   1.00
C189   C     0.82116   0.04923   0.62008   0.00000  Uiso   1.00
C190   C     0.86900   0.71815   0.63857   0.00000  Uiso   1.00
C191   C     0.88285   0.68274   0.69720   0.00000  Uiso   1.00
C192   C     0.85108   0.63953   0.72660   0.00000  Uiso   1.00
C193   C     0.81246   0.56322   0.79365   0.00000  Uiso   1.00
C194   C     0.89897   0.74357   0.52266   0.00000  Uiso   1.00
C195   C     0.93801   0.72952   0.48384   0.00000  Uiso   1.00
C196   C     0.93147   0.70769   0.41566   0.00000  Uiso   1.00
C197   C     0.93938   0.67085   0.30274   0.00000  Uiso   1.00
C198   C     0.81715   0.75425   0.54611   0.00000  Uiso   1.00
C199   C     0.82704   0.82541   0.56930   0.00000  Uiso   1.00
C200   C     0.79698   0.87873   0.56416   0.00000  Uiso   1.00
C201   C     0.81250   0.93987   0.58832   0.00000  Uiso   1.00
C202   C     0.82499   0.71067   0.61030   0.00000  Uiso   1.00
C203   C     0.79319   0.66750   0.63962   0.00000  Uiso   1.00
C204   C     0.80698   0.63204   0.69829   0.00000  Uiso   1.00
C205   C     0.85495   0.73609   0.49439   0.00000  Uiso   1.00
C206   C     0.84835   0.71428   0.42626   0.00000  Uiso   1.00
C207   C     0.88738   0.70020   0.38734   0.00000  Uiso   1.00
H208   H     0.93245   0.77384   0.62016   0.00000  Uiso   1.00
H209   H     0.92069   0.89974   0.64363   0.00000  Uiso   1.00
H210   H     0.91691   0.68854   0.71906   0.00000  Uiso   1.00
H211   H     0.97206   0.73531   0.50574   0.00000  Uiso   1.00
H212   H     0.88824   0.03601   0.65719   0.00000  Uiso   1.00
H213   H     0.88027   0.59066   0.81624   0.00000  Uiso   1.00
H214   H     0.99657   0.68929   0.36640   0.00000  Uiso   1.00
H215   H     0.78288   0.74842   0.52410   0.00000  Uiso   1.00
H216   H     0.76292   0.87292   0.54229   0.00000  Uiso   1.00
H217   H     0.75913   0.66172   0.61773   0.00000  Uiso   1.00
H218   H     0.81429   0.70850   0.40440   0.00000  Uiso   1.00
H219   H     0.76018   0.01424   0.57495   0.00000  Uiso   1.00
H220   H     0.75221   0.56890   0.73400   0.00000  Uiso   1.00
H221   H     0.86851   0.66753   0.28415   0.00000  Uiso   1.00
O222   O     0.81377   0.10748   0.62979   0.00000  Uiso   1.00
O223   O     0.80331   0.52320   0.83845   0.00000  Uiso   1.00
O224   O     0.95590   0.65260   0.24827   0.00000  Uiso   1.00
N225   N     0.86085   0.01380   0.63533   0.00000  Uiso   1.00
N226   N     0.85339   0.59744   0.78404   0.00000  Uiso   1.00
N227   N     0.96212   0.68963   0.36348   0.00000  Uiso   1.00
N228   N     0.79194   0.00209   0.59107   0.00000  Uiso   1.00
N229   N     0.78448   0.58573   0.73978   0.00000  Uiso   1.00
N230   N     0.89322   0.67792   0.31922   0.00000  Uiso   1.00
C231   C     0.89805   0.23256   0.82858   0.00000  Uiso   1.00
C232   C     0.87103   0.16759   0.82956   0.00000  Uiso   1.00
C233   C     0.88672   0.10643   0.80581   0.00000  Uiso   1.00
C234   C     0.85677   0.05297   0.81123   0.00000  Uiso   1.00
C235   C     0.82150   0.95096   0.80842   0.00000  Uiso   1.00
C236   C     0.86881   0.28208   0.78779   0.00000  Uiso   1.00
C237   C     0.88263   0.31719   0.72894   0.00000  Uiso   1.00
C238   C     0.85081   0.36011   0.69921   0.00000  Uiso   1.00
C239   C     0.81210   0.43588   0.63160   0.00000  Uiso   1.00
C240   C     0.89874   0.25747   0.90391   0.00000  Uiso   1.00
C241   C     0.93774   0.27190   0.94269   0.00000  Uiso   1.00
C242   C     0.93112   0.29410   0.01071   0.00000  Uiso   1.00
C243   C     0.93890   0.33166   0.12339   0.00000  Uiso   1.00
C244   C     0.81696   0.24637   0.88042   0.00000  Uiso   1.00
C245   C     0.82699   0.17509   0.85771   0.00000  Uiso   1.00
C246   C     0.79700   0.12171   0.86316   0.00000  Uiso   1.00
C247   C     0.81264   0.06048   0.83943   0.00000  Uiso   1.00
C248   C     0.82476   0.28958   0.81595   0.00000  Uiso   1.00
C249   C     0.79292   0.33246   0.78629   0.00000  Uiso   1.00
C250   C     0.80668   0.36762   0.72741   0.00000  Uiso   1.00
C251   C     0.85470   0.26496   0.93207   0.00000  Uiso   1.00
C252   C     0.84802   0.28716   0.00004   0.00000  Uiso   1.00
C253   C     0.88700   0.30162   0.03892   0.00000  Uiso   1.00
H254   H     0.93234   0.22673   0.80666   0.00000  Uiso   1.00
H255   H     0.92081   0.10065   0.78402   0.00000  Uiso   1.00
H256   H     0.91672   0.31138   0.70717   0.00000  Uiso   1.00
H257   H     0.97182   0.26609   0.92088   0.00000  Uiso   1.00
H258   H     0.88859   0.96419   0.77132   0.00000  Uiso   1.00
H259   H     0.87997   0.40853   0.60928   0.00000  Uiso   1.00
H260   H     0.99616   0.31303   0.05994   0.00000  Uiso   1.00
H261   H     0.78267   0.25220   0.90234   0.00000  Uiso   1.00
H262   H     0.76292   0.12752   0.88496   0.00000  Uiso   1.00
H263   H     0.75884   0.33825   0.80810   0.00000  Uiso   1.00
H264   H     0.81393   0.29296   0.02181   0.00000  Uiso   1.00
H265   H     0.76044   0.98600   0.85323   0.00000  Uiso   1.00
H266   H     0.75183   0.43035   0.69120   0.00000  Uiso   1.00
H267   H     0.86802   0.33484   0.14186   0.00000  Uiso   1.00
O268   O     0.81422   0.89262   0.79909   0.00000  Uiso   1.00
O269   O     0.80292   0.47559   0.58652   0.00000  Uiso   1.00
O270   O     0.95536   0.35029   0.17777   0.00000  Uiso   1.00
N271   N     0.86114   0.98643   0.79299   0.00000  Uiso   1.00
N272   N     0.85309   0.40186   0.64150   0.00000  Uiso   1.00
N273   N     0.96171   0.31259   0.06282   0.00000  Uiso   1.00
N274   N     0.79219   0.99817   0.83708   0.00000  Uiso   1.00
N275   N     0.78413   0.41359   0.68558   0.00000  Uiso   1.00
N276   N     0.89276   0.32432   0.10690   0.00000  Uiso   1.00
C277   C     0.60181   0.23198   0.09815   0.00000  Uiso   1.00
C278   C     0.62894   0.16710   0.09757   0.00000  Uiso   1.00
C279   C     0.61337   0.10603   0.12175   0.00000  Uiso   1.00
C280   C     0.64341   0.05264   0.11665   0.00000  Uiso   1.00
C281   C     0.67884   0.95077   0.12008   0.00000  Uiso   1.00
C282   C     0.63100   0.28185   0.13857   0.00000  Uiso   1.00
C283   C     0.61715   0.31726   0.19720   0.00000  Uiso   1.00
C284   C     0.64892   0.36047   0.22660   0.00000  Uiso   1.00
C285   C     0.68754   0.43678   0.29365   0.00000  Uiso   1.00
C286   C     0.60103   0.25643   0.02266   0.00000  Uiso   1.00
C287   C     0.56199   0.27048   0.98384   0.00000  Uiso   1.00
C288   C     0.56853   0.29231   0.91566   0.00000  Uiso   1.00
C289   C     0.56062   0.32915   0.80274   0.00000  Uiso   1.00
C290   C     0.68285   0.24575   0.04611   0.00000  Uiso   1.00
C291   C     0.67296   0.17459   0.06930   0.00000  Uiso   1.00
C292   C     0.70302   0.12127   0.06416   0.00000  Uiso   1.00
C293   C     0.68750   0.06013   0.08832   0.00000  Uiso   1.00
C294   C     0.67501   0.28933   0.11030   0.00000  Uiso   1.00
C295   C     0.70681   0.33250   0.13962   0.00000  Uiso   1.00
C296   C     0.69302   0.36796   0.19829   0.00000  Uiso   1.00
C297   C     0.64505   0.26391   0.99439   0.00000  Uiso   1.00
C298   C     0.65165   0.28572   0.92626   0.00000  Uiso   1.00
C299   C     0.61262   0.29980   0.88734   0.00000  Uiso   1.00
H300   H     0.56755   0.22616   0.12016   0.00000  Uiso   1.00
H301   H     0.57931   0.10026   0.14363   0.00000  Uiso   1.00
H302   H     0.58309   0.31146   0.21906   0.00000  Uiso   1.00
H303   H     0.52794   0.26469   0.00574   0.00000  Uiso   1.00
H304   H     0.61176   0.96399   0.15719   0.00000  Uiso   1.00
H305   H     0.61973   0.40934   0.31624   0.00000  Uiso   1.00
H306   H     0.50343   0.31071   0.86640   0.00000  Uiso   1.00
H307   H     0.71712   0.25158   0.02410   0.00000  Uiso   1.00
H308   H     0.73708   0.12708   0.04229   0.00000  Uiso   1.00
H309   H     0.74087   0.33828   0.11773   0.00000  Uiso   1.00
H310   H     0.68571   0.29150   0.90440   0.00000  Uiso   1.00
H311   H     0.73982   0.98576   0.07495   0.00000  Uiso   1.00
H312   H     0.74779   0.43110   0.23400   0.00000  Uiso   1.00
H313   H     0.63149   0.33247   0.78415   0.00000  Uiso   1.00
O314   O     0.68623   0.89252   0.12979   0.00000  Uiso   1.00
O315   O     0.69669   0.47680   0.33845   0.00000  Uiso   1.00
O316   O     0.54410   0.34740   0.74827   0.00000  Uiso   1.00
N317   N     0.63915   0.98620   0.13533   0.00000  Uiso   1.00
N318   N     0.64661   0.40256   0.28404   0.00000  Uiso   1.00
N319   N     0.53788   0.31037   0.86348   0.00000  Uiso   1.00
N320   N     0.70806   0.99791   0.09107   0.00000  Uiso   1.00
N321   N     0.71552   0.41427   0.23978   0.00000  Uiso   1.00
N322   N     0.60678   0.32208   0.81922   0.00000  Uiso   1.00
C323   C     0.60195   0.76744   0.32858   0.00000  Uiso   1.00
C324   C     0.62897   0.83241   0.32956   0.00000  Uiso   1.00
C325   C     0.61328   0.89357   0.30581   0.00000  Uiso   1.00
C326   C     0.64323   0.94703   0.31123   0.00000  Uiso   1.00
C327   C     0.67850   0.04904   0.30842   0.00000  Uiso   1.00
C328   C     0.63119   0.71792   0.28779   0.00000  Uiso   1.00
C329   C     0.61737   0.68281   0.22894   0.00000  Uiso   1.00
C330   C     0.64919   0.63989   0.19921   0.00000  Uiso   1.00
C331   C     0.68790   0.56412   0.13160   0.00000  Uiso   1.00
C332   C     0.60126   0.74253   0.40391   0.00000  Uiso   1.00
C333   C     0.56226   0.72810   0.44269   0.00000  Uiso   1.00
C334   C     0.56888   0.70590   0.51071   0.00000  Uiso   1.00
C335   C     0.56110   0.66834   0.62339   0.00000  Uiso   1.00
C336   C     0.68304   0.75363   0.38042   0.00000  Uiso   1.00
C337   C     0.67301   0.82491   0.35771   0.00000  Uiso   1.00
C338   C     0.70300   0.87829   0.36316   0.00000  Uiso   1.00
C339   C     0.68736   0.93952   0.33943   0.00000  Uiso   1.00
C340   C     0.67524   0.71042   0.31595   0.00000  Uiso   1.00
C341   C     0.70708   0.66754   0.28629   0.00000  Uiso   1.00
C342   C     0.69332   0.63238   0.22741   0.00000  Uiso   1.00
C343   C     0.64530   0.73504   0.43207   0.00000  Uiso   1.00
C344   C     0.65198   0.71284   0.50004   0.00000  Uiso   1.00
C345   C     0.61300   0.69838   0.53892   0.00000  Uiso   1.00
H346   H     0.56766   0.77327   0.30666   0.00000  Uiso   1.00
H347   H     0.57919   0.89935   0.28402   0.00000  Uiso   1.00
H348   H     0.58328   0.68862   0.20717   0.00000  Uiso   1.00
H349   H     0.52818   0.73391   0.42088   0.00000  Uiso   1.00
H350   H     0.61141   0.03581   0.27132   0.00000  Uiso   1.00
H351   H     0.62003   0.59147   0.10928   0.00000  Uiso   1.00
H352   H     0.50384   0.68697   0.55994   0.00000  Uiso   1.00
H353   H     0.71733   0.74780   0.40234   0.00000  Uiso   1.00
H354   H     0.73708   0.87248   0.38496   0.00000  Uiso   1.00
H355   H     0.74116   0.66175   0.30810   0.00000  Uiso   1.00
H356   H     0.68607   0.70704   0.52181   0.00000  Uiso   1.00
H357   H     0.73956   0.01400   0.35323   0.00000  Uiso   1.00
H358   H     0.74817   0.56965   0.19120   0.00000  Uiso   1.00
H359   H     0.63198   0.66516   0.64186   0.00000  Uiso   1.00
O360   O     0.68578   0.10738   0.29909   0.00000  Uiso   1.00
O361   O     0.69708   0.52441   0.08652   0.00000  Uiso   1.00
O362   O     0.54464   0.64971   0.67777   0.00000  Uiso   1.00
N363   N     0.63886   0.01357   0.29299   0.00000  Uiso   1.00
N364   N     0.64691   0.59814   0.14150   0.00000  Uiso   1.00
N365   N     0.53829   0.68741   0.56282   0.00000  Uiso   1.00
N366   N     0.70781   0.00183   0.33708   0.00000  Uiso   1.00
N367   N     0.71587   0.58641   0.18558   0.00000  Uiso   1.00
N368   N     0.60724   0.67568   0.60690   0.00000  Uiso   1.00
C369   C     0.89819   0.73198   0.09815   0.00000  Uiso   1.00
C370   C     0.87106   0.66710   0.09757   0.00000  Uiso   1.00
C371   C     0.88663   0.60603   0.12175   0.00000  Uiso   1.00
C372   C     0.85659   0.55264   0.11665   0.00000  Uiso   1.00
C373   C     0.82116   0.45077   0.12008   0.00000  Uiso   1.00
C374   C     0.86900   0.78185   0.13857   0.00000  Uiso   1.00
C375   C     0.88285   0.81726   0.19720   0.00000  Uiso   1.00
C376   C     0.85108   0.86047   0.22660   0.00000  Uiso   1.00
C377   C     0.81246   0.93678   0.29365   0.00000  Uiso   1.00
C378   C     0.89897   0.75643   0.02266   0.00000  Uiso   1.00
C379   C     0.93801   0.77048   0.98384   0.00000  Uiso   1.00
C380   C     0.93147   0.79231   0.91566   0.00000  Uiso   1.00
C381   C     0.93938   0.82915   0.80274   0.00000  Uiso   1.00
C382   C     0.81715   0.74575   0.04611   0.00000  Uiso   1.00
C383   C     0.82704   0.67459   0.06930   0.00000  Uiso   1.00
C384   C     0.79698   0.62127   0.06416   0.00000  Uiso   1.00
C385   C     0.81250   0.56013   0.08832   0.00000  Uiso   1.00
C386   C     0.82499   0.78933   0.11030   0.00000  Uiso   1.00
C387   C     0.79319   0.83250   0.13962   0.00000  Uiso   1.00
C388   C     0.80698   0.86796   0.19829   0.00000  Uiso   1.00
C389   C     0.85495   0.76391   0.99439   0.00000  Uiso   1.00
C390   C     0.84835   0.78572   0.92626   0.00000  Uiso   1.00
C391   C     0.88738   0.79980   0.88734   0.00000  Uiso   1.00
H392   H     0.93245   0.72616   0.12016   0.00000  Uiso   1.00
H393   H     0.92069   0.60026   0.14363   0.00000  Uiso   1.00
H394   H     0.91691   0.81146   0.21906   0.00000  Uiso   1.00
H395   H     0.97206   0.76469   0.00574   0.00000  Uiso   1.00
H396   H     0.88824   0.46399   0.15719   0.00000  Uiso   1.00
H397   H     0.88027   0.90934   0.31624   0.00000  Uiso   1.00
H398   H     0.99657   0.81071   0.86640   0.00000  Uiso   1.00
H399   H     0.78288   0.75158   0.02410   0.00000  Uiso   1.00
H400   H     0.76292   0.62708   0.04229   0.00000  Uiso   1.00
H401   H     0.75913   0.83828   0.11773   0.00000  Uiso   1.00
H402   H     0.81429   0.79150   0.90440   0.00000  Uiso   1.00
H403   H     0.76018   0.48576   0.07495   0.00000  Uiso   1.00
H404   H     0.75221   0.93110   0.23400   0.00000  Uiso   1.00
H405   H     0.86851   0.83247   0.78415   0.00000  Uiso   1.00
O406   O     0.81377   0.39252   0.12979   0.00000  Uiso   1.00
O407   O     0.80331   0.97680   0.33845   0.00000  Uiso   1.00
O408   O     0.95590   0.84740   0.74827   0.00000  Uiso   1.00
N409   N     0.86085   0.48620   0.13533   0.00000  Uiso   1.00
N410   N     0.85339   0.90256   0.28404   0.00000  Uiso   1.00
N411   N     0.96212   0.81037   0.86348   0.00000  Uiso   1.00
N412   N     0.79194   0.49791   0.09107   0.00000  Uiso   1.00
N413   N     0.78448   0.91427   0.23978   0.00000  Uiso   1.00
N414   N     0.89322   0.82208   0.81922   0.00000  Uiso   1.00
C415   C     0.89805   0.26744   0.32858   0.00000  Uiso   1.00
C416   C     0.87103   0.33241   0.32956   0.00000  Uiso   1.00
C417   C     0.88672   0.39357   0.30581   0.00000  Uiso   1.00
C418   C     0.85677   0.44703   0.31123   0.00000  Uiso   1.00
C419   C     0.82150   0.54904   0.30842   0.00000  Uiso   1.00
C420   C     0.86881   0.21792   0.28779   0.00000  Uiso   1.00
C421   C     0.88263   0.18281   0.22894   0.00000  Uiso   1.00
C422   C     0.85081   0.13989   0.19921   0.00000  Uiso   1.00
C423   C     0.81210   0.06412   0.13160   0.00000  Uiso   1.00
C424   C     0.89874   0.24253   0.40391   0.00000  Uiso   1.00
C425   C     0.93774   0.22810   0.44269   0.00000  Uiso   1.00
C426   C     0.93112   0.20590   0.51071   0.00000  Uiso   1.00
C427   C     0.93890   0.16834   0.62339   0.00000  Uiso   1.00
C428   C     0.81696   0.25363   0.38042   0.00000  Uiso   1.00
C429   C     0.82699   0.32491   0.35771   0.00000  Uiso   1.00
C430   C     0.79700   0.37829   0.36316   0.00000  Uiso   1.00
C431   C     0.81264   0.43952   0.33943   0.00000  Uiso   1.00
C432   C     0.82476   0.21042   0.31595   0.00000  Uiso   1.00
C433   C     0.79292   0.16754   0.28629   0.00000  Uiso   1.00
C434   C     0.80668   0.13238   0.22741   0.00000  Uiso   1.00
C435   C     0.85470   0.23504   0.43207   0.00000  Uiso   1.00
C436   C     0.84802   0.21284   0.50004   0.00000  Uiso   1.00
C437   C     0.88700   0.19838   0.53892   0.00000  Uiso   1.00
H438   H     0.93234   0.27327   0.30666   0.00000  Uiso   1.00
H439   H     0.92081   0.39935   0.28402   0.00000  Uiso   1.00
H440   H     0.91672   0.18862   0.20717   0.00000  Uiso   1.00
H441   H     0.97182   0.23391   0.42088   0.00000  Uiso   1.00
H442   H     0.88859   0.53581   0.27132   0.00000  Uiso   1.00
H443   H     0.87997   0.09147   0.10928   0.00000  Uiso   1.00
H444   H     0.99616   0.18697   0.55994   0.00000  Uiso   1.00
H445   H     0.78267   0.24780   0.40234   0.00000  Uiso   1.00
H446   H     0.76292   0.37248   0.38496   0.00000  Uiso   1.00
H447   H     0.75884   0.16175   0.30810   0.00000  Uiso   1.00
H448   H     0.81393   0.20704   0.52181   0.00000  Uiso   1.00
H449   H     0.76044   0.51400   0.35323   0.00000  Uiso   1.00
H450   H     0.75183   0.06965   0.19120   0.00000  Uiso   1.00
H451   H     0.86802   0.16516   0.64186   0.00000  Uiso   1.00
O452   O     0.81422   0.60738   0.29909   0.00000  Uiso   1.00
O453   O     0.80292   0.02441   0.08652   0.00000  Uiso   1.00
O454   O     0.95536   0.14971   0.67777   0.00000  Uiso   1.00
N455   N     0.86114   0.51357   0.29299   0.00000  Uiso   1.00
N456   N     0.85309   0.09814   0.14150   0.00000  Uiso   1.00
N457   N     0.96171   0.18741   0.56282   0.00000  Uiso   1.00
N458   N     0.79219   0.50183   0.33708   0.00000  Uiso   1.00
N459   N     0.78413   0.08641   0.18558   0.00000  Uiso   1.00
N460   N     0.89276   0.17568   0.60690   0.00000  Uiso   1.00
C461   C     0.60181   0.26802   0.59815   0.00000  Uiso   1.00
C462   C     0.62894   0.33290   0.59757   0.00000  Uiso   1.00
C463   C     0.61337   0.39397   0.62175   0.00000  Uiso   1.00
C464   C     0.64341   0.44736   0.61665   0.00000  Uiso   1.00
C465   C     0.67884   0.54923   0.62008   0.00000  Uiso   1.00
C466   C     0.63100   0.21815   0.63857   0.00000  Uiso   1.00
C467   C     0.61715   0.18274   0.69720   0.00000  Uiso   1.00
C468   C     0.64892   0.13953   0.72660   0.00000  Uiso   1.00
C469   C     0.68754   0.06322   0.79365   0.00000  Uiso   1.00
C470   C     0.60103   0.24357   0.52266   0.00000  Uiso   1.00
C471   C     0.56199   0.22952   0.48384   0.00000  Uiso   1.00
C472   C     0.56853   0.20769   0.41566   0.00000  Uiso   1.00
C473   C     0.56062   0.17085   0.30274   0.00000  Uiso   1.00
C474   C     0.68285   0.25425   0.54611   0.00000  Uiso   1.00
C475   C     0.67296   0.32541   0.56930   0.00000  Uiso   1.00
C476   C     0.70302   0.37873   0.56416   0.00000  Uiso   1.00
C477   C     0.68750   0.43987   0.58832   0.00000  Uiso   1.00
C478   C     0.67501   0.21067   0.61030   0.00000  Uiso   1.00
C479   C     0.70681   0.16750   0.63962   0.00000  Uiso   1.00
C480   C     0.69302   0.13204   0.69829   0.00000  Uiso   1.00
C481   C     0.64505   0.23609   0.49439   0.00000  Uiso   1.00
C482   C     0.65165   0.21428   0.42626   0.00000  Uiso   1.00
C483   C     0.61262   0.20020   0.38734   0.00000  Uiso   1.00
H484   H     0.56755   0.27384   0.62016   0.00000  Uiso   1.00
H485   H     0.57931   0.39974   0.64363   0.00000  Uiso   1.00
H486   H     0.58309   0.18854   0.71906   0.00000  Uiso   1.00
H487   H     0.52794   0.23531   0.50574   0.00000  Uiso   1.00
H488   H     0.61176   0.53601   0.65719   0.00000  Uiso   1.00
H489   H     0.61973   0.09066   0.81624   0.00000  Uiso   1.00
H490   H     0.50343   0.18929   0.36640   0.00000  Uiso   1.00
H491   H     0.71712   0.24842   0.52410   0.00000  Uiso   1.00
H492   H     0.73708   0.37292   0.54229   0.00000  Uiso   1.00
H493   H     0.74087   0.16172   0.61773   0.00000  Uiso   1.00
H494   H     0.68571   0.20850   0.40440   0.00000  Uiso   1.00
H495   H     0.73982   0.51424   0.57495   0.00000  Uiso   1.00
H496   H     0.74779   0.06890   0.73400   0.00000  Uiso   1.00
H497   H     0.63149   0.16753   0.28415   0.00000  Uiso   1.00
O498   O     0.68623   0.60748   0.62979   0.00000  Uiso   1.00
O499   O     0.69669   0.02320   0.83845   0.00000  Uiso   1.00
O500   O     0.54410   0.15260   0.24827   0.00000  Uiso   1.00
N501   N     0.63915   0.51380   0.63533   0.00000  Uiso   1.00
N502   N     0.64661   0.09744   0.78404   0.00000  Uiso   1.00
N503   N     0.53788   0.18963   0.36348   0.00000  Uiso   1.00
N504   N     0.70806   0.50209   0.59107   0.00000  Uiso   1.00
N505   N     0.71552   0.08573   0.73978   0.00000  Uiso   1.00
N506   N     0.60678   0.17792   0.31922   0.00000  Uiso   1.00
C507   C     0.60195   0.73256   0.82858   0.00000  Uiso   1.00
C508   C     0.62897   0.66759   0.82956   0.00000  Uiso   1.00
C509   C     0.61328   0.60643   0.80581   0.00000  Uiso   1.00
C510   C     0.64323   0.55297   0.81123   0.00000  Uiso   1.00
C511   C     0.67850   0.45096   0.80842   0.00000  Uiso   1.00
C512   C     0.63119   0.78208   0.78779   0.00000  Uiso   1.00
C513   C     0.61737   0.81719   0.72894   0.00000  Uiso   1.00
C514   C     0.64919   0.86011   0.69921   0.00000  Uiso   1.00
C515   C     0.68790   0.93588   0.63160   0.00000  Uiso   1.00
C516   C     0.60126   0.75747   0.90391   0.00000  Uiso   1.00
C517   C     0.56226   0.77190   0.94269   0.00000  Uiso   1.00
C518   C     0.56888   0.79410   0.01071   0.00000  Uiso   1.00
C519   C     0.56110   0.83166   0.12339   0.00000  Uiso   1.00
C520   C     0.68304   0.74637   0.88042   0.00000  Uiso   1.00
C521   C     0.67301   0.67509   0.85771   0.00000  Uiso   1.00
C522   C     0.70300   0.62171   0.86316   0.00000  Uiso   1.00
C523   C     0.68736   0.56048   0.83943   0.00000  Uiso   1.00
C524   C     0.67524   0.78958   0.81595   0.00000  Uiso   1.00
C525   C     0.70708   0.83246   0.78629   0.00000  Uiso   1.00
C526   C     0.69332   0.86762   0.72741   0.00000  Uiso   1.00
C527   C     0.64530   0.76496   0.93207   0.00000  Uiso   1.00
C528   C     0.65198   0.78716   0.00004   0.00000  Uiso   1.00
C529   C     0.61300   0.80162   0.03892   0.00000  Uiso   1.00
H530   H     0.56766   0.72673   0.80666   0.00000  Uiso   1.00
H531   H     0.57919   0.60065   0.78402   0.00000  Uiso   1.00
H532   H     0.58328   0.81138   0.70717   0.00000  Uiso   1.00
H533   H     0.52818   0.76609   0.92088   0.00000  Uiso   1.00
H534   H     0.61141   0.46419   0.77132   0.00000  Uiso   1.00
H535   H     0.62003   0.90853   0.60928   0.00000  Uiso   1.00
H536   H     0.50384   0.81303   0.05994   0.00000  Uiso   1.00
H537   H     0.71733   0.75220   0.90234   0.00000  Uiso   1.00
H538   H     0.73708   0.62752   0.88496   0.00000  Uiso   1.00
H539   H     0.74116   0.83825   0.80810   0.00000  Uiso   1.00
H540   H     0.68607   0.79296   0.02181   0.00000  Uiso   1.00
H541   H     0.73956   0.48600   0.85323   0.00000  Uiso   1.00
H542   H     0.74817   0.93035   0.69120   0.00000  Uiso   1.00
H543   H     0.63198   0.83484   0.14186   0.00000  Uiso   1.00
O544   O     0.68578   0.39262   0.79909   0.00000  Uiso   1.00
O545   O     0.69708   0.97559   0.58652   0.00000  Uiso   1.00
O546   O     0.54464   0.85029   0.17777   0.00000  Uiso   1.00
N547   N     0.63886   0.48643   0.79299   0.00000  Uiso   1.00
N548   N     0.64691   0.90186   0.64150   0.00000  Uiso   1.00
N549   N     0.53829   0.81259   0.06282   0.00000  Uiso   1.00
N550   N     0.70781   0.49817   0.83708   0.00000  Uiso   1.00
N551   N     0.71587   0.91359   0.68558   0.00000  Uiso   1.00
N552   N     0.60724   0.82432   0.10690   0.00000  Uiso   1.00
C553   C     0.10181   0.23198   0.40185   0.00000  Uiso   1.00
C554   C     0.12894   0.16710   0.40243   0.00000  Uiso   1.00
C555   C     0.11337   0.10603   0.37825   0.00000  Uiso   1.00
C556   C     0.14341   0.05264   0.38335   0.00000  Uiso   1.00
C557   C     0.17884   0.95077   0.37992   0.00000  Uiso   1.00
C558   C     0.13100   0.28185   0.36143   0.00000  Uiso   1.00
C559   C     0.11715   0.31726   0.30280   0.00000  Uiso   1.00
C560   C     0.14892   0.36047   0.27340   0.00000  Uiso   1.00
C561   C     0.18754   0.43678   0.20635   0.00000  Uiso   1.00
C562   C     0.10103   0.25643   0.47734   0.00000  Uiso   1.00
C563   C     0.06199   0.27048   0.51616   0.00000  Uiso   1.00
C564   C     0.06853   0.29231   0.58434   0.00000  Uiso   1.00
C565   C     0.06062   0.32915   0.69726   0.00000  Uiso   1.00
C566   C     0.18285   0.24575   0.45389   0.00000  Uiso   1.00
C567   C     0.17296   0.17459   0.43070   0.00000  Uiso   1.00
C568   C     0.20302   0.12127   0.43584   0.00000  Uiso   1.00
C569   C     0.18750   0.06013   0.41168   0.00000  Uiso   1.00
C570   C     0.17501   0.28933   0.38970   0.00000  Uiso   1.00
C571   C     0.20681   0.33250   0.36038   0.00000  Uiso   1.00
C572   C     0.19302   0.36796   0.30171   0.00000  Uiso   1.00
C573   C     0.14505   0.26391   0.50561   0.00000  Uiso   1.00
C574   C     0.15165   0.28572   0.57374   0.00000  Uiso   1.00
C575   C     0.11262   0.29980   0.61266   0.00000  Uiso   1.00
H576   H     0.06755   0.22616   0.37984   0.00000  Uiso   1.00
H577   H     0.07931   0.10026   0.35637   0.00000  Uiso   1.00
H578   H     0.08309   0.31146   0.28094   0.00000  Uiso   1.00
H579   H     0.02794   0.26469   0.49426   0.00000  Uiso   1.00
H580   H     0.11176   0.96399   0.34281   0.00000  Uiso   1.00
H581   H     0.11973   0.40934   0.18376   0.00000  Uiso   1.00
H582   H     0.00343   0.31071   0.63360   0.00000  Uiso   1.00
H583   H     0.21712   0.25158   0.47590   0.00000  Uiso   1.00
H584   H     0.23708   0.12708   0.45771   0.00000  Uiso   1.00
H585   H     0.24087   0.33828   0.38227   0.00000  Uiso   1.00
H586   H     0.18571   0.29150   0.59560   0.00000  Uiso   1.00
H587   H     0.23982   0.98576   0.42505   0.00000  Uiso   1.00
H588   H     0.24779   0.43110   0.26600   0.00000  Uiso   1.00
H589   H     0.13149   0.33247   0.71585   0.00000  Uiso   1.00
O590   O     0.18623   0.89252   0.37021   0.00000  Uiso   1.00
O591   O     0.19669   0.47680   0.16155   0.00000  Uiso   1.00
O592   O     0.04410   0.34740   0.75173   0.00000  Uiso   1.00
N593   N     0.13915   0.98620   0.36467   0.00000  Uiso   1.00
N594   N     0.14661   0.40256   0.21596   0.00000  Uiso   1.00
N595   N     0.03788   0.31037   0.63652   0.00000  Uiso   1.00
N596   N     0.20806   0.99791   0.40893   0.00000  Uiso   1.00
N597   N     0.21552   0.41427   0.26022   0.00000  Uiso   1.00
N598   N     0.10678   0.32208   0.68078   0.00000  Uiso   1.00
C599   C     0.10195   0.76744   0.17142   0.00000  Uiso   1.00
C600   C     0.12897   0.83241   0.17044   0.00000  Uiso   1.00
C601   C     0.11328   0.89357   0.19419   0.00000  Uiso   1.00
C602   C     0.14323   0.94703   0.18877   0.00000  Uiso   1.00
C603   C     0.17850   0.04904   0.19158   0.00000  Uiso   1.00
C604   C     0.13119   0.71792   0.21221   0.00000  Uiso   1.00
C605   C     0.11737   0.68281   0.27106   0.00000  Uiso   1.00
C606   C     0.14919   0.63989   0.30079   0.00000  Uiso   1.00
C607   C     0.18790   0.56412   0.36840   0.00000  Uiso   1.00
C608   C     0.10126   0.74253   0.09609   0.00000  Uiso   1.00
C609   C     0.06226   0.72810   0.05731   0.00000  Uiso   1.00
C610   C     0.06888   0.70590   0.98929   0.00000  Uiso   1.00
C611   C     0.06110   0.66834   0.87661   0.00000  Uiso   1.00
C612   C     0.18304   0.75363   0.11958   0.00000  Uiso   1.00
C613   C     0.17301   0.82491   0.14229   0.00000  Uiso   1.00
C614   C     0.20300   0.87829   0.13684   0.00000  Uiso   1.00
C615   C     0.18736   0.93952   0.16057   0.00000  Uiso   1.00
C616   C     0.17524   0.71042   0.18405   0.00000  Uiso   1.00
C617   C     0.20708   0.66754   0.21371   0.00000  Uiso   1.00
C618   C     0.19332   0.63238   0.27259   0.00000  Uiso   1.00
C619   C     0.14530   0.73504   0.06793   0.00000  Uiso   1.00
C620   C     0.15198   0.71284   0.99996   0.00000  Uiso   1.00
C621   C     0.11300   0.69838   0.96108   0.00000  Uiso   1.00
H622   H     0.06766   0.77327   0.19334   0.00000  Uiso   1.00
H623   H     0.07919   0.89935   0.21598   0.00000  Uiso   1.00
H624   H     0.08328   0.68862   0.29283   0.00000  Uiso   1.00
H625   H     0.02818   0.73391   0.07912   0.00000  Uiso   1.00
H626   H     0.11141   0.03581   0.22868   0.00000  Uiso   1.00
H627   H     0.12003   0.59147   0.39072   0.00000  Uiso   1.00
H628   H     0.00384   0.68697   0.94006   0.00000  Uiso   1.00
H629   H     0.21733   0.74780   0.09766   0.00000  Uiso   1.00
H630   H     0.23708   0.87248   0.11504   0.00000  Uiso   1.00
H631   H     0.24116   0.66175   0.19190   0.00000  Uiso   1.00
H632   H     0.18607   0.70704   0.97819   0.00000  Uiso   1.00
H633   H     0.23956   0.01400   0.14677   0.00000  Uiso   1.00
H634   H     0.24817   0.56965   0.30880   0.00000  Uiso   1.00
H635   H     0.13198   0.66516   0.85814   0.00000  Uiso   1.00
O636   O     0.18578   0.10738   0.20091   0.00000  Uiso   1.00
O637   O     0.19708   0.52441   0.41348   0.00000  Uiso   1.00
O638   O     0.04464   0.64971   0.82223   0.00000  Uiso   1.00
N639   N     0.13886   0.01357   0.20701   0.00000  Uiso   1.00
N640   N     0.14691   0.59814   0.35850   0.00000  Uiso   1.00
N641   N     0.03829   0.68741   0.93718   0.00000  Uiso   1.00
N642   N     0.20781   0.00183   0.16292   0.00000  Uiso   1.00
N643   N     0.21587   0.58641   0.31442   0.00000  Uiso   1.00
N644   N     0.10724   0.67568   0.89310   0.00000  Uiso   1.00
C645   C     0.39819   0.76802   0.90185   0.00000  Uiso   1.00
C646   C     0.37106   0.83290   0.90243   0.00000  Uiso   1.00
C647   C     0.38663   0.89397   0.87825   0.00000  Uiso   1.00
C648   C     0.35659   0.94736   0.88335   0.00000  Uiso   1.00
C649   C     0.32116   0.04923   0.87992   0.00000  Uiso   1.00
C650   C     0.36900   0.71815   0.86143   0.00000  Uiso   1.00
C651   C     0.38285   0.68274   0.80280   0.00000  Uiso   1.00
C652   C     0.35108   0.63953   0.77340   0.00000  Uiso   1.00
C653   C     0.31246   0.56322   0.70635   0.00000  Uiso   1.00
C654   C     0.39897   0.74357   0.97734   0.00000  Uiso   1.00
C655   C     0.43801   0.72952   0.01616   0.00000  Uiso   1.00
C656   C     0.43147   0.70769   0.08434   0.00000  Uiso   1.00
C657   C     0.43938   0.67085   0.19726   0.00000  Uiso   1.00
C658   C     0.31715   0.75425   0.95389   0.00000  Uiso   1.00
C659   C     0.32704   0.82541   0.93070   0.00000  Uiso   1.00
C660   C     0.29698   0.87873   0.93584   0.00000  Uiso   1.00
C661   C     0.31250   0.93987   0.91168   0.00000  Uiso   1.00
C662   C     0.32499   0.71067   0.88970   0.00000  Uiso   1.00
C663   C     0.29319   0.66750   0.86038   0.00000  Uiso   1.00
C664   C     0.30698   0.63204   0.80171   0.00000  Uiso   1.00
C665   C     0.35495   0.73609   0.00561   0.00000  Uiso   1.00
C666   C     0.34835   0.71428   0.07374   0.00000  Uiso   1.00
C667   C     0.38738   0.70020   0.11266   0.00000  Uiso   1.00
H668   H     0.43245   0.77384   0.87984   0.00000  Uiso   1.00
H669   H     0.42069   0.89974   0.85637   0.00000  Uiso   1.00
H670   H     0.41691   0.68854   0.78094   0.00000  Uiso   1.00
H671   H     0.47206   0.73531   0.99426   0.00000  Uiso   1.00
H672   H     0.38824   0.03601   0.84281   0.00000  Uiso   1.00
H673   H     0.38027   0.59066   0.68376   0.00000  Uiso   1.00
H674   H     0.49657   0.68929   0.13360   0.00000  Uiso   1.00
H675   H     0.28288   0.74842   0.97590   0.00000  Uiso   1.00
H676   H     0.26292   0.87292   0.95771   0.00000  Uiso   1.00
H677   H     0.25913   0.66172   0.88227   0.00000  Uiso   1.00
H678   H     0.31429   0.70850   0.09560   0.00000  Uiso   1.00
H679   H     0.26018   0.01424   0.92505   0.00000  Uiso   1.00
H680   H     0.25221   0.56890   0.76600   0.00000  Uiso   1.00
H681   H     0.36851   0.66753   0.21585   0.00000  Uiso   1.00
O682   O     0.31377   0.10748   0.87021   0.00000  Uiso   1.00
O683   O     0.30331   0.52320   0.66155   0.00000  Uiso   1.00
O684   O     0.45590   0.65260   0.25173   0.00000  Uiso   1.00
N685   N     0.36085   0.01380   0.86467   0.00000  Uiso   1.00
N686   N     0.35339   0.59744   0.71596   0.00000  Uiso   1.00
N687   N     0.46212   0.68963   0.13652   0.00000  Uiso   1.00
N688   N     0.29194   0.00209   0.90893   0.00000  Uiso   1.00
N689   N     0.28448   0.58573   0.76022   0.00000  Uiso   1.00
N690   N     0.39322   0.67792   0.18078   0.00000  Uiso   1.00
C691   C     0.39805   0.23256   0.67142   0.00000  Uiso   1.00
C692   C     0.37103   0.16759   0.67044   0.00000  Uiso   1.00
C693   C     0.38672   0.10643   0.69419   0.00000  Uiso   1.00
C694   C     0.35677   0.05297   0.68877   0.00000  Uiso   1.00
C695   C     0.32150   0.95096   0.69158   0.00000  Uiso   1.00
C696   C     0.36881   0.28208   0.71221   0.00000  Uiso   1.00
C697   C     0.38263   0.31719   0.77106   0.00000  Uiso   1.00
C698   C     0.35081   0.36011   0.80079   0.00000  Uiso   1.00
C699   C     0.31210   0.43588   0.86840   0.00000  Uiso   1.00
C700   C     0.39874   0.25747   0.59609   0.00000  Uiso   1.00
C701   C     0.43774   0.27190   0.55731   0.00000  Uiso   1.00
C702   C     0.43112   0.29410   0.48929   0.00000  Uiso   1.00
C703   C     0.43890   0.33166   0.37661   0.00000  Uiso   1.00
C704   C     0.31696   0.24637   0.61958   0.00000  Uiso   1.00
C705   C     0.32699   0.17509   0.64229   0.00000  Uiso   1.00
C706   C     0.29700   0.12171   0.63684   0.00000  Uiso   1.00
C707   C     0.31264   0.06048   0.66057   0.00000  Uiso   1.00
C708   C     0.32476   0.28958   0.68405   0.00000  Uiso   1.00
C709   C     0.29292   0.33246   0.71371   0.00000  Uiso   1.00
C710   C     0.30668   0.36762   0.77259   0.00000  Uiso   1.00
C711   C     0.35470   0.26496   0.56793   0.00000  Uiso   1.00
C712   C     0.34802   0.28716   0.49996   0.00000  Uiso   1.00
C713   C     0.38700   0.30162   0.46108   0.00000  Uiso   1.00
H714   H     0.43234   0.22673   0.69334   0.00000  Uiso   1.00
H715   H     0.42081   0.10065   0.71598   0.00000  Uiso   1.00
H716   H     0.41672   0.31138   0.79283   0.00000  Uiso   1.00
H717   H     0.47182   0.26609   0.57912   0.00000  Uiso   1.00
H718   H     0.38859   0.96419   0.72868   0.00000  Uiso   1.00
H719   H     0.37997   0.40853   0.89072   0.00000  Uiso   1.00
H720   H     0.49616   0.31303   0.44006   0.00000  Uiso   1.00
H721   H     0.28267   0.25220   0.59766   0.00000  Uiso   1.00
H722   H     0.26292   0.12752   0.61504   0.00000  Uiso   1.00
H723   H     0.25884   0.33825   0.69190   0.00000  Uiso   1.00
H724   H     0.31393   0.29296   0.47819   0.00000  Uiso   1.00
H725   H     0.26044   0.98600   0.64677   0.00000  Uiso   1.00
H726   H     0.25183   0.43035   0.80880   0.00000  Uiso   1.00
H727   H     0.36802   0.33484   0.35814   0.00000  Uiso   1.00
O728   O     0.31422   0.89262   0.70091   0.00000  Uiso   1.00
O729   O     0.30292   0.47559   0.91348   0.00000  Uiso   1.00
O730   O     0.45536   0.35029   0.32223   0.00000  Uiso   1.00
N731   N     0.36114   0.98643   0.70701   0.00000  Uiso   1.00
N732   N     0.35309   0.40186   0.85850   0.00000  Uiso   1.00
N733   N     0.46171   0.31259   0.43718   0.00000  Uiso   1.00
N734   N     0.29219   0.99817   0.66292   0.00000  Uiso   1.00
N735   N     0.28413   0.41359   0.81442   0.00000  Uiso   1.00
N736   N     0.39276   0.32432   0.39310   0.00000  Uiso   1.00
