data_job_03923
_audit_creation_date              2018-12-19
_audit_creation_method            'Materials Studio'
_symmetry_space_group_name_H-M    'P1'
_symmetry_Int_Tables_number       1
_symmetry_cell_setting            triclinic
loop_
_symmetry_equiv_pos_as_xyz
  x,y,z
_cell_length_a                    63.8913
_cell_length_b                    21.0080
_cell_length_c                    12.4633
_cell_angle_alpha                 90.0000
_cell_angle_beta                  90.0000
_cell_angle_gamma                 90.0000
loop_
_atom_site_label
_atom_site_type_symbol
_atom_site_fract_x
_atom_site_fract_y
_atom_site_fract_z
_atom_site_U_iso_or_equiv
_atom_site_adp_type
_atom_site_occupancy
C1     C     0.31247   0.98558   0.70333   0.00000  Uiso   1.00
C2     C     0.32995   0.98099   0.78629   0.00000  Uiso   1.00
C3     C     0.32893   0.94803   0.88265   0.00000  Uiso   1.00
C4     C     0.34659   0.94962   0.94752   0.00000  Uiso   1.00
C5     C     0.37098   0.93744   0.08101   0.00000  Uiso   1.00
C6     C     0.30844   0.05647   0.68698   0.00000  Uiso   1.00
C7     C     0.28933   0.08696   0.69981   0.00000  Uiso   1.00
C8     C     0.28888   0.15210   0.68107   0.00000  Uiso   1.00
C9     C     0.27987   0.25708   0.66029   0.00000  Uiso   1.00
C10    C     0.32176   0.96141   0.59825   0.00000  Uiso   1.00
C11    C     0.31385   0.91200   0.53645   0.00000  Uiso   1.00
C12    C     0.32462   0.89711   0.44298   0.00000  Uiso   1.00
C13    C     0.33630   0.85452   0.28444   0.00000  Uiso   1.00
C14    C     0.34564   0.04703   0.64719   0.00000  Uiso   1.00
C15    C     0.34797   0.01437   0.75580   0.00000  Uiso   1.00
C16    C     0.36563   0.01601   0.82054   0.00000  Uiso   1.00
C17    C     0.36464   0.98306   0.91697   0.00000  Uiso   1.00
C18    C     0.32645   0.08985   0.65649   0.00000  Uiso   1.00
C19    C     0.32603   0.15495   0.63771   0.00000  Uiso   1.00
C20    C     0.30693   0.18553   0.65052   0.00000  Uiso   1.00
C21    C     0.33978   0.99479   0.56775   0.00000  Uiso   1.00
C22    C     0.35055   0.97998   0.47435   0.00000  Uiso   1.00
C23    C     0.34267   0.93055   0.41244   0.00000  Uiso   1.00
H24    H     0.29844   0.95960   0.72706   0.00000  Uiso   1.00
H25    H     0.31498   0.92221   0.90622   0.00000  Uiso   1.00
H26    H     0.27539   0.06112   0.72340   0.00000  Uiso   1.00
H27    H     0.29991   0.88618   0.56007   0.00000  Uiso   1.00
H28    H     0.34126   0.89548   0.09142   0.00000  Uiso   1.00
H29    H     0.25778   0.18838   0.70590   0.00000  Uiso   1.00
H30    H     0.30948   0.81949   0.36149   0.00000  Uiso   1.00
H31    H     0.35967   0.07302   0.62345   0.00000  Uiso   1.00
H32    H     0.37957   0.04185   0.79693   0.00000  Uiso   1.00
H33    H     0.33998   0.18076   0.61411   0.00000  Uiso   1.00
H34    H     0.36450   0.00582   0.45078   0.00000  Uiso   1.00
H35    H     0.39368   0.99259   0.00271   0.00000  Uiso   1.00
H36    H     0.31020   0.28549   0.61720   0.00000  Uiso   1.00
H37    H     0.36190   0.91660   0.27279   0.00000  Uiso   1.00
O38    O     0.37946   0.92150   0.16307   0.00000  Uiso   1.00
O39    O     0.26993   0.30577   0.65727   0.00000  Uiso   1.00
O40    O     0.33776   0.82179   0.20541   0.00000  Uiso   1.00
N41    N     0.35087   0.92261   0.04672   0.00000  Uiso   1.00
N42    N     0.27282   0.19645   0.68631   0.00000  Uiso   1.00
N43    N     0.32115   0.85158   0.36430   0.00000  Uiso   1.00
N44    N     0.37908   0.97486   0.99899   0.00000  Uiso   1.00
N45    N     0.30103   0.24870   0.63858   0.00000  Uiso   1.00
N46    N     0.34936   0.90383   0.31657   0.00000  Uiso   1.00
C47    C     0.31247   0.48558   0.20333   0.00000  Uiso   1.00
C48    C     0.32995   0.48099   0.28629   0.00000  Uiso   1.00
C49    C     0.32893   0.44803   0.38265   0.00000  Uiso   1.00
C50    C     0.34659   0.44962   0.44752   0.00000  Uiso   1.00
C51    C     0.37098   0.43744   0.58101   0.00000  Uiso   1.00
C52    C     0.30844   0.55647   0.18698   0.00000  Uiso   1.00
C53    C     0.28933   0.58696   0.19981   0.00000  Uiso   1.00
C54    C     0.28888   0.65210   0.18107   0.00000  Uiso   1.00
C55    C     0.27987   0.75708   0.16029   0.00000  Uiso   1.00
C56    C     0.32176   0.46141   0.09825   0.00000  Uiso   1.00
C57    C     0.31385   0.41200   0.03645   0.00000  Uiso   1.00
C58    C     0.32462   0.39711   0.94298   0.00000  Uiso   1.00
C59    C     0.33630   0.35452   0.78444   0.00000  Uiso   1.00
C60    C     0.34564   0.54703   0.14719   0.00000  Uiso   1.00
C61    C     0.34797   0.51437   0.25580   0.00000  Uiso   1.00
C62    C     0.36563   0.51601   0.32054   0.00000  Uiso   1.00
C63    C     0.36464   0.48306   0.41697   0.00000  Uiso   1.00
C64    C     0.32645   0.58985   0.15649   0.00000  Uiso   1.00
C65    C     0.32603   0.65495   0.13771   0.00000  Uiso   1.00
C66    C     0.30693   0.68553   0.15052   0.00000  Uiso   1.00
C67    C     0.33978   0.49479   0.06775   0.00000  Uiso   1.00
C68    C     0.35055   0.47998   0.97435   0.00000  Uiso   1.00
C69    C     0.34267   0.43055   0.91244   0.00000  Uiso   1.00
H70    H     0.29844   0.45960   0.22706   0.00000  Uiso   1.00
H71    H     0.31498   0.42221   0.40622   0.00000  Uiso   1.00
H72    H     0.27539   0.56112   0.22340   0.00000  Uiso   1.00
H73    H     0.29991   0.38618   0.06007   0.00000  Uiso   1.00
H74    H     0.34126   0.39548   0.59142   0.00000  Uiso   1.00
H75    H     0.25778   0.68838   0.20590   0.00000  Uiso   1.00
H76    H     0.30948   0.31949   0.86149   0.00000  Uiso   1.00
H77    H     0.35967   0.57302   0.12345   0.00000  Uiso   1.00
H78    H     0.37957   0.54185   0.29693   0.00000  Uiso   1.00
H79    H     0.33998   0.68076   0.11411   0.00000  Uiso   1.00
H80    H     0.36450   0.50582   0.95078   0.00000  Uiso   1.00
H81    H     0.39368   0.49259   0.50271   0.00000  Uiso   1.00
H82    H     0.31020   0.78549   0.11720   0.00000  Uiso   1.00
H83    H     0.36190   0.41660   0.77279   0.00000  Uiso   1.00
O84    O     0.37946   0.42150   0.66307   0.00000  Uiso   1.00
O85    O     0.26993   0.80577   0.15727   0.00000  Uiso   1.00
O86    O     0.33776   0.32179   0.70541   0.00000  Uiso   1.00
N87    N     0.35087   0.42261   0.54672   0.00000  Uiso   1.00
N88    N     0.27282   0.69645   0.18631   0.00000  Uiso   1.00
N89    N     0.32115   0.35158   0.86430   0.00000  Uiso   1.00
N90    N     0.37908   0.47486   0.49899   0.00000  Uiso   1.00
N91    N     0.30103   0.74870   0.13858   0.00000  Uiso   1.00
N92    N     0.34936   0.40383   0.81657   0.00000  Uiso   1.00
C93    C     0.81247   0.98558   0.20333   0.00000  Uiso   1.00
C94    C     0.82995   0.98099   0.28629   0.00000  Uiso   1.00
C95    C     0.82893   0.94803   0.38265   0.00000  Uiso   1.00
C96    C     0.84659   0.94962   0.44752   0.00000  Uiso   1.00
C97    C     0.87098   0.93744   0.58101   0.00000  Uiso   1.00
C98    C     0.80844   0.05647   0.18698   0.00000  Uiso   1.00
C99    C     0.78933   0.08696   0.19981   0.00000  Uiso   1.00
C100   C     0.78888   0.15210   0.18107   0.00000  Uiso   1.00
C101   C     0.77987   0.25708   0.16029   0.00000  Uiso   1.00
C102   C     0.82176   0.96141   0.09825   0.00000  Uiso   1.00
C103   C     0.81385   0.91200   0.03645   0.00000  Uiso   1.00
C104   C     0.82462   0.89711   0.94298   0.00000  Uiso   1.00
C105   C     0.83630   0.85452   0.78444   0.00000  Uiso   1.00
C106   C     0.84564   0.04703   0.14719   0.00000  Uiso   1.00
C107   C     0.84797   0.01437   0.25580   0.00000  Uiso   1.00
C108   C     0.86563   0.01601   0.32054   0.00000  Uiso   1.00
C109   C     0.86464   0.98306   0.41697   0.00000  Uiso   1.00
C110   C     0.82645   0.08985   0.15649   0.00000  Uiso   1.00
C111   C     0.82603   0.15495   0.13771   0.00000  Uiso   1.00
C112   C     0.80693   0.18553   0.15052   0.00000  Uiso   1.00
C113   C     0.83978   0.99479   0.06775   0.00000  Uiso   1.00
C114   C     0.85055   0.97998   0.97435   0.00000  Uiso   1.00
C115   C     0.84267   0.93055   0.91244   0.00000  Uiso   1.00
H116   H     0.79844   0.95960   0.22706   0.00000  Uiso   1.00
H117   H     0.81498   0.92221   0.40622   0.00000  Uiso   1.00
H118   H     0.77539   0.06112   0.22340   0.00000  Uiso   1.00
H119   H     0.79991   0.88618   0.06007   0.00000  Uiso   1.00
H120   H     0.84126   0.89548   0.59142   0.00000  Uiso   1.00
H121   H     0.75778   0.18838   0.20590   0.00000  Uiso   1.00
H122   H     0.80948   0.81949   0.86149   0.00000  Uiso   1.00
H123   H     0.85967   0.07302   0.12345   0.00000  Uiso   1.00
H124   H     0.87957   0.04185   0.29693   0.00000  Uiso   1.00
H125   H     0.83998   0.18076   0.11411   0.00000  Uiso   1.00
H126   H     0.86450   0.00582   0.95078   0.00000  Uiso   1.00
H127   H     0.89368   0.99259   0.50271   0.00000  Uiso   1.00
H128   H     0.81020   0.28549   0.11720   0.00000  Uiso   1.00
H129   H     0.86190   0.91660   0.77279   0.00000  Uiso   1.00
O130   O     0.87946   0.92150   0.66307   0.00000  Uiso   1.00
O131   O     0.76993   0.30577   0.15727   0.00000  Uiso   1.00
O132   O     0.83776   0.82179   0.70541   0.00000  Uiso   1.00
N133   N     0.85087   0.92261   0.54672   0.00000  Uiso   1.00
N134   N     0.77282   0.19645   0.18631   0.00000  Uiso   1.00
N135   N     0.82115   0.85158   0.86430   0.00000  Uiso   1.00
N136   N     0.87908   0.97486   0.49899   0.00000  Uiso   1.00
N137   N     0.80103   0.24870   0.13858   0.00000  Uiso   1.00
N138   N     0.84936   0.90383   0.81657   0.00000  Uiso   1.00
C139   C     0.81247   0.48558   0.70333   0.00000  Uiso   1.00
C140   C     0.82995   0.48099   0.78629   0.00000  Uiso   1.00
C141   C     0.82893   0.44803   0.88265   0.00000  Uiso   1.00
C142   C     0.84659   0.44962   0.94752   0.00000  Uiso   1.00
C143   C     0.87098   0.43744   0.08101   0.00000  Uiso   1.00
C144   C     0.80844   0.55647   0.68698   0.00000  Uiso   1.00
C145   C     0.78933   0.58696   0.69981   0.00000  Uiso   1.00
C146   C     0.78888   0.65210   0.68107   0.00000  Uiso   1.00
C147   C     0.77987   0.75708   0.66029   0.00000  Uiso   1.00
C148   C     0.82176   0.46141   0.59825   0.00000  Uiso   1.00
C149   C     0.81385   0.41200   0.53645   0.00000  Uiso   1.00
C150   C     0.82462   0.39711   0.44298   0.00000  Uiso   1.00
C151   C     0.83630   0.35452   0.28444   0.00000  Uiso   1.00
C152   C     0.84564   0.54703   0.64719   0.00000  Uiso   1.00
C153   C     0.84797   0.51437   0.75580   0.00000  Uiso   1.00
C154   C     0.86563   0.51601   0.82054   0.00000  Uiso   1.00
C155   C     0.86464   0.48306   0.91697   0.00000  Uiso   1.00
C156   C     0.82645   0.58985   0.65649   0.00000  Uiso   1.00
C157   C     0.82603   0.65495   0.63771   0.00000  Uiso   1.00
C158   C     0.80693   0.68553   0.65052   0.00000  Uiso   1.00
C159   C     0.83978   0.49479   0.56775   0.00000  Uiso   1.00
C160   C     0.85055   0.47998   0.47435   0.00000  Uiso   1.00
C161   C     0.84267   0.43055   0.41244   0.00000  Uiso   1.00
H162   H     0.79844   0.45960   0.72706   0.00000  Uiso   1.00
H163   H     0.81498   0.42221   0.90622   0.00000  Uiso   1.00
H164   H     0.77539   0.56112   0.72340   0.00000  Uiso   1.00
H165   H     0.79991   0.38618   0.56007   0.00000  Uiso   1.00
H166   H     0.84126   0.39548   0.09142   0.00000  Uiso   1.00
H167   H     0.75778   0.68838   0.70590   0.00000  Uiso   1.00
H168   H     0.80948   0.31949   0.36149   0.00000  Uiso   1.00
H169   H     0.85967   0.57302   0.62345   0.00000  Uiso   1.00
H170   H     0.87957   0.54185   0.79693   0.00000  Uiso   1.00
H171   H     0.83998   0.68076   0.61411   0.00000  Uiso   1.00
H172   H     0.86450   0.50582   0.45078   0.00000  Uiso   1.00
H173   H     0.89368   0.49259   0.00271   0.00000  Uiso   1.00
H174   H     0.81020   0.78549   0.61720   0.00000  Uiso   1.00
H175   H     0.86190   0.41660   0.27279   0.00000  Uiso   1.00
O176   O     0.87946   0.42150   0.16307   0.00000  Uiso   1.00
O177   O     0.76993   0.80577   0.65727   0.00000  Uiso   1.00
O178   O     0.83776   0.32179   0.20541   0.00000  Uiso   1.00
N179   N     0.85087   0.42261   0.04672   0.00000  Uiso   1.00
N180   N     0.77282   0.69645   0.68631   0.00000  Uiso   1.00
N181   N     0.82115   0.35158   0.36430   0.00000  Uiso   1.00
N182   N     0.87908   0.47486   0.99899   0.00000  Uiso   1.00
N183   N     0.80103   0.74870   0.63858   0.00000  Uiso   1.00
N184   N     0.84936   0.40383   0.31657   0.00000  Uiso   1.00
C185   C     0.68753   0.01442   0.70333   0.00000  Uiso   1.00
C186   C     0.67005   0.01901   0.78629   0.00000  Uiso   1.00
C187   C     0.67107   0.05197   0.88265   0.00000  Uiso   1.00
C188   C     0.65341   0.05038   0.94752   0.00000  Uiso   1.00
C189   C     0.62902   0.06256   0.08101   0.00000  Uiso   1.00
C190   C     0.69156   0.94353   0.68698   0.00000  Uiso   1.00
C191   C     0.71067   0.91304   0.69981   0.00000  Uiso   1.00
C192   C     0.71112   0.84790   0.68107   0.00000  Uiso   1.00
C193   C     0.72013   0.74292   0.66029   0.00000  Uiso   1.00
C194   C     0.67824   0.03859   0.59825   0.00000  Uiso   1.00
C195   C     0.68615   0.08800   0.53645   0.00000  Uiso   1.00
C196   C     0.67538   0.10289   0.44298   0.00000  Uiso   1.00
C197   C     0.66370   0.14548   0.28444   0.00000  Uiso   1.00
C198   C     0.65436   0.95297   0.64719   0.00000  Uiso   1.00
C199   C     0.65203   0.98563   0.75580   0.00000  Uiso   1.00
C200   C     0.63437   0.98399   0.82054   0.00000  Uiso   1.00
C201   C     0.63536   0.01694   0.91697   0.00000  Uiso   1.00
C202   C     0.67355   0.91015   0.65649   0.00000  Uiso   1.00
C203   C     0.67397   0.84505   0.63771   0.00000  Uiso   1.00
C204   C     0.69307   0.81447   0.65052   0.00000  Uiso   1.00
C205   C     0.66022   0.00521   0.56775   0.00000  Uiso   1.00
C206   C     0.64945   0.02002   0.47435   0.00000  Uiso   1.00
C207   C     0.65733   0.06945   0.41244   0.00000  Uiso   1.00
H208   H     0.70156   0.04040   0.72706   0.00000  Uiso   1.00
H209   H     0.68502   0.07779   0.90622   0.00000  Uiso   1.00
H210   H     0.72461   0.93888   0.72340   0.00000  Uiso   1.00
H211   H     0.70009   0.11382   0.56007   0.00000  Uiso   1.00
H212   H     0.65874   0.10452   0.09142   0.00000  Uiso   1.00
H213   H     0.74222   0.81162   0.70590   0.00000  Uiso   1.00
H214   H     0.69052   0.18051   0.36149   0.00000  Uiso   1.00
H215   H     0.64033   0.92698   0.62345   0.00000  Uiso   1.00
H216   H     0.62043   0.95815   0.79693   0.00000  Uiso   1.00
H217   H     0.66002   0.81924   0.61411   0.00000  Uiso   1.00
H218   H     0.63550   0.99418   0.45078   0.00000  Uiso   1.00
H219   H     0.60632   0.00741   0.00271   0.00000  Uiso   1.00
H220   H     0.68980   0.71451   0.61720   0.00000  Uiso   1.00
H221   H     0.63810   0.08340   0.27279   0.00000  Uiso   1.00
O222   O     0.62054   0.07850   0.16307   0.00000  Uiso   1.00
O223   O     0.73007   0.69423   0.65727   0.00000  Uiso   1.00
O224   O     0.66224   0.17821   0.20541   0.00000  Uiso   1.00
N225   N     0.64913   0.07739   0.04672   0.00000  Uiso   1.00
N226   N     0.72718   0.80355   0.68631   0.00000  Uiso   1.00
N227   N     0.67885   0.14842   0.36430   0.00000  Uiso   1.00
N228   N     0.62092   0.02514   0.99899   0.00000  Uiso   1.00
N229   N     0.69897   0.75130   0.63858   0.00000  Uiso   1.00
N230   N     0.65064   0.09617   0.31657   0.00000  Uiso   1.00
C231   C     0.68753   0.51442   0.20333   0.00000  Uiso   1.00
C232   C     0.67005   0.51901   0.28629   0.00000  Uiso   1.00
C233   C     0.67107   0.55197   0.38265   0.00000  Uiso   1.00
C234   C     0.65341   0.55038   0.44752   0.00000  Uiso   1.00
C235   C     0.62902   0.56256   0.58101   0.00000  Uiso   1.00
C236   C     0.69156   0.44353   0.18698   0.00000  Uiso   1.00
C237   C     0.71067   0.41304   0.19981   0.00000  Uiso   1.00
C238   C     0.71112   0.34790   0.18107   0.00000  Uiso   1.00
C239   C     0.72013   0.24292   0.16029   0.00000  Uiso   1.00
C240   C     0.67824   0.53859   0.09825   0.00000  Uiso   1.00
C241   C     0.68615   0.58800   0.03645   0.00000  Uiso   1.00
C242   C     0.67538   0.60289   0.94298   0.00000  Uiso   1.00
C243   C     0.66370   0.64548   0.78444   0.00000  Uiso   1.00
C244   C     0.65436   0.45297   0.14719   0.00000  Uiso   1.00
C245   C     0.65203   0.48563   0.25580   0.00000  Uiso   1.00
C246   C     0.63437   0.48399   0.32054   0.00000  Uiso   1.00
C247   C     0.63536   0.51694   0.41697   0.00000  Uiso   1.00
C248   C     0.67355   0.41015   0.15649   0.00000  Uiso   1.00
C249   C     0.67397   0.34505   0.13771   0.00000  Uiso   1.00
C250   C     0.69307   0.31447   0.15052   0.00000  Uiso   1.00
C251   C     0.66022   0.50521   0.06775   0.00000  Uiso   1.00
C252   C     0.64945   0.52002   0.97435   0.00000  Uiso   1.00
C253   C     0.65733   0.56945   0.91244   0.00000  Uiso   1.00
H254   H     0.70156   0.54040   0.22706   0.00000  Uiso   1.00
H255   H     0.68502   0.57779   0.40622   0.00000  Uiso   1.00
H256   H     0.72461   0.43888   0.22340   0.00000  Uiso   1.00
H257   H     0.70009   0.61382   0.06007   0.00000  Uiso   1.00
H258   H     0.65874   0.60452   0.59142   0.00000  Uiso   1.00
H259   H     0.74222   0.31162   0.20590   0.00000  Uiso   1.00
H260   H     0.69052   0.68051   0.86149   0.00000  Uiso   1.00
H261   H     0.64033   0.42698   0.12345   0.00000  Uiso   1.00
H262   H     0.62043   0.45815   0.29693   0.00000  Uiso   1.00
H263   H     0.66002   0.31924   0.11411   0.00000  Uiso   1.00
H264   H     0.63550   0.49418   0.95078   0.00000  Uiso   1.00
H265   H     0.60632   0.50741   0.50271   0.00000  Uiso   1.00
H266   H     0.68980   0.21451   0.11720   0.00000  Uiso   1.00
H267   H     0.63810   0.58340   0.77279   0.00000  Uiso   1.00
O268   O     0.62054   0.57850   0.66307   0.00000  Uiso   1.00
O269   O     0.73007   0.19423   0.15727   0.00000  Uiso   1.00
O270   O     0.66224   0.67821   0.70541   0.00000  Uiso   1.00
N271   N     0.64913   0.57739   0.54672   0.00000  Uiso   1.00
N272   N     0.72718   0.30355   0.18631   0.00000  Uiso   1.00
N273   N     0.67885   0.64842   0.86430   0.00000  Uiso   1.00
N274   N     0.62092   0.52514   0.49899   0.00000  Uiso   1.00
N275   N     0.69897   0.25130   0.13858   0.00000  Uiso   1.00
N276   N     0.65064   0.59617   0.81657   0.00000  Uiso   1.00
C277   C     0.18753   0.01442   0.20333   0.00000  Uiso   1.00
C278   C     0.17005   0.01901   0.28629   0.00000  Uiso   1.00
C279   C     0.17107   0.05197   0.38265   0.00000  Uiso   1.00
C280   C     0.15341   0.05038   0.44752   0.00000  Uiso   1.00
C281   C     0.12902   0.06256   0.58101   0.00000  Uiso   1.00
C282   C     0.19156   0.94353   0.18698   0.00000  Uiso   1.00
C283   C     0.21067   0.91304   0.19981   0.00000  Uiso   1.00
C284   C     0.21112   0.84790   0.18107   0.00000  Uiso   1.00
C285   C     0.22013   0.74292   0.16029   0.00000  Uiso   1.00
C286   C     0.17824   0.03859   0.09825   0.00000  Uiso   1.00
C287   C     0.18615   0.08800   0.03645   0.00000  Uiso   1.00
C288   C     0.17538   0.10289   0.94298   0.00000  Uiso   1.00
C289   C     0.16370   0.14548   0.78444   0.00000  Uiso   1.00
C290   C     0.15436   0.95297   0.14719   0.00000  Uiso   1.00
C291   C     0.15203   0.98563   0.25580   0.00000  Uiso   1.00
C292   C     0.13437   0.98399   0.32054   0.00000  Uiso   1.00
C293   C     0.13536   0.01694   0.41697   0.00000  Uiso   1.00
C294   C     0.17355   0.91015   0.15649   0.00000  Uiso   1.00
C295   C     0.17397   0.84505   0.13771   0.00000  Uiso   1.00
C296   C     0.19307   0.81447   0.15052   0.00000  Uiso   1.00
C297   C     0.16022   0.00521   0.06775   0.00000  Uiso   1.00
C298   C     0.14945   0.02002   0.97435   0.00000  Uiso   1.00
C299   C     0.15733   0.06945   0.91244   0.00000  Uiso   1.00
H300   H     0.20156   0.04040   0.22706   0.00000  Uiso   1.00
H301   H     0.18502   0.07779   0.40622   0.00000  Uiso   1.00
H302   H     0.22461   0.93888   0.22340   0.00000  Uiso   1.00
H303   H     0.20009   0.11382   0.06007   0.00000  Uiso   1.00
H304   H     0.15874   0.10452   0.59142   0.00000  Uiso   1.00
H305   H     0.24222   0.81162   0.20590   0.00000  Uiso   1.00
H306   H     0.19052   0.18051   0.86149   0.00000  Uiso   1.00
H307   H     0.14033   0.92698   0.12345   0.00000  Uiso   1.00
H308   H     0.12043   0.95815   0.29693   0.00000  Uiso   1.00
H309   H     0.16002   0.81924   0.11411   0.00000  Uiso   1.00
H310   H     0.13550   0.99418   0.95078   0.00000  Uiso   1.00
H311   H     0.10632   0.00741   0.50271   0.00000  Uiso   1.00
H312   H     0.18980   0.71451   0.11720   0.00000  Uiso   1.00
H313   H     0.13810   0.08340   0.77279   0.00000  Uiso   1.00
O314   O     0.12054   0.07850   0.66307   0.00000  Uiso   1.00
O315   O     0.23007   0.69423   0.15727   0.00000  Uiso   1.00
O316   O     0.16224   0.17821   0.70541   0.00000  Uiso   1.00
N317   N     0.14913   0.07739   0.54672   0.00000  Uiso   1.00
N318   N     0.22718   0.80355   0.18631   0.00000  Uiso   1.00
N319   N     0.17885   0.14842   0.86430   0.00000  Uiso   1.00
N320   N     0.12092   0.02514   0.49899   0.00000  Uiso   1.00
N321   N     0.19897   0.75130   0.13858   0.00000  Uiso   1.00
N322   N     0.15064   0.09617   0.81657   0.00000  Uiso   1.00
C323   C     0.18753   0.51442   0.70333   0.00000  Uiso   1.00
C324   C     0.17005   0.51901   0.78629   0.00000  Uiso   1.00
C325   C     0.17107   0.55197   0.88265   0.00000  Uiso   1.00
C326   C     0.15341   0.55038   0.94752   0.00000  Uiso   1.00
C327   C     0.12902   0.56256   0.08101   0.00000  Uiso   1.00
C328   C     0.19156   0.44353   0.68698   0.00000  Uiso   1.00
C329   C     0.21067   0.41304   0.69981   0.00000  Uiso   1.00
C330   C     0.21112   0.34790   0.68107   0.00000  Uiso   1.00
C331   C     0.22013   0.24292   0.66029   0.00000  Uiso   1.00
C332   C     0.17824   0.53859   0.59825   0.00000  Uiso   1.00
C333   C     0.18615   0.58800   0.53645   0.00000  Uiso   1.00
C334   C     0.17538   0.60289   0.44298   0.00000  Uiso   1.00
C335   C     0.16370   0.64548   0.28444   0.00000  Uiso   1.00
C336   C     0.15436   0.45297   0.64719   0.00000  Uiso   1.00
C337   C     0.15203   0.48563   0.75580   0.00000  Uiso   1.00
C338   C     0.13437   0.48399   0.82054   0.00000  Uiso   1.00
C339   C     0.13536   0.51694   0.91697   0.00000  Uiso   1.00
C340   C     0.17355   0.41015   0.65649   0.00000  Uiso   1.00
C341   C     0.17397   0.34505   0.63771   0.00000  Uiso   1.00
C342   C     0.19307   0.31447   0.65052   0.00000  Uiso   1.00
C343   C     0.16022   0.50521   0.56775   0.00000  Uiso   1.00
C344   C     0.14945   0.52002   0.47435   0.00000  Uiso   1.00
C345   C     0.15733   0.56945   0.41244   0.00000  Uiso   1.00
H346   H     0.20156   0.54040   0.72706   0.00000  Uiso   1.00
H347   H     0.18502   0.57779   0.90622   0.00000  Uiso   1.00
H348   H     0.22461   0.43888   0.72340   0.00000  Uiso   1.00
H349   H     0.20009   0.61382   0.56007   0.00000  Uiso   1.00
H350   H     0.15874   0.60452   0.09142   0.00000  Uiso   1.00
H351   H     0.24222   0.31162   0.70590   0.00000  Uiso   1.00
H352   H     0.19052   0.68051   0.36149   0.00000  Uiso   1.00
H353   H     0.14033   0.42698   0.62345   0.00000  Uiso   1.00
H354   H     0.12043   0.45815   0.79693   0.00000  Uiso   1.00
H355   H     0.16002   0.31924   0.61411   0.00000  Uiso   1.00
H356   H     0.13550   0.49418   0.45078   0.00000  Uiso   1.00
H357   H     0.10632   0.50741   0.00271   0.00000  Uiso   1.00
H358   H     0.18980   0.21451   0.61720   0.00000  Uiso   1.00
H359   H     0.13810   0.58340   0.27279   0.00000  Uiso   1.00
O360   O     0.12054   0.57850   0.16307   0.00000  Uiso   1.00
O361   O     0.23007   0.19423   0.65727   0.00000  Uiso   1.00
O362   O     0.16224   0.67821   0.20541   0.00000  Uiso   1.00
N363   N     0.14913   0.57739   0.04672   0.00000  Uiso   1.00
N364   N     0.22718   0.30355   0.68631   0.00000  Uiso   1.00
N365   N     0.17885   0.64842   0.36430   0.00000  Uiso   1.00
N366   N     0.12092   0.52514   0.99899   0.00000  Uiso   1.00
N367   N     0.19897   0.25130   0.63858   0.00000  Uiso   1.00
N368   N     0.15064   0.59617   0.31657   0.00000  Uiso   1.00
C369   C     0.56247   0.26442   0.95333   0.00000  Uiso   1.00
C370   C     0.57995   0.26901   0.03629   0.00000  Uiso   1.00
C371   C     0.57893   0.30197   0.13265   0.00000  Uiso   1.00
C372   C     0.59659   0.30038   0.19752   0.00000  Uiso   1.00
C373   C     0.62098   0.31256   0.33101   0.00000  Uiso   1.00
C374   C     0.55844   0.19353   0.93698   0.00000  Uiso   1.00
C375   C     0.53933   0.16304   0.94981   0.00000  Uiso   1.00
C376   C     0.53888   0.09790   0.93107   0.00000  Uiso   1.00
C377   C     0.52987   0.99292   0.91029   0.00000  Uiso   1.00
C378   C     0.57176   0.28859   0.84825   0.00000  Uiso   1.00
C379   C     0.56385   0.33800   0.78645   0.00000  Uiso   1.00
C380   C     0.57462   0.35289   0.69298   0.00000  Uiso   1.00
C381   C     0.58630   0.39548   0.53444   0.00000  Uiso   1.00
C382   C     0.59564   0.20297   0.89719   0.00000  Uiso   1.00
C383   C     0.59797   0.23563   0.00580   0.00000  Uiso   1.00
C384   C     0.61563   0.23399   0.07054   0.00000  Uiso   1.00
C385   C     0.61464   0.26694   0.16697   0.00000  Uiso   1.00
C386   C     0.57645   0.16015   0.90649   0.00000  Uiso   1.00
C387   C     0.57603   0.09505   0.88771   0.00000  Uiso   1.00
C388   C     0.55693   0.06447   0.90052   0.00000  Uiso   1.00
C389   C     0.58978   0.25521   0.81775   0.00000  Uiso   1.00
C390   C     0.60055   0.27002   0.72435   0.00000  Uiso   1.00
C391   C     0.59267   0.31945   0.66244   0.00000  Uiso   1.00
H392   H     0.54844   0.29040   0.97706   0.00000  Uiso   1.00
H393   H     0.56498   0.32779   0.15622   0.00000  Uiso   1.00
H394   H     0.52539   0.18888   0.97340   0.00000  Uiso   1.00
H395   H     0.54991   0.36382   0.81007   0.00000  Uiso   1.00
H396   H     0.59126   0.35452   0.34142   0.00000  Uiso   1.00
H397   H     0.50778   0.06162   0.95590   0.00000  Uiso   1.00
H398   H     0.55948   0.43051   0.61149   0.00000  Uiso   1.00
H399   H     0.60967   0.17698   0.87345   0.00000  Uiso   1.00
H400   H     0.62957   0.20815   0.04693   0.00000  Uiso   1.00
H401   H     0.58998   0.06924   0.86411   0.00000  Uiso   1.00
H402   H     0.61450   0.24418   0.70078   0.00000  Uiso   1.00
H403   H     0.64368   0.25741   0.25271   0.00000  Uiso   1.00
H404   H     0.56020   0.96451   0.86720   0.00000  Uiso   1.00
H405   H     0.61190   0.33340   0.52279   0.00000  Uiso   1.00
O406   O     0.62946   0.32850   0.41307   0.00000  Uiso   1.00
O407   O     0.51993   0.94423   0.90727   0.00000  Uiso   1.00
O408   O     0.58776   0.42821   0.45541   0.00000  Uiso   1.00
N409   N     0.60087   0.32739   0.29672   0.00000  Uiso   1.00
N410   N     0.52282   0.05355   0.93631   0.00000  Uiso   1.00
N411   N     0.57115   0.39842   0.61430   0.00000  Uiso   1.00
N412   N     0.62908   0.27514   0.24899   0.00000  Uiso   1.00
N413   N     0.55103   0.00130   0.88858   0.00000  Uiso   1.00
N414   N     0.59936   0.34617   0.56657   0.00000  Uiso   1.00
C415   C     0.56247   0.76442   0.45333   0.00000  Uiso   1.00
C416   C     0.57995   0.76901   0.53629   0.00000  Uiso   1.00
C417   C     0.57893   0.80197   0.63265   0.00000  Uiso   1.00
C418   C     0.59659   0.80038   0.69752   0.00000  Uiso   1.00
C419   C     0.62098   0.81256   0.83101   0.00000  Uiso   1.00
C420   C     0.55844   0.69353   0.43698   0.00000  Uiso   1.00
C421   C     0.53933   0.66304   0.44981   0.00000  Uiso   1.00
C422   C     0.53888   0.59790   0.43107   0.00000  Uiso   1.00
C423   C     0.52987   0.49292   0.41029   0.00000  Uiso   1.00
C424   C     0.57176   0.78859   0.34825   0.00000  Uiso   1.00
C425   C     0.56385   0.83800   0.28645   0.00000  Uiso   1.00
C426   C     0.57462   0.85289   0.19298   0.00000  Uiso   1.00
C427   C     0.58630   0.89548   0.03444   0.00000  Uiso   1.00
C428   C     0.59564   0.70297   0.39719   0.00000  Uiso   1.00
C429   C     0.59797   0.73563   0.50580   0.00000  Uiso   1.00
C430   C     0.61563   0.73399   0.57054   0.00000  Uiso   1.00
C431   C     0.61464   0.76694   0.66697   0.00000  Uiso   1.00
C432   C     0.57645   0.66015   0.40649   0.00000  Uiso   1.00
C433   C     0.57603   0.59505   0.38771   0.00000  Uiso   1.00
C434   C     0.55693   0.56447   0.40052   0.00000  Uiso   1.00
C435   C     0.58978   0.75521   0.31775   0.00000  Uiso   1.00
C436   C     0.60055   0.77002   0.22435   0.00000  Uiso   1.00
C437   C     0.59267   0.81945   0.16244   0.00000  Uiso   1.00
H438   H     0.54844   0.79040   0.47706   0.00000  Uiso   1.00
H439   H     0.56498   0.82779   0.65622   0.00000  Uiso   1.00
H440   H     0.52539   0.68888   0.47340   0.00000  Uiso   1.00
H441   H     0.54991   0.86382   0.31007   0.00000  Uiso   1.00
H442   H     0.59126   0.85452   0.84142   0.00000  Uiso   1.00
H443   H     0.50778   0.56162   0.45590   0.00000  Uiso   1.00
H444   H     0.55948   0.93051   0.11149   0.00000  Uiso   1.00
H445   H     0.60967   0.67698   0.37345   0.00000  Uiso   1.00
H446   H     0.62957   0.70815   0.54693   0.00000  Uiso   1.00
H447   H     0.58998   0.56924   0.36411   0.00000  Uiso   1.00
H448   H     0.61450   0.74418   0.20078   0.00000  Uiso   1.00
H449   H     0.64368   0.75741   0.75271   0.00000  Uiso   1.00
H450   H     0.56020   0.46451   0.36720   0.00000  Uiso   1.00
H451   H     0.61190   0.83340   0.02279   0.00000  Uiso   1.00
O452   O     0.62946   0.82850   0.91307   0.00000  Uiso   1.00
O453   O     0.51993   0.44423   0.40727   0.00000  Uiso   1.00
O454   O     0.58776   0.92821   0.95541   0.00000  Uiso   1.00
N455   N     0.60087   0.82739   0.79672   0.00000  Uiso   1.00
N456   N     0.52282   0.55355   0.43631   0.00000  Uiso   1.00
N457   N     0.57115   0.89842   0.11430   0.00000  Uiso   1.00
N458   N     0.62908   0.77514   0.74899   0.00000  Uiso   1.00
N459   N     0.55103   0.50130   0.38858   0.00000  Uiso   1.00
N460   N     0.59936   0.84617   0.06657   0.00000  Uiso   1.00
C461   C     0.06247   0.26442   0.45333   0.00000  Uiso   1.00
C462   C     0.07995   0.26901   0.53629   0.00000  Uiso   1.00
C463   C     0.07893   0.30197   0.63265   0.00000  Uiso   1.00
C464   C     0.09659   0.30038   0.69752   0.00000  Uiso   1.00
C465   C     0.12098   0.31256   0.83101   0.00000  Uiso   1.00
C466   C     0.05844   0.19353   0.43698   0.00000  Uiso   1.00
C467   C     0.03933   0.16304   0.44981   0.00000  Uiso   1.00
C468   C     0.03888   0.09790   0.43107   0.00000  Uiso   1.00
C469   C     0.02987   0.99292   0.41029   0.00000  Uiso   1.00
C470   C     0.07176   0.28859   0.34825   0.00000  Uiso   1.00
C471   C     0.06385   0.33800   0.28645   0.00000  Uiso   1.00
C472   C     0.07462   0.35289   0.19298   0.00000  Uiso   1.00
C473   C     0.08630   0.39548   0.03444   0.00000  Uiso   1.00
C474   C     0.09564   0.20297   0.39719   0.00000  Uiso   1.00
C475   C     0.09797   0.23563   0.50580   0.00000  Uiso   1.00
C476   C     0.11563   0.23399   0.57054   0.00000  Uiso   1.00
C477   C     0.11464   0.26694   0.66697   0.00000  Uiso   1.00
C478   C     0.07645   0.16015   0.40649   0.00000  Uiso   1.00
C479   C     0.07603   0.09505   0.38771   0.00000  Uiso   1.00
C480   C     0.05693   0.06447   0.40052   0.00000  Uiso   1.00
C481   C     0.08978   0.25521   0.31775   0.00000  Uiso   1.00
C482   C     0.10055   0.27002   0.22435   0.00000  Uiso   1.00
C483   C     0.09267   0.31945   0.16244   0.00000  Uiso   1.00
H484   H     0.04844   0.29040   0.47706   0.00000  Uiso   1.00
H485   H     0.06498   0.32779   0.65622   0.00000  Uiso   1.00
H486   H     0.02539   0.18888   0.47340   0.00000  Uiso   1.00
H487   H     0.04991   0.36382   0.31007   0.00000  Uiso   1.00
H488   H     0.09126   0.35452   0.84142   0.00000  Uiso   1.00
H489   H     0.00778   0.06162   0.45590   0.00000  Uiso   1.00
H490   H     0.05948   0.43051   0.11149   0.00000  Uiso   1.00
H491   H     0.10967   0.17698   0.37345   0.00000  Uiso   1.00
H492   H     0.12957   0.20815   0.54693   0.00000  Uiso   1.00
H493   H     0.08998   0.06924   0.36411   0.00000  Uiso   1.00
H494   H     0.11450   0.24418   0.20078   0.00000  Uiso   1.00
H495   H     0.14368   0.25741   0.75271   0.00000  Uiso   1.00
H496   H     0.06020   0.96451   0.36720   0.00000  Uiso   1.00
H497   H     0.11190   0.33340   0.02279   0.00000  Uiso   1.00
O498   O     0.12946   0.32850   0.91307   0.00000  Uiso   1.00
O499   O     0.01993   0.94423   0.40727   0.00000  Uiso   1.00
O500   O     0.08776   0.42821   0.95541   0.00000  Uiso   1.00
N501   N     0.10087   0.32739   0.79672   0.00000  Uiso   1.00
N502   N     0.02282   0.05355   0.43631   0.00000  Uiso   1.00
N503   N     0.07115   0.39842   0.11430   0.00000  Uiso   1.00
N504   N     0.12908   0.27514   0.74899   0.00000  Uiso   1.00
N505   N     0.05103   0.00130   0.38858   0.00000  Uiso   1.00
N506   N     0.09936   0.34617   0.06657   0.00000  Uiso   1.00
C507   C     0.06247   0.76442   0.95333   0.00000  Uiso   1.00
C508   C     0.07995   0.76901   0.03629   0.00000  Uiso   1.00
C509   C     0.07893   0.80197   0.13265   0.00000  Uiso   1.00
C510   C     0.09659   0.80038   0.19752   0.00000  Uiso   1.00
C511   C     0.12098   0.81256   0.33101   0.00000  Uiso   1.00
C512   C     0.05844   0.69353   0.93698   0.00000  Uiso   1.00
C513   C     0.03933   0.66304   0.94981   0.00000  Uiso   1.00
C514   C     0.03888   0.59790   0.93107   0.00000  Uiso   1.00
C515   C     0.02987   0.49292   0.91029   0.00000  Uiso   1.00
C516   C     0.07176   0.78859   0.84825   0.00000  Uiso   1.00
C517   C     0.06385   0.83800   0.78645   0.00000  Uiso   1.00
C518   C     0.07462   0.85289   0.69298   0.00000  Uiso   1.00
C519   C     0.08630   0.89548   0.53444   0.00000  Uiso   1.00
C520   C     0.09564   0.70297   0.89719   0.00000  Uiso   1.00
C521   C     0.09797   0.73563   0.00580   0.00000  Uiso   1.00
C522   C     0.11563   0.73399   0.07054   0.00000  Uiso   1.00
C523   C     0.11464   0.76694   0.16697   0.00000  Uiso   1.00
C524   C     0.07645   0.66015   0.90649   0.00000  Uiso   1.00
C525   C     0.07603   0.59505   0.88771   0.00000  Uiso   1.00
C526   C     0.05693   0.56447   0.90052   0.00000  Uiso   1.00
C527   C     0.08978   0.75521   0.81775   0.00000  Uiso   1.00
C528   C     0.10055   0.77002   0.72435   0.00000  Uiso   1.00
C529   C     0.09267   0.81945   0.66244   0.00000  Uiso   1.00
H530   H     0.04844   0.79040   0.97706   0.00000  Uiso   1.00
H531   H     0.06498   0.82779   0.15622   0.00000  Uiso   1.00
H532   H     0.02539   0.68888   0.97340   0.00000  Uiso   1.00
H533   H     0.04991   0.86382   0.81007   0.00000  Uiso   1.00
H534   H     0.09126   0.85452   0.34142   0.00000  Uiso   1.00
H535   H     0.00778   0.56162   0.95590   0.00000  Uiso   1.00
H536   H     0.05948   0.93051   0.61149   0.00000  Uiso   1.00
H537   H     0.10967   0.67698   0.87345   0.00000  Uiso   1.00
H538   H     0.12957   0.70815   0.04693   0.00000  Uiso   1.00
H539   H     0.08998   0.56924   0.86411   0.00000  Uiso   1.00
H540   H     0.11450   0.74418   0.70078   0.00000  Uiso   1.00
H541   H     0.14368   0.75741   0.25271   0.00000  Uiso   1.00
H542   H     0.06020   0.46451   0.86720   0.00000  Uiso   1.00
H543   H     0.11190   0.83340   0.52279   0.00000  Uiso   1.00
O544   O     0.12946   0.82850   0.41307   0.00000  Uiso   1.00
O545   O     0.01993   0.44423   0.90727   0.00000  Uiso   1.00
O546   O     0.08776   0.92821   0.45541   0.00000  Uiso   1.00
N547   N     0.10087   0.82739   0.29672   0.00000  Uiso   1.00
N548   N     0.02282   0.55355   0.93631   0.00000  Uiso   1.00
N549   N     0.07115   0.89842   0.61430   0.00000  Uiso   1.00
N550   N     0.12908   0.77514   0.24899   0.00000  Uiso   1.00
N551   N     0.05103   0.50130   0.88858   0.00000  Uiso   1.00
N552   N     0.09936   0.84617   0.56657   0.00000  Uiso   1.00
C553   C     0.93753   0.23558   0.95333   0.00000  Uiso   1.00
C554   C     0.92005   0.23099   0.03629   0.00000  Uiso   1.00
C555   C     0.92107   0.19803   0.13265   0.00000  Uiso   1.00
C556   C     0.90341   0.19962   0.19752   0.00000  Uiso   1.00
C557   C     0.87902   0.18744   0.33101   0.00000  Uiso   1.00
C558   C     0.94156   0.30647   0.93698   0.00000  Uiso   1.00
C559   C     0.96067   0.33696   0.94981   0.00000  Uiso   1.00
C560   C     0.96112   0.40210   0.93107   0.00000  Uiso   1.00
C561   C     0.97013   0.50708   0.91029   0.00000  Uiso   1.00
C562   C     0.92824   0.21141   0.84825   0.00000  Uiso   1.00
C563   C     0.93615   0.16200   0.78645   0.00000  Uiso   1.00
C564   C     0.92538   0.14711   0.69298   0.00000  Uiso   1.00
C565   C     0.91370   0.10452   0.53444   0.00000  Uiso   1.00
C566   C     0.90436   0.29703   0.89719   0.00000  Uiso   1.00
C567   C     0.90203   0.26437   0.00580   0.00000  Uiso   1.00
C568   C     0.88437   0.26601   0.07054   0.00000  Uiso   1.00
C569   C     0.88536   0.23306   0.16697   0.00000  Uiso   1.00
C570   C     0.92355   0.33985   0.90649   0.00000  Uiso   1.00
C571   C     0.92397   0.40495   0.88771   0.00000  Uiso   1.00
C572   C     0.94307   0.43553   0.90052   0.00000  Uiso   1.00
C573   C     0.91022   0.24479   0.81775   0.00000  Uiso   1.00
C574   C     0.89945   0.22998   0.72435   0.00000  Uiso   1.00
C575   C     0.90733   0.18055   0.66244   0.00000  Uiso   1.00
H576   H     0.95156   0.20960   0.97706   0.00000  Uiso   1.00
H577   H     0.93502   0.17221   0.15622   0.00000  Uiso   1.00
H578   H     0.97461   0.31112   0.97340   0.00000  Uiso   1.00
H579   H     0.95009   0.13618   0.81007   0.00000  Uiso   1.00
H580   H     0.90874   0.14548   0.34142   0.00000  Uiso   1.00
H581   H     0.99222   0.43838   0.95590   0.00000  Uiso   1.00
H582   H     0.94052   0.06949   0.61149   0.00000  Uiso   1.00
H583   H     0.89033   0.32302   0.87345   0.00000  Uiso   1.00
H584   H     0.87043   0.29185   0.04693   0.00000  Uiso   1.00
H585   H     0.91002   0.43076   0.86411   0.00000  Uiso   1.00
H586   H     0.88550   0.25582   0.70078   0.00000  Uiso   1.00
H587   H     0.85632   0.24259   0.25271   0.00000  Uiso   1.00
H588   H     0.93980   0.53549   0.86720   0.00000  Uiso   1.00
H589   H     0.88810   0.16660   0.52279   0.00000  Uiso   1.00
O590   O     0.87054   0.17150   0.41307   0.00000  Uiso   1.00
O591   O     0.98007   0.55577   0.90727   0.00000  Uiso   1.00
O592   O     0.91224   0.07179   0.45541   0.00000  Uiso   1.00
N593   N     0.89913   0.17261   0.29672   0.00000  Uiso   1.00
N594   N     0.97718   0.44645   0.93631   0.00000  Uiso   1.00
N595   N     0.92885   0.10158   0.61430   0.00000  Uiso   1.00
N596   N     0.87092   0.22486   0.24899   0.00000  Uiso   1.00
N597   N     0.94897   0.49870   0.88858   0.00000  Uiso   1.00
N598   N     0.90064   0.15383   0.56657   0.00000  Uiso   1.00
C599   C     0.93753   0.73558   0.45333   0.00000  Uiso   1.00
C600   C     0.92005   0.73099   0.53629   0.00000  Uiso   1.00
C601   C     0.92107   0.69803   0.63265   0.00000  Uiso   1.00
C602   C     0.90341   0.69962   0.69752   0.00000  Uiso   1.00
C603   C     0.87902   0.68744   0.83101   0.00000  Uiso   1.00
C604   C     0.94156   0.80647   0.43698   0.00000  Uiso   1.00
C605   C     0.96067   0.83696   0.44981   0.00000  Uiso   1.00
C606   C     0.96112   0.90210   0.43107   0.00000  Uiso   1.00
C607   C     0.97013   0.00708   0.41029   0.00000  Uiso   1.00
C608   C     0.92824   0.71141   0.34825   0.00000  Uiso   1.00
C609   C     0.93615   0.66200   0.28645   0.00000  Uiso   1.00
C610   C     0.92538   0.64711   0.19298   0.00000  Uiso   1.00
C611   C     0.91370   0.60452   0.03444   0.00000  Uiso   1.00
C612   C     0.90436   0.79703   0.39719   0.00000  Uiso   1.00
C613   C     0.90203   0.76437   0.50580   0.00000  Uiso   1.00
C614   C     0.88437   0.76601   0.57054   0.00000  Uiso   1.00
C615   C     0.88536   0.73306   0.66697   0.00000  Uiso   1.00
C616   C     0.92355   0.83985   0.40649   0.00000  Uiso   1.00
C617   C     0.92397   0.90495   0.38771   0.00000  Uiso   1.00
C618   C     0.94307   0.93553   0.40052   0.00000  Uiso   1.00
C619   C     0.91022   0.74479   0.31775   0.00000  Uiso   1.00
C620   C     0.89945   0.72998   0.22435   0.00000  Uiso   1.00
C621   C     0.90733   0.68055   0.16244   0.00000  Uiso   1.00
H622   H     0.95156   0.70960   0.47706   0.00000  Uiso   1.00
H623   H     0.93502   0.67221   0.65622   0.00000  Uiso   1.00
H624   H     0.97461   0.81112   0.47340   0.00000  Uiso   1.00
H625   H     0.95009   0.63618   0.31007   0.00000  Uiso   1.00
H626   H     0.90874   0.64548   0.84142   0.00000  Uiso   1.00
H627   H     0.99222   0.93838   0.45590   0.00000  Uiso   1.00
H628   H     0.94052   0.56949   0.11149   0.00000  Uiso   1.00
H629   H     0.89033   0.82302   0.37345   0.00000  Uiso   1.00
H630   H     0.87043   0.79185   0.54693   0.00000  Uiso   1.00
H631   H     0.91002   0.93076   0.36411   0.00000  Uiso   1.00
H632   H     0.88550   0.75582   0.20078   0.00000  Uiso   1.00
H633   H     0.85632   0.74259   0.75271   0.00000  Uiso   1.00
H634   H     0.93980   0.03549   0.36720   0.00000  Uiso   1.00
H635   H     0.88810   0.66660   0.02279   0.00000  Uiso   1.00
O636   O     0.87054   0.67150   0.91307   0.00000  Uiso   1.00
O637   O     0.98007   0.05577   0.40727   0.00000  Uiso   1.00
O638   O     0.91224   0.57179   0.95541   0.00000  Uiso   1.00
N639   N     0.89913   0.67261   0.79672   0.00000  Uiso   1.00
N640   N     0.97718   0.94645   0.43631   0.00000  Uiso   1.00
N641   N     0.92885   0.60158   0.11430   0.00000  Uiso   1.00
N642   N     0.87092   0.72486   0.74899   0.00000  Uiso   1.00
N643   N     0.94897   0.99870   0.38858   0.00000  Uiso   1.00
N644   N     0.90064   0.65383   0.06657   0.00000  Uiso   1.00
C645   C     0.43753   0.23558   0.45333   0.00000  Uiso   1.00
C646   C     0.42005   0.23099   0.53629   0.00000  Uiso   1.00
C647   C     0.42107   0.19803   0.63265   0.00000  Uiso   1.00
C648   C     0.40341   0.19962   0.69752   0.00000  Uiso   1.00
C649   C     0.37902   0.18744   0.83101   0.00000  Uiso   1.00
C650   C     0.44156   0.30647   0.43698   0.00000  Uiso   1.00
C651   C     0.46067   0.33696   0.44981   0.00000  Uiso   1.00
C652   C     0.46112   0.40210   0.43107   0.00000  Uiso   1.00
C653   C     0.47013   0.50708   0.41029   0.00000  Uiso   1.00
C654   C     0.42824   0.21141   0.34825   0.00000  Uiso   1.00
C655   C     0.43615   0.16200   0.28645   0.00000  Uiso   1.00
C656   C     0.42538   0.14711   0.19298   0.00000  Uiso   1.00
C657   C     0.41370   0.10452   0.03444   0.00000  Uiso   1.00
C658   C     0.40436   0.29703   0.39719   0.00000  Uiso   1.00
C659   C     0.40203   0.26437   0.50580   0.00000  Uiso   1.00
C660   C     0.38437   0.26601   0.57054   0.00000  Uiso   1.00
C661   C     0.38536   0.23306   0.66697   0.00000  Uiso   1.00
C662   C     0.42355   0.33985   0.40649   0.00000  Uiso   1.00
C663   C     0.42397   0.40495   0.38771   0.00000  Uiso   1.00
C664   C     0.44307   0.43553   0.40052   0.00000  Uiso   1.00
C665   C     0.41022   0.24479   0.31775   0.00000  Uiso   1.00
C666   C     0.39945   0.22998   0.22435   0.00000  Uiso   1.00
C667   C     0.40733   0.18055   0.16244   0.00000  Uiso   1.00
H668   H     0.45156   0.20960   0.47706   0.00000  Uiso   1.00
H669   H     0.43502   0.17221   0.65622   0.00000  Uiso   1.00
H670   H     0.47461   0.31112   0.47340   0.00000  Uiso   1.00
H671   H     0.45009   0.13618   0.31007   0.00000  Uiso   1.00
H672   H     0.40874   0.14548   0.84142   0.00000  Uiso   1.00
H673   H     0.49222   0.43838   0.45590   0.00000  Uiso   1.00
H674   H     0.44052   0.06949   0.11149   0.00000  Uiso   1.00
H675   H     0.39033   0.32302   0.37345   0.00000  Uiso   1.00
H676   H     0.37043   0.29185   0.54693   0.00000  Uiso   1.00
H677   H     0.41002   0.43076   0.36411   0.00000  Uiso   1.00
H678   H     0.38550   0.25582   0.20078   0.00000  Uiso   1.00
H679   H     0.35632   0.24259   0.75271   0.00000  Uiso   1.00
H680   H     0.43980   0.53549   0.36720   0.00000  Uiso   1.00
H681   H     0.38810   0.16660   0.02279   0.00000  Uiso   1.00
O682   O     0.37054   0.17150   0.91307   0.00000  Uiso   1.00
O683   O     0.48007   0.55577   0.40727   0.00000  Uiso   1.00
O684   O     0.41224   0.07179   0.95541   0.00000  Uiso   1.00
N685   N     0.39913   0.17261   0.79672   0.00000  Uiso   1.00
N686   N     0.47718   0.44645   0.43631   0.00000  Uiso   1.00
N687   N     0.42885   0.10158   0.11430   0.00000  Uiso   1.00
N688   N     0.37092   0.22486   0.74899   0.00000  Uiso   1.00
N689   N     0.44897   0.49870   0.38858   0.00000  Uiso   1.00
N690   N     0.40064   0.15383   0.06657   0.00000  Uiso   1.00
C691   C     0.43753   0.73558   0.95333   0.00000  Uiso   1.00
C692   C     0.42005   0.73099   0.03629   0.00000  Uiso   1.00
C693   C     0.42107   0.69803   0.13265   0.00000  Uiso   1.00
C694   C     0.40341   0.69962   0.19752   0.00000  Uiso   1.00
C695   C     0.37902   0.68744   0.33101   0.00000  Uiso   1.00
C696   C     0.44156   0.80647   0.93698   0.00000  Uiso   1.00
C697   C     0.46067   0.83696   0.94981   0.00000  Uiso   1.00
C698   C     0.46112   0.90210   0.93107   0.00000  Uiso   1.00
C699   C     0.47013   0.00708   0.91029   0.00000  Uiso   1.00
C700   C     0.42824   0.71141   0.84825   0.00000  Uiso   1.00
C701   C     0.43615   0.66200   0.78645   0.00000  Uiso   1.00
C702   C     0.42538   0.64711   0.69298   0.00000  Uiso   1.00
C703   C     0.41370   0.60452   0.53444   0.00000  Uiso   1.00
C704   C     0.40436   0.79703   0.89719   0.00000  Uiso   1.00
C705   C     0.40203   0.76437   0.00580   0.00000  Uiso   1.00
C706   C     0.38437   0.76601   0.07054   0.00000  Uiso   1.00
C707   C     0.38536   0.73306   0.16697   0.00000  Uiso   1.00
C708   C     0.42355   0.83985   0.90649   0.00000  Uiso   1.00
C709   C     0.42397   0.90495   0.88771   0.00000  Uiso   1.00
C710   C     0.44307   0.93553   0.90052   0.00000  Uiso   1.00
C711   C     0.41022   0.74479   0.81775   0.00000  Uiso   1.00
C712   C     0.39945   0.72998   0.72435   0.00000  Uiso   1.00
C713   C     0.40733   0.68055   0.66244   0.00000  Uiso   1.00
H714   H     0.45156   0.70960   0.97706   0.00000  Uiso   1.00
H715   H     0.43502   0.67221   0.15622   0.00000  Uiso   1.00
H716   H     0.47461   0.81112   0.97340   0.00000  Uiso   1.00
H717   H     0.45009   0.63618   0.81007   0.00000  Uiso   1.00
H718   H     0.40874   0.64548   0.34142   0.00000  Uiso   1.00
H719   H     0.49222   0.93838   0.95590   0.00000  Uiso   1.00
H720   H     0.44052   0.56949   0.61149   0.00000  Uiso   1.00
H721   H     0.39033   0.82302   0.87345   0.00000  Uiso   1.00
H722   H     0.37043   0.79185   0.04693   0.00000  Uiso   1.00
H723   H     0.41002   0.93076   0.86411   0.00000  Uiso   1.00
H724   H     0.38550   0.75582   0.70078   0.00000  Uiso   1.00
H725   H     0.35632   0.74259   0.25271   0.00000  Uiso   1.00
H726   H     0.43980   0.03549   0.86720   0.00000  Uiso   1.00
H727   H     0.38810   0.66660   0.52279   0.00000  Uiso   1.00
O728   O     0.37054   0.67150   0.41307   0.00000  Uiso   1.00
O729   O     0.48007   0.05577   0.90727   0.00000  Uiso   1.00
O730   O     0.41224   0.57179   0.45541   0.00000  Uiso   1.00
N731   N     0.39913   0.67261   0.29672   0.00000  Uiso   1.00
N732   N     0.47718   0.94645   0.93631   0.00000  Uiso   1.00
N733   N     0.42885   0.60158   0.61430   0.00000  Uiso   1.00
N734   N     0.37092   0.72486   0.24899   0.00000  Uiso   1.00
N735   N     0.44897   0.99870   0.88858   0.00000  Uiso   1.00
N736   N     0.40064   0.65383   0.56657   0.00000  Uiso   1.00
