data_job_04221
_audit_creation_date              2018-12-19
_audit_creation_method            'Materials Studio'
_symmetry_space_group_name_H-M    'P1'
_symmetry_Int_Tables_number       1
_symmetry_cell_setting            triclinic
loop_
_symmetry_equiv_pos_as_xyz
  x,y,z
_cell_length_a                    22.6971
_cell_length_b                    22.6971
_cell_length_c                    29.5264
_cell_angle_alpha                 90.0000
_cell_angle_beta                  90.0000
_cell_angle_gamma                 90.0000
loop_
_atom_site_label
_atom_site_type_symbol
_atom_site_fract_x
_atom_site_fract_y
_atom_site_fract_z
_atom_site_U_iso_or_equiv
_atom_site_adp_type
_atom_site_occupancy
C1     C     0.40077   0.68348   0.29858   0.00000  Uiso   1.00
C2     C     0.36568   0.63132   0.31681   0.00000  Uiso   1.00
C3     C     0.37790   0.57233   0.30875   0.00000  Uiso   1.00
C4     C     0.34053   0.53126   0.32847   0.00000  Uiso   1.00
C5     C     0.29331   0.44763   0.35268   0.00000  Uiso   1.00
C6     C     0.35681   0.72175   0.27289   0.00000  Uiso   1.00
C7     C     0.36159   0.73880   0.22790   0.00000  Uiso   1.00
C8     C     0.31676   0.77386   0.21065   0.00000  Uiso   1.00
C9     C     0.25580   0.83067   0.16667   0.00000  Uiso   1.00
C10    C     0.41943   0.71925   0.33987   0.00000  Uiso   1.00
C11    C     0.47686   0.73422   0.35120   0.00000  Uiso   1.00
C12    C     0.48475   0.76719   0.39035   0.00000  Uiso   1.00
C13    C     0.52101   0.82012   0.45038   0.00000  Uiso   1.00
C14    C     0.31267   0.71542   0.34794   0.00000  Uiso   1.00
C15    C     0.31783   0.64867   0.34362   0.00000  Uiso   1.00
C16    C     0.28043   0.60767   0.36336   0.00000  Uiso   1.00
C17    C     0.29260   0.54864   0.35533   0.00000  Uiso   1.00
C18    C     0.30897   0.73910   0.29969   0.00000  Uiso   1.00
C19    C     0.26413   0.77414   0.28251   0.00000  Uiso   1.00
C20    C     0.26883   0.79124   0.23751   0.00000  Uiso   1.00
C21    C     0.37158   0.73660   0.36668   0.00000  Uiso   1.00
C22    C     0.37939   0.76956   0.40582   0.00000  Uiso   1.00
C23    C     0.43681   0.78457   0.41720   0.00000  Uiso   1.00
H24    H     0.43802   0.66997   0.27771   0.00000  Uiso   1.00
H25    H     0.41493   0.55892   0.28799   0.00000  Uiso   1.00
H26    H     0.39863   0.72538   0.20716   0.00000  Uiso   1.00
H27    H     0.51387   0.72079   0.33045   0.00000  Uiso   1.00
H28    H     0.36822   0.44346   0.31121   0.00000  Uiso   1.00
H29    H     0.33385   0.79445   0.14077   0.00000  Uiso   1.00
H30    H     0.57687   0.78478   0.40074   0.00000  Uiso   1.00
H31    H     0.27542   0.72893   0.36882   0.00000  Uiso   1.00
H32    H     0.24341   0.62111   0.38411   0.00000  Uiso   1.00
H33    H     0.22711   0.78756   0.30327   0.00000  Uiso   1.00
H34    H     0.34235   0.78298   0.42655   0.00000  Uiso   1.00
H35    H     0.22900   0.49393   0.38922   0.00000  Uiso   1.00
H36    H     0.19464   0.84493   0.21877   0.00000  Uiso   1.00
H37    H     0.43766   0.83525   0.47875   0.00000  Uiso   1.00
O38    O     0.28048   0.39671   0.35861   0.00000  Uiso   1.00
O39    O     0.23540   0.85720   0.13500   0.00000  Uiso   1.00
O40    O     0.55423   0.84451   0.47608   0.00000  Uiso   1.00
N41    N     0.33985   0.47013   0.32748   0.00000  Uiso   1.00
N42    N     0.30772   0.79828   0.16812   0.00000  Uiso   1.00
N43    N     0.53492   0.78925   0.41117   0.00000  Uiso   1.00
N44    N     0.26495   0.49729   0.36945   0.00000  Uiso   1.00
N45    N     0.23281   0.82544   0.21010   0.00000  Uiso   1.00
N46    N     0.46001   0.81641   0.45315   0.00000  Uiso   1.00
C47    C     0.90077   0.18348   0.79858   0.00000  Uiso   1.00
C48    C     0.86568   0.13132   0.81681   0.00000  Uiso   1.00
C49    C     0.87790   0.07233   0.80875   0.00000  Uiso   1.00
C50    C     0.84053   0.03126   0.82847   0.00000  Uiso   1.00
C51    C     0.79331   0.94763   0.85268   0.00000  Uiso   1.00
C52    C     0.85681   0.22175   0.77289   0.00000  Uiso   1.00
C53    C     0.86159   0.23880   0.72790   0.00000  Uiso   1.00
C54    C     0.81676   0.27386   0.71065   0.00000  Uiso   1.00
C55    C     0.75580   0.33067   0.66667   0.00000  Uiso   1.00
C56    C     0.91943   0.21925   0.83987   0.00000  Uiso   1.00
C57    C     0.97686   0.23422   0.85120   0.00000  Uiso   1.00
C58    C     0.98475   0.26719   0.89035   0.00000  Uiso   1.00
C59    C     0.02101   0.32012   0.95038   0.00000  Uiso   1.00
C60    C     0.81267   0.21542   0.84794   0.00000  Uiso   1.00
C61    C     0.81783   0.14867   0.84362   0.00000  Uiso   1.00
C62    C     0.78043   0.10767   0.86336   0.00000  Uiso   1.00
C63    C     0.79260   0.04864   0.85533   0.00000  Uiso   1.00
C64    C     0.80897   0.23910   0.79969   0.00000  Uiso   1.00
C65    C     0.76413   0.27414   0.78251   0.00000  Uiso   1.00
C66    C     0.76883   0.29124   0.73751   0.00000  Uiso   1.00
C67    C     0.87158   0.23660   0.86668   0.00000  Uiso   1.00
C68    C     0.87939   0.26956   0.90582   0.00000  Uiso   1.00
C69    C     0.93681   0.28457   0.91720   0.00000  Uiso   1.00
H70    H     0.93802   0.16997   0.77771   0.00000  Uiso   1.00
H71    H     0.91493   0.05892   0.78799   0.00000  Uiso   1.00
H72    H     0.89863   0.22538   0.70716   0.00000  Uiso   1.00
H73    H     0.01387   0.22079   0.83045   0.00000  Uiso   1.00
H74    H     0.86822   0.94346   0.81121   0.00000  Uiso   1.00
H75    H     0.83385   0.29445   0.64077   0.00000  Uiso   1.00
H76    H     0.07687   0.28478   0.90074   0.00000  Uiso   1.00
H77    H     0.77542   0.22893   0.86882   0.00000  Uiso   1.00
H78    H     0.74341   0.12111   0.88411   0.00000  Uiso   1.00
H79    H     0.72711   0.28756   0.80327   0.00000  Uiso   1.00
H80    H     0.84235   0.28298   0.92655   0.00000  Uiso   1.00
H81    H     0.72900   0.99393   0.88922   0.00000  Uiso   1.00
H82    H     0.69464   0.34493   0.71877   0.00000  Uiso   1.00
H83    H     0.93766   0.33525   0.97875   0.00000  Uiso   1.00
O84    O     0.78048   0.89671   0.85861   0.00000  Uiso   1.00
O85    O     0.73540   0.35720   0.63500   0.00000  Uiso   1.00
O86    O     0.05423   0.34451   0.97608   0.00000  Uiso   1.00
N87    N     0.83985   0.97013   0.82748   0.00000  Uiso   1.00
N88    N     0.80772   0.29828   0.66812   0.00000  Uiso   1.00
N89    N     0.03492   0.28925   0.91117   0.00000  Uiso   1.00
N90    N     0.76495   0.99729   0.86945   0.00000  Uiso   1.00
N91    N     0.73281   0.32544   0.71010   0.00000  Uiso   1.00
N92    N     0.96001   0.31641   0.95315   0.00000  Uiso   1.00
C93    C     0.09923   0.81652   0.79858   0.00000  Uiso   1.00
C94    C     0.13432   0.86868   0.81681   0.00000  Uiso   1.00
C95    C     0.12210   0.92767   0.80875   0.00000  Uiso   1.00
C96    C     0.15947   0.96874   0.82847   0.00000  Uiso   1.00
C97    C     0.20669   0.05237   0.85268   0.00000  Uiso   1.00
C98    C     0.14319   0.77825   0.77289   0.00000  Uiso   1.00
C99    C     0.13841   0.76120   0.72790   0.00000  Uiso   1.00
C100   C     0.18324   0.72614   0.71065   0.00000  Uiso   1.00
C101   C     0.24420   0.66933   0.66667   0.00000  Uiso   1.00
C102   C     0.08057   0.78075   0.83987   0.00000  Uiso   1.00
C103   C     0.02314   0.76578   0.85120   0.00000  Uiso   1.00
C104   C     0.01525   0.73281   0.89035   0.00000  Uiso   1.00
C105   C     0.97899   0.67988   0.95038   0.00000  Uiso   1.00
C106   C     0.18733   0.78458   0.84794   0.00000  Uiso   1.00
C107   C     0.18217   0.85133   0.84362   0.00000  Uiso   1.00
C108   C     0.21957   0.89233   0.86336   0.00000  Uiso   1.00
C109   C     0.20740   0.95136   0.85533   0.00000  Uiso   1.00
C110   C     0.19103   0.76090   0.79969   0.00000  Uiso   1.00
C111   C     0.23587   0.72586   0.78251   0.00000  Uiso   1.00
C112   C     0.23117   0.70876   0.73751   0.00000  Uiso   1.00
C113   C     0.12842   0.76340   0.86668   0.00000  Uiso   1.00
C114   C     0.12061   0.73044   0.90582   0.00000  Uiso   1.00
C115   C     0.06319   0.71543   0.91720   0.00000  Uiso   1.00
H116   H     0.06198   0.83003   0.77771   0.00000  Uiso   1.00
H117   H     0.08507   0.94108   0.78799   0.00000  Uiso   1.00
H118   H     0.10137   0.77462   0.70716   0.00000  Uiso   1.00
H119   H     0.98613   0.77921   0.83045   0.00000  Uiso   1.00
H120   H     0.13178   0.05654   0.81121   0.00000  Uiso   1.00
H121   H     0.16615   0.70555   0.64077   0.00000  Uiso   1.00
H122   H     0.92313   0.71522   0.90074   0.00000  Uiso   1.00
H123   H     0.22458   0.77107   0.86882   0.00000  Uiso   1.00
H124   H     0.25659   0.87889   0.88411   0.00000  Uiso   1.00
H125   H     0.27289   0.71244   0.80327   0.00000  Uiso   1.00
H126   H     0.15765   0.71702   0.92655   0.00000  Uiso   1.00
H127   H     0.27100   0.00607   0.88922   0.00000  Uiso   1.00
H128   H     0.30536   0.65507   0.71877   0.00000  Uiso   1.00
H129   H     0.06234   0.66475   0.97875   0.00000  Uiso   1.00
O130   O     0.21952   0.10329   0.85861   0.00000  Uiso   1.00
O131   O     0.26460   0.64280   0.63500   0.00000  Uiso   1.00
O132   O     0.94577   0.65549   0.97608   0.00000  Uiso   1.00
N133   N     0.16015   0.02987   0.82748   0.00000  Uiso   1.00
N134   N     0.19228   0.70172   0.66812   0.00000  Uiso   1.00
N135   N     0.96508   0.71075   0.91117   0.00000  Uiso   1.00
N136   N     0.23505   0.00271   0.86945   0.00000  Uiso   1.00
N137   N     0.26719   0.67456   0.71010   0.00000  Uiso   1.00
N138   N     0.03999   0.68359   0.95315   0.00000  Uiso   1.00
C139   C     0.59923   0.31652   0.29858   0.00000  Uiso   1.00
C140   C     0.63432   0.36868   0.31681   0.00000  Uiso   1.00
C141   C     0.62210   0.42767   0.30875   0.00000  Uiso   1.00
C142   C     0.65947   0.46874   0.32847   0.00000  Uiso   1.00
C143   C     0.70669   0.55237   0.35268   0.00000  Uiso   1.00
C144   C     0.64319   0.27825   0.27289   0.00000  Uiso   1.00
C145   C     0.63841   0.26120   0.22790   0.00000  Uiso   1.00
C146   C     0.68324   0.22614   0.21065   0.00000  Uiso   1.00
C147   C     0.74420   0.16933   0.16667   0.00000  Uiso   1.00
C148   C     0.58057   0.28075   0.33987   0.00000  Uiso   1.00
C149   C     0.52314   0.26578   0.35120   0.00000  Uiso   1.00
C150   C     0.51525   0.23281   0.39035   0.00000  Uiso   1.00
C151   C     0.47899   0.17988   0.45038   0.00000  Uiso   1.00
C152   C     0.68733   0.28458   0.34794   0.00000  Uiso   1.00
C153   C     0.68217   0.35133   0.34362   0.00000  Uiso   1.00
C154   C     0.71957   0.39233   0.36336   0.00000  Uiso   1.00
C155   C     0.70740   0.45136   0.35533   0.00000  Uiso   1.00
C156   C     0.69103   0.26090   0.29969   0.00000  Uiso   1.00
C157   C     0.73587   0.22586   0.28251   0.00000  Uiso   1.00
C158   C     0.73117   0.20876   0.23751   0.00000  Uiso   1.00
C159   C     0.62842   0.26340   0.36668   0.00000  Uiso   1.00
C160   C     0.62061   0.23044   0.40582   0.00000  Uiso   1.00
C161   C     0.56319   0.21543   0.41720   0.00000  Uiso   1.00
H162   H     0.56198   0.33003   0.27771   0.00000  Uiso   1.00
H163   H     0.58507   0.44108   0.28799   0.00000  Uiso   1.00
H164   H     0.60137   0.27462   0.20716   0.00000  Uiso   1.00
H165   H     0.48613   0.27921   0.33045   0.00000  Uiso   1.00
H166   H     0.63178   0.55654   0.31121   0.00000  Uiso   1.00
H167   H     0.66615   0.20555   0.14077   0.00000  Uiso   1.00
H168   H     0.42313   0.21522   0.40074   0.00000  Uiso   1.00
H169   H     0.72458   0.27107   0.36882   0.00000  Uiso   1.00
H170   H     0.75659   0.37889   0.38411   0.00000  Uiso   1.00
H171   H     0.77289   0.21244   0.30327   0.00000  Uiso   1.00
H172   H     0.65765   0.21702   0.42655   0.00000  Uiso   1.00
H173   H     0.77100   0.50607   0.38922   0.00000  Uiso   1.00
H174   H     0.80536   0.15507   0.21877   0.00000  Uiso   1.00
H175   H     0.56234   0.16475   0.47875   0.00000  Uiso   1.00
O176   O     0.71952   0.60329   0.35861   0.00000  Uiso   1.00
O177   O     0.76460   0.14280   0.13500   0.00000  Uiso   1.00
O178   O     0.44577   0.15549   0.47608   0.00000  Uiso   1.00
N179   N     0.66015   0.52987   0.32748   0.00000  Uiso   1.00
N180   N     0.69228   0.20172   0.16812   0.00000  Uiso   1.00
N181   N     0.46508   0.21075   0.41117   0.00000  Uiso   1.00
N182   N     0.73505   0.50271   0.36945   0.00000  Uiso   1.00
N183   N     0.76719   0.17456   0.21010   0.00000  Uiso   1.00
N184   N     0.53999   0.18359   0.45315   0.00000  Uiso   1.00
C185   C     0.31652   0.90077   0.54858   0.00000  Uiso   1.00
C186   C     0.36868   0.86568   0.56681   0.00000  Uiso   1.00
C187   C     0.42767   0.87790   0.55875   0.00000  Uiso   1.00
C188   C     0.46874   0.84053   0.57847   0.00000  Uiso   1.00
C189   C     0.55237   0.79331   0.60268   0.00000  Uiso   1.00
C190   C     0.27825   0.85681   0.52289   0.00000  Uiso   1.00
C191   C     0.26120   0.86159   0.47790   0.00000  Uiso   1.00
C192   C     0.22614   0.81676   0.46065   0.00000  Uiso   1.00
C193   C     0.16933   0.75580   0.41667   0.00000  Uiso   1.00
C194   C     0.28075   0.91943   0.58987   0.00000  Uiso   1.00
C195   C     0.26578   0.97686   0.60120   0.00000  Uiso   1.00
C196   C     0.23281   0.98475   0.64035   0.00000  Uiso   1.00
C197   C     0.17988   0.02101   0.70038   0.00000  Uiso   1.00
C198   C     0.28458   0.81267   0.59794   0.00000  Uiso   1.00
C199   C     0.35133   0.81783   0.59362   0.00000  Uiso   1.00
C200   C     0.39233   0.78043   0.61336   0.00000  Uiso   1.00
C201   C     0.45136   0.79260   0.60533   0.00000  Uiso   1.00
C202   C     0.26090   0.80897   0.54969   0.00000  Uiso   1.00
C203   C     0.22586   0.76413   0.53251   0.00000  Uiso   1.00
C204   C     0.20876   0.76883   0.48751   0.00000  Uiso   1.00
C205   C     0.26340   0.87158   0.61668   0.00000  Uiso   1.00
C206   C     0.23044   0.87939   0.65582   0.00000  Uiso   1.00
C207   C     0.21543   0.93681   0.66720   0.00000  Uiso   1.00
H208   H     0.33003   0.93802   0.52771   0.00000  Uiso   1.00
H209   H     0.44108   0.91493   0.53799   0.00000  Uiso   1.00
H210   H     0.27462   0.89863   0.45716   0.00000  Uiso   1.00
H211   H     0.27921   0.01387   0.58045   0.00000  Uiso   1.00
H212   H     0.55654   0.86822   0.56121   0.00000  Uiso   1.00
H213   H     0.20555   0.83385   0.39077   0.00000  Uiso   1.00
H214   H     0.21522   0.07687   0.65074   0.00000  Uiso   1.00
H215   H     0.27107   0.77542   0.61882   0.00000  Uiso   1.00
H216   H     0.37889   0.74341   0.63411   0.00000  Uiso   1.00
H217   H     0.21244   0.72711   0.55327   0.00000  Uiso   1.00
H218   H     0.21702   0.84235   0.67655   0.00000  Uiso   1.00
H219   H     0.50607   0.72900   0.63922   0.00000  Uiso   1.00
H220   H     0.15507   0.69464   0.46877   0.00000  Uiso   1.00
H221   H     0.16475   0.93766   0.72875   0.00000  Uiso   1.00
O222   O     0.60329   0.78048   0.60861   0.00000  Uiso   1.00
O223   O     0.14280   0.73540   0.38500   0.00000  Uiso   1.00
O224   O     0.15549   0.05423   0.72608   0.00000  Uiso   1.00
N225   N     0.52987   0.83985   0.57748   0.00000  Uiso   1.00
N226   N     0.20172   0.80772   0.41812   0.00000  Uiso   1.00
N227   N     0.21075   0.03492   0.66117   0.00000  Uiso   1.00
N228   N     0.50271   0.76495   0.61945   0.00000  Uiso   1.00
N229   N     0.17456   0.73281   0.46010   0.00000  Uiso   1.00
N230   N     0.18359   0.96001   0.70315   0.00000  Uiso   1.00
C231   C     0.81652   0.40077   0.04858   0.00000  Uiso   1.00
C232   C     0.86868   0.36568   0.06681   0.00000  Uiso   1.00
C233   C     0.92767   0.37790   0.05875   0.00000  Uiso   1.00
C234   C     0.96874   0.34053   0.07847   0.00000  Uiso   1.00
C235   C     0.05237   0.29331   0.10268   0.00000  Uiso   1.00
C236   C     0.77825   0.35681   0.02289   0.00000  Uiso   1.00
C237   C     0.76120   0.36159   0.97790   0.00000  Uiso   1.00
C238   C     0.72614   0.31676   0.96065   0.00000  Uiso   1.00
C239   C     0.66933   0.25580   0.91667   0.00000  Uiso   1.00
C240   C     0.78075   0.41943   0.08987   0.00000  Uiso   1.00
C241   C     0.76578   0.47686   0.10120   0.00000  Uiso   1.00
C242   C     0.73281   0.48475   0.14035   0.00000  Uiso   1.00
C243   C     0.67988   0.52101   0.20038   0.00000  Uiso   1.00
C244   C     0.78458   0.31267   0.09794   0.00000  Uiso   1.00
C245   C     0.85133   0.31783   0.09362   0.00000  Uiso   1.00
C246   C     0.89233   0.28043   0.11336   0.00000  Uiso   1.00
C247   C     0.95136   0.29260   0.10533   0.00000  Uiso   1.00
C248   C     0.76090   0.30897   0.04969   0.00000  Uiso   1.00
C249   C     0.72586   0.26413   0.03251   0.00000  Uiso   1.00
C250   C     0.70876   0.26883   0.98751   0.00000  Uiso   1.00
C251   C     0.76340   0.37158   0.11668   0.00000  Uiso   1.00
C252   C     0.73044   0.37939   0.15582   0.00000  Uiso   1.00
C253   C     0.71543   0.43681   0.16720   0.00000  Uiso   1.00
H254   H     0.83003   0.43802   0.02771   0.00000  Uiso   1.00
H255   H     0.94108   0.41493   0.03799   0.00000  Uiso   1.00
H256   H     0.77462   0.39863   0.95716   0.00000  Uiso   1.00
H257   H     0.77921   0.51387   0.08045   0.00000  Uiso   1.00
H258   H     0.05654   0.36822   0.06121   0.00000  Uiso   1.00
H259   H     0.70555   0.33385   0.89077   0.00000  Uiso   1.00
H260   H     0.71522   0.57687   0.15074   0.00000  Uiso   1.00
H261   H     0.77107   0.27542   0.11882   0.00000  Uiso   1.00
H262   H     0.87889   0.24341   0.13411   0.00000  Uiso   1.00
H263   H     0.71244   0.22711   0.05327   0.00000  Uiso   1.00
H264   H     0.71702   0.34235   0.17655   0.00000  Uiso   1.00
H265   H     0.00607   0.22900   0.13922   0.00000  Uiso   1.00
H266   H     0.65507   0.19464   0.96877   0.00000  Uiso   1.00
H267   H     0.66475   0.43766   0.22875   0.00000  Uiso   1.00
O268   O     0.10329   0.28048   0.10861   0.00000  Uiso   1.00
O269   O     0.64280   0.23540   0.88500   0.00000  Uiso   1.00
O270   O     0.65549   0.55423   0.22608   0.00000  Uiso   1.00
N271   N     0.02987   0.33985   0.07748   0.00000  Uiso   1.00
N272   N     0.70172   0.30772   0.91812   0.00000  Uiso   1.00
N273   N     0.71075   0.53492   0.16117   0.00000  Uiso   1.00
N274   N     0.00271   0.26495   0.11945   0.00000  Uiso   1.00
N275   N     0.67456   0.23281   0.96010   0.00000  Uiso   1.00
N276   N     0.68359   0.46001   0.20315   0.00000  Uiso   1.00
C277   C     0.18348   0.59923   0.04858   0.00000  Uiso   1.00
C278   C     0.13132   0.63432   0.06681   0.00000  Uiso   1.00
C279   C     0.07233   0.62210   0.05875   0.00000  Uiso   1.00
C280   C     0.03126   0.65947   0.07847   0.00000  Uiso   1.00
C281   C     0.94763   0.70669   0.10268   0.00000  Uiso   1.00
C282   C     0.22175   0.64319   0.02289   0.00000  Uiso   1.00
C283   C     0.23880   0.63841   0.97790   0.00000  Uiso   1.00
C284   C     0.27386   0.68324   0.96065   0.00000  Uiso   1.00
C285   C     0.33067   0.74420   0.91667   0.00000  Uiso   1.00
C286   C     0.21925   0.58057   0.08987   0.00000  Uiso   1.00
C287   C     0.23422   0.52314   0.10120   0.00000  Uiso   1.00
C288   C     0.26719   0.51525   0.14035   0.00000  Uiso   1.00
C289   C     0.32012   0.47899   0.20038   0.00000  Uiso   1.00
C290   C     0.21542   0.68733   0.09794   0.00000  Uiso   1.00
C291   C     0.14867   0.68217   0.09362   0.00000  Uiso   1.00
C292   C     0.10767   0.71957   0.11336   0.00000  Uiso   1.00
C293   C     0.04864   0.70740   0.10533   0.00000  Uiso   1.00
C294   C     0.23910   0.69103   0.04969   0.00000  Uiso   1.00
C295   C     0.27414   0.73587   0.03251   0.00000  Uiso   1.00
C296   C     0.29124   0.73117   0.98751   0.00000  Uiso   1.00
C297   C     0.23660   0.62842   0.11668   0.00000  Uiso   1.00
C298   C     0.26956   0.62061   0.15582   0.00000  Uiso   1.00
C299   C     0.28457   0.56319   0.16720   0.00000  Uiso   1.00
H300   H     0.16997   0.56198   0.02771   0.00000  Uiso   1.00
H301   H     0.05892   0.58507   0.03799   0.00000  Uiso   1.00
H302   H     0.22538   0.60137   0.95716   0.00000  Uiso   1.00
H303   H     0.22079   0.48613   0.08045   0.00000  Uiso   1.00
H304   H     0.94346   0.63178   0.06121   0.00000  Uiso   1.00
H305   H     0.29445   0.66615   0.89077   0.00000  Uiso   1.00
H306   H     0.28478   0.42313   0.15074   0.00000  Uiso   1.00
H307   H     0.22893   0.72458   0.11882   0.00000  Uiso   1.00
H308   H     0.12111   0.75659   0.13411   0.00000  Uiso   1.00
H309   H     0.28756   0.77289   0.05327   0.00000  Uiso   1.00
H310   H     0.28298   0.65765   0.17655   0.00000  Uiso   1.00
H311   H     0.99393   0.77100   0.13922   0.00000  Uiso   1.00
H312   H     0.34493   0.80536   0.96877   0.00000  Uiso   1.00
H313   H     0.33525   0.56234   0.22875   0.00000  Uiso   1.00
O314   O     0.89671   0.71952   0.10861   0.00000  Uiso   1.00
O315   O     0.35720   0.76460   0.88500   0.00000  Uiso   1.00
O316   O     0.34451   0.44577   0.22608   0.00000  Uiso   1.00
N317   N     0.97013   0.66015   0.07748   0.00000  Uiso   1.00
N318   N     0.29828   0.69228   0.91812   0.00000  Uiso   1.00
N319   N     0.28925   0.46508   0.16117   0.00000  Uiso   1.00
N320   N     0.99729   0.73505   0.11945   0.00000  Uiso   1.00
N321   N     0.32544   0.76719   0.96010   0.00000  Uiso   1.00
N322   N     0.31641   0.53999   0.20315   0.00000  Uiso   1.00
C323   C     0.68348   0.09923   0.54858   0.00000  Uiso   1.00
C324   C     0.63132   0.13432   0.56681   0.00000  Uiso   1.00
C325   C     0.57233   0.12210   0.55875   0.00000  Uiso   1.00
C326   C     0.53126   0.15947   0.57847   0.00000  Uiso   1.00
C327   C     0.44763   0.20669   0.60268   0.00000  Uiso   1.00
C328   C     0.72175   0.14319   0.52289   0.00000  Uiso   1.00
C329   C     0.73880   0.13841   0.47790   0.00000  Uiso   1.00
C330   C     0.77386   0.18324   0.46065   0.00000  Uiso   1.00
C331   C     0.83067   0.24420   0.41667   0.00000  Uiso   1.00
C332   C     0.71925   0.08057   0.58987   0.00000  Uiso   1.00
C333   C     0.73422   0.02314   0.60120   0.00000  Uiso   1.00
C334   C     0.76719   0.01525   0.64035   0.00000  Uiso   1.00
C335   C     0.82012   0.97899   0.70038   0.00000  Uiso   1.00
C336   C     0.71542   0.18733   0.59794   0.00000  Uiso   1.00
C337   C     0.64867   0.18217   0.59362   0.00000  Uiso   1.00
C338   C     0.60767   0.21957   0.61336   0.00000  Uiso   1.00
C339   C     0.54864   0.20740   0.60533   0.00000  Uiso   1.00
C340   C     0.73910   0.19103   0.54969   0.00000  Uiso   1.00
C341   C     0.77414   0.23587   0.53251   0.00000  Uiso   1.00
C342   C     0.79124   0.23117   0.48751   0.00000  Uiso   1.00
C343   C     0.73660   0.12842   0.61668   0.00000  Uiso   1.00
C344   C     0.76956   0.12061   0.65582   0.00000  Uiso   1.00
C345   C     0.78457   0.06319   0.66720   0.00000  Uiso   1.00
H346   H     0.66997   0.06198   0.52771   0.00000  Uiso   1.00
H347   H     0.55892   0.08507   0.53799   0.00000  Uiso   1.00
H348   H     0.72538   0.10137   0.45716   0.00000  Uiso   1.00
H349   H     0.72079   0.98613   0.58045   0.00000  Uiso   1.00
H350   H     0.44346   0.13178   0.56121   0.00000  Uiso   1.00
H351   H     0.79445   0.16615   0.39077   0.00000  Uiso   1.00
H352   H     0.78478   0.92313   0.65074   0.00000  Uiso   1.00
H353   H     0.72893   0.22458   0.61882   0.00000  Uiso   1.00
H354   H     0.62111   0.25659   0.63411   0.00000  Uiso   1.00
H355   H     0.78756   0.27289   0.55327   0.00000  Uiso   1.00
H356   H     0.78298   0.15765   0.67655   0.00000  Uiso   1.00
H357   H     0.49393   0.27100   0.63922   0.00000  Uiso   1.00
H358   H     0.84493   0.30536   0.46877   0.00000  Uiso   1.00
H359   H     0.83525   0.06234   0.72875   0.00000  Uiso   1.00
O360   O     0.39671   0.21952   0.60861   0.00000  Uiso   1.00
O361   O     0.85720   0.26460   0.38500   0.00000  Uiso   1.00
O362   O     0.84451   0.94577   0.72608   0.00000  Uiso   1.00
N363   N     0.47013   0.16015   0.57748   0.00000  Uiso   1.00
N364   N     0.79828   0.19228   0.41812   0.00000  Uiso   1.00
N365   N     0.78925   0.96508   0.66117   0.00000  Uiso   1.00
N366   N     0.49729   0.23505   0.61945   0.00000  Uiso   1.00
N367   N     0.82544   0.26719   0.46010   0.00000  Uiso   1.00
N368   N     0.81641   0.03999   0.70315   0.00000  Uiso   1.00
C369   C     0.40077   0.31652   0.79858   0.00000  Uiso   1.00
C370   C     0.36568   0.36868   0.81681   0.00000  Uiso   1.00
C371   C     0.37790   0.42767   0.80875   0.00000  Uiso   1.00
C372   C     0.34053   0.46874   0.82847   0.00000  Uiso   1.00
C373   C     0.29331   0.55237   0.85268   0.00000  Uiso   1.00
C374   C     0.35681   0.27825   0.77289   0.00000  Uiso   1.00
C375   C     0.36159   0.26120   0.72790   0.00000  Uiso   1.00
C376   C     0.31676   0.22614   0.71065   0.00000  Uiso   1.00
C377   C     0.25580   0.16933   0.66667   0.00000  Uiso   1.00
C378   C     0.41943   0.28075   0.83987   0.00000  Uiso   1.00
C379   C     0.47686   0.26578   0.85120   0.00000  Uiso   1.00
C380   C     0.48475   0.23281   0.89035   0.00000  Uiso   1.00
C381   C     0.52101   0.17988   0.95038   0.00000  Uiso   1.00
C382   C     0.31267   0.28458   0.84794   0.00000  Uiso   1.00
C383   C     0.31783   0.35133   0.84362   0.00000  Uiso   1.00
C384   C     0.28043   0.39233   0.86336   0.00000  Uiso   1.00
C385   C     0.29260   0.45136   0.85533   0.00000  Uiso   1.00
C386   C     0.30897   0.26090   0.79969   0.00000  Uiso   1.00
C387   C     0.26413   0.22586   0.78251   0.00000  Uiso   1.00
C388   C     0.26883   0.20876   0.73751   0.00000  Uiso   1.00
C389   C     0.37158   0.26340   0.86668   0.00000  Uiso   1.00
C390   C     0.37939   0.23044   0.90582   0.00000  Uiso   1.00
C391   C     0.43681   0.21543   0.91720   0.00000  Uiso   1.00
H392   H     0.43802   0.33003   0.77771   0.00000  Uiso   1.00
H393   H     0.41493   0.44108   0.78799   0.00000  Uiso   1.00
H394   H     0.39863   0.27462   0.70716   0.00000  Uiso   1.00
H395   H     0.51387   0.27921   0.83045   0.00000  Uiso   1.00
H396   H     0.36822   0.55654   0.81121   0.00000  Uiso   1.00
H397   H     0.33385   0.20555   0.64077   0.00000  Uiso   1.00
H398   H     0.57687   0.21522   0.90074   0.00000  Uiso   1.00
H399   H     0.27542   0.27107   0.86882   0.00000  Uiso   1.00
H400   H     0.24341   0.37889   0.88411   0.00000  Uiso   1.00
H401   H     0.22711   0.21244   0.80327   0.00000  Uiso   1.00
H402   H     0.34235   0.21702   0.92655   0.00000  Uiso   1.00
H403   H     0.22900   0.50607   0.88922   0.00000  Uiso   1.00
H404   H     0.19464   0.15507   0.71877   0.00000  Uiso   1.00
H405   H     0.43766   0.16475   0.97875   0.00000  Uiso   1.00
O406   O     0.28048   0.60329   0.85861   0.00000  Uiso   1.00
O407   O     0.23540   0.14280   0.63500   0.00000  Uiso   1.00
O408   O     0.55423   0.15549   0.97608   0.00000  Uiso   1.00
N409   N     0.33985   0.52987   0.82748   0.00000  Uiso   1.00
N410   N     0.30772   0.20172   0.66812   0.00000  Uiso   1.00
N411   N     0.53492   0.21075   0.91117   0.00000  Uiso   1.00
N412   N     0.26495   0.50271   0.86945   0.00000  Uiso   1.00
N413   N     0.23281   0.17456   0.71010   0.00000  Uiso   1.00
N414   N     0.46001   0.18359   0.95315   0.00000  Uiso   1.00
C415   C     0.90077   0.81652   0.29858   0.00000  Uiso   1.00
C416   C     0.86568   0.86868   0.31681   0.00000  Uiso   1.00
C417   C     0.87790   0.92767   0.30875   0.00000  Uiso   1.00
C418   C     0.84053   0.96874   0.32847   0.00000  Uiso   1.00
C419   C     0.79331   0.05237   0.35268   0.00000  Uiso   1.00
C420   C     0.85681   0.77825   0.27289   0.00000  Uiso   1.00
C421   C     0.86159   0.76120   0.22790   0.00000  Uiso   1.00
C422   C     0.81676   0.72614   0.21065   0.00000  Uiso   1.00
C423   C     0.75580   0.66933   0.16667   0.00000  Uiso   1.00
C424   C     0.91943   0.78075   0.33987   0.00000  Uiso   1.00
C425   C     0.97686   0.76578   0.35120   0.00000  Uiso   1.00
C426   C     0.98475   0.73281   0.39035   0.00000  Uiso   1.00
C427   C     0.02101   0.67988   0.45038   0.00000  Uiso   1.00
C428   C     0.81267   0.78458   0.34794   0.00000  Uiso   1.00
C429   C     0.81783   0.85133   0.34362   0.00000  Uiso   1.00
C430   C     0.78043   0.89233   0.36336   0.00000  Uiso   1.00
C431   C     0.79260   0.95136   0.35533   0.00000  Uiso   1.00
C432   C     0.80897   0.76090   0.29969   0.00000  Uiso   1.00
C433   C     0.76413   0.72586   0.28251   0.00000  Uiso   1.00
C434   C     0.76883   0.70876   0.23751   0.00000  Uiso   1.00
C435   C     0.87158   0.76340   0.36668   0.00000  Uiso   1.00
C436   C     0.87939   0.73044   0.40582   0.00000  Uiso   1.00
C437   C     0.93681   0.71543   0.41720   0.00000  Uiso   1.00
H438   H     0.93802   0.83003   0.27771   0.00000  Uiso   1.00
H439   H     0.91493   0.94108   0.28799   0.00000  Uiso   1.00
H440   H     0.89863   0.77462   0.20716   0.00000  Uiso   1.00
H441   H     0.01387   0.77921   0.33045   0.00000  Uiso   1.00
H442   H     0.86822   0.05654   0.31121   0.00000  Uiso   1.00
H443   H     0.83385   0.70555   0.14077   0.00000  Uiso   1.00
H444   H     0.07687   0.71522   0.40074   0.00000  Uiso   1.00
H445   H     0.77542   0.77107   0.36882   0.00000  Uiso   1.00
H446   H     0.74341   0.87889   0.38411   0.00000  Uiso   1.00
H447   H     0.72711   0.71244   0.30327   0.00000  Uiso   1.00
H448   H     0.84235   0.71702   0.42655   0.00000  Uiso   1.00
H449   H     0.72900   0.00607   0.38922   0.00000  Uiso   1.00
H450   H     0.69464   0.65507   0.21877   0.00000  Uiso   1.00
H451   H     0.93766   0.66475   0.47875   0.00000  Uiso   1.00
O452   O     0.78048   0.10329   0.35861   0.00000  Uiso   1.00
O453   O     0.73540   0.64280   0.13500   0.00000  Uiso   1.00
O454   O     0.05423   0.65549   0.47608   0.00000  Uiso   1.00
N455   N     0.83985   0.02987   0.32748   0.00000  Uiso   1.00
N456   N     0.80772   0.70172   0.16812   0.00000  Uiso   1.00
N457   N     0.03492   0.71075   0.41117   0.00000  Uiso   1.00
N458   N     0.76495   0.00271   0.36945   0.00000  Uiso   1.00
N459   N     0.73281   0.67456   0.21010   0.00000  Uiso   1.00
N460   N     0.96001   0.68359   0.45315   0.00000  Uiso   1.00
C461   C     0.09923   0.18348   0.29858   0.00000  Uiso   1.00
C462   C     0.13432   0.13132   0.31681   0.00000  Uiso   1.00
C463   C     0.12210   0.07233   0.30875   0.00000  Uiso   1.00
C464   C     0.15947   0.03126   0.32847   0.00000  Uiso   1.00
C465   C     0.20669   0.94763   0.35268   0.00000  Uiso   1.00
C466   C     0.14319   0.22175   0.27289   0.00000  Uiso   1.00
C467   C     0.13841   0.23880   0.22790   0.00000  Uiso   1.00
C468   C     0.18324   0.27386   0.21065   0.00000  Uiso   1.00
C469   C     0.24420   0.33067   0.16667   0.00000  Uiso   1.00
C470   C     0.08057   0.21925   0.33987   0.00000  Uiso   1.00
C471   C     0.02314   0.23422   0.35120   0.00000  Uiso   1.00
C472   C     0.01525   0.26719   0.39035   0.00000  Uiso   1.00
C473   C     0.97899   0.32012   0.45038   0.00000  Uiso   1.00
C474   C     0.18733   0.21542   0.34794   0.00000  Uiso   1.00
C475   C     0.18217   0.14867   0.34362   0.00000  Uiso   1.00
C476   C     0.21957   0.10767   0.36336   0.00000  Uiso   1.00
C477   C     0.20740   0.04864   0.35533   0.00000  Uiso   1.00
C478   C     0.19103   0.23910   0.29969   0.00000  Uiso   1.00
C479   C     0.23587   0.27414   0.28251   0.00000  Uiso   1.00
C480   C     0.23117   0.29124   0.23751   0.00000  Uiso   1.00
C481   C     0.12842   0.23660   0.36668   0.00000  Uiso   1.00
C482   C     0.12061   0.26956   0.40582   0.00000  Uiso   1.00
C483   C     0.06319   0.28457   0.41720   0.00000  Uiso   1.00
H484   H     0.06198   0.16997   0.27771   0.00000  Uiso   1.00
H485   H     0.08507   0.05892   0.28799   0.00000  Uiso   1.00
H486   H     0.10137   0.22538   0.20716   0.00000  Uiso   1.00
H487   H     0.98613   0.22079   0.33045   0.00000  Uiso   1.00
H488   H     0.13178   0.94346   0.31121   0.00000  Uiso   1.00
H489   H     0.16615   0.29445   0.14077   0.00000  Uiso   1.00
H490   H     0.92313   0.28478   0.40074   0.00000  Uiso   1.00
H491   H     0.22458   0.22893   0.36882   0.00000  Uiso   1.00
H492   H     0.25659   0.12111   0.38411   0.00000  Uiso   1.00
H493   H     0.27289   0.28756   0.30327   0.00000  Uiso   1.00
H494   H     0.15765   0.28298   0.42655   0.00000  Uiso   1.00
H495   H     0.27100   0.99393   0.38922   0.00000  Uiso   1.00
H496   H     0.30536   0.34493   0.21877   0.00000  Uiso   1.00
H497   H     0.06234   0.33525   0.47875   0.00000  Uiso   1.00
O498   O     0.21952   0.89671   0.35861   0.00000  Uiso   1.00
O499   O     0.26460   0.35720   0.13500   0.00000  Uiso   1.00
O500   O     0.94577   0.34451   0.47608   0.00000  Uiso   1.00
N501   N     0.16015   0.97013   0.32748   0.00000  Uiso   1.00
N502   N     0.19228   0.29828   0.16812   0.00000  Uiso   1.00
N503   N     0.96508   0.28925   0.41117   0.00000  Uiso   1.00
N504   N     0.23505   0.99729   0.36945   0.00000  Uiso   1.00
N505   N     0.26719   0.32544   0.21010   0.00000  Uiso   1.00
N506   N     0.03999   0.31641   0.45315   0.00000  Uiso   1.00
C507   C     0.59923   0.68348   0.79858   0.00000  Uiso   1.00
C508   C     0.63432   0.63132   0.81681   0.00000  Uiso   1.00
C509   C     0.62210   0.57233   0.80875   0.00000  Uiso   1.00
C510   C     0.65947   0.53126   0.82847   0.00000  Uiso   1.00
C511   C     0.70669   0.44763   0.85268   0.00000  Uiso   1.00
C512   C     0.64319   0.72175   0.77289   0.00000  Uiso   1.00
C513   C     0.63841   0.73880   0.72790   0.00000  Uiso   1.00
C514   C     0.68324   0.77386   0.71065   0.00000  Uiso   1.00
C515   C     0.74420   0.83067   0.66667   0.00000  Uiso   1.00
C516   C     0.58057   0.71925   0.83987   0.00000  Uiso   1.00
C517   C     0.52314   0.73422   0.85120   0.00000  Uiso   1.00
C518   C     0.51525   0.76719   0.89035   0.00000  Uiso   1.00
C519   C     0.47899   0.82012   0.95038   0.00000  Uiso   1.00
C520   C     0.68733   0.71542   0.84794   0.00000  Uiso   1.00
C521   C     0.68217   0.64867   0.84362   0.00000  Uiso   1.00
C522   C     0.71957   0.60767   0.86336   0.00000  Uiso   1.00
C523   C     0.70740   0.54864   0.85533   0.00000  Uiso   1.00
C524   C     0.69103   0.73910   0.79969   0.00000  Uiso   1.00
C525   C     0.73587   0.77414   0.78251   0.00000  Uiso   1.00
C526   C     0.73117   0.79124   0.73751   0.00000  Uiso   1.00
C527   C     0.62842   0.73660   0.86668   0.00000  Uiso   1.00
C528   C     0.62061   0.76956   0.90582   0.00000  Uiso   1.00
C529   C     0.56319   0.78457   0.91720   0.00000  Uiso   1.00
H530   H     0.56198   0.66997   0.77771   0.00000  Uiso   1.00
H531   H     0.58507   0.55892   0.78799   0.00000  Uiso   1.00
H532   H     0.60137   0.72538   0.70716   0.00000  Uiso   1.00
H533   H     0.48613   0.72079   0.83045   0.00000  Uiso   1.00
H534   H     0.63178   0.44346   0.81121   0.00000  Uiso   1.00
H535   H     0.66615   0.79445   0.64077   0.00000  Uiso   1.00
H536   H     0.42313   0.78478   0.90074   0.00000  Uiso   1.00
H537   H     0.72458   0.72893   0.86882   0.00000  Uiso   1.00
H538   H     0.75659   0.62111   0.88411   0.00000  Uiso   1.00
H539   H     0.77289   0.78756   0.80327   0.00000  Uiso   1.00
H540   H     0.65765   0.78298   0.92655   0.00000  Uiso   1.00
H541   H     0.77100   0.49393   0.88922   0.00000  Uiso   1.00
H542   H     0.80536   0.84493   0.71877   0.00000  Uiso   1.00
H543   H     0.56234   0.83525   0.97875   0.00000  Uiso   1.00
O544   O     0.71952   0.39671   0.85861   0.00000  Uiso   1.00
O545   O     0.76460   0.85720   0.63500   0.00000  Uiso   1.00
O546   O     0.44577   0.84451   0.97608   0.00000  Uiso   1.00
N547   N     0.66015   0.47013   0.82748   0.00000  Uiso   1.00
N548   N     0.69228   0.79828   0.66812   0.00000  Uiso   1.00
N549   N     0.46508   0.78925   0.91117   0.00000  Uiso   1.00
N550   N     0.73505   0.49729   0.86945   0.00000  Uiso   1.00
N551   N     0.76719   0.82544   0.71010   0.00000  Uiso   1.00
N552   N     0.53999   0.81641   0.95315   0.00000  Uiso   1.00
C553   C     0.31652   0.09923   0.04858   0.00000  Uiso   1.00
C554   C     0.36868   0.13432   0.06681   0.00000  Uiso   1.00
C555   C     0.42767   0.12210   0.05875   0.00000  Uiso   1.00
C556   C     0.46874   0.15947   0.07847   0.00000  Uiso   1.00
C557   C     0.55237   0.20669   0.10268   0.00000  Uiso   1.00
C558   C     0.27825   0.14319   0.02289   0.00000  Uiso   1.00
C559   C     0.26120   0.13841   0.97790   0.00000  Uiso   1.00
C560   C     0.22614   0.18324   0.96065   0.00000  Uiso   1.00
C561   C     0.16933   0.24420   0.91667   0.00000  Uiso   1.00
C562   C     0.28075   0.08057   0.08987   0.00000  Uiso   1.00
C563   C     0.26578   0.02314   0.10120   0.00000  Uiso   1.00
C564   C     0.23281   0.01525   0.14035   0.00000  Uiso   1.00
C565   C     0.17988   0.97899   0.20038   0.00000  Uiso   1.00
C566   C     0.28458   0.18733   0.09794   0.00000  Uiso   1.00
C567   C     0.35133   0.18217   0.09362   0.00000  Uiso   1.00
C568   C     0.39233   0.21957   0.11336   0.00000  Uiso   1.00
C569   C     0.45136   0.20740   0.10533   0.00000  Uiso   1.00
C570   C     0.26090   0.19103   0.04969   0.00000  Uiso   1.00
C571   C     0.22586   0.23587   0.03251   0.00000  Uiso   1.00
C572   C     0.20876   0.23117   0.98751   0.00000  Uiso   1.00
C573   C     0.26340   0.12842   0.11668   0.00000  Uiso   1.00
C574   C     0.23044   0.12061   0.15582   0.00000  Uiso   1.00
C575   C     0.21543   0.06319   0.16720   0.00000  Uiso   1.00
H576   H     0.33003   0.06198   0.02771   0.00000  Uiso   1.00
H577   H     0.44108   0.08507   0.03799   0.00000  Uiso   1.00
H578   H     0.27462   0.10137   0.95716   0.00000  Uiso   1.00
H579   H     0.27921   0.98613   0.08045   0.00000  Uiso   1.00
H580   H     0.55654   0.13178   0.06121   0.00000  Uiso   1.00
H581   H     0.20555   0.16615   0.89077   0.00000  Uiso   1.00
H582   H     0.21522   0.92313   0.15074   0.00000  Uiso   1.00
H583   H     0.27107   0.22458   0.11882   0.00000  Uiso   1.00
H584   H     0.37889   0.25659   0.13411   0.00000  Uiso   1.00
H585   H     0.21244   0.27289   0.05327   0.00000  Uiso   1.00
H586   H     0.21702   0.15765   0.17655   0.00000  Uiso   1.00
H587   H     0.50607   0.27100   0.13922   0.00000  Uiso   1.00
H588   H     0.15507   0.30536   0.96877   0.00000  Uiso   1.00
H589   H     0.16475   0.06234   0.22875   0.00000  Uiso   1.00
O590   O     0.60329   0.21952   0.10861   0.00000  Uiso   1.00
O591   O     0.14280   0.26460   0.88500   0.00000  Uiso   1.00
O592   O     0.15549   0.94577   0.22608   0.00000  Uiso   1.00
N593   N     0.52987   0.16015   0.07748   0.00000  Uiso   1.00
N594   N     0.20172   0.19228   0.91812   0.00000  Uiso   1.00
N595   N     0.21075   0.96508   0.16117   0.00000  Uiso   1.00
N596   N     0.50271   0.23505   0.11945   0.00000  Uiso   1.00
N597   N     0.17456   0.26719   0.96010   0.00000  Uiso   1.00
N598   N     0.18359   0.03999   0.20315   0.00000  Uiso   1.00
C599   C     0.81652   0.59923   0.54858   0.00000  Uiso   1.00
C600   C     0.86868   0.63432   0.56681   0.00000  Uiso   1.00
C601   C     0.92767   0.62210   0.55875   0.00000  Uiso   1.00
C602   C     0.96874   0.65947   0.57847   0.00000  Uiso   1.00
C603   C     0.05237   0.70669   0.60268   0.00000  Uiso   1.00
C604   C     0.77825   0.64319   0.52289   0.00000  Uiso   1.00
C605   C     0.76120   0.63841   0.47790   0.00000  Uiso   1.00
C606   C     0.72614   0.68324   0.46065   0.00000  Uiso   1.00
C607   C     0.66933   0.74420   0.41667   0.00000  Uiso   1.00
C608   C     0.78075   0.58057   0.58987   0.00000  Uiso   1.00
C609   C     0.76578   0.52314   0.60120   0.00000  Uiso   1.00
C610   C     0.73281   0.51525   0.64035   0.00000  Uiso   1.00
C611   C     0.67988   0.47899   0.70038   0.00000  Uiso   1.00
C612   C     0.78458   0.68733   0.59794   0.00000  Uiso   1.00
C613   C     0.85133   0.68217   0.59362   0.00000  Uiso   1.00
C614   C     0.89233   0.71957   0.61336   0.00000  Uiso   1.00
C615   C     0.95136   0.70740   0.60533   0.00000  Uiso   1.00
C616   C     0.76090   0.69103   0.54969   0.00000  Uiso   1.00
C617   C     0.72586   0.73587   0.53251   0.00000  Uiso   1.00
C618   C     0.70876   0.73117   0.48751   0.00000  Uiso   1.00
C619   C     0.76340   0.62842   0.61668   0.00000  Uiso   1.00
C620   C     0.73044   0.62061   0.65582   0.00000  Uiso   1.00
C621   C     0.71543   0.56319   0.66720   0.00000  Uiso   1.00
H622   H     0.83003   0.56198   0.52771   0.00000  Uiso   1.00
H623   H     0.94108   0.58507   0.53799   0.00000  Uiso   1.00
H624   H     0.77462   0.60137   0.45716   0.00000  Uiso   1.00
H625   H     0.77921   0.48613   0.58045   0.00000  Uiso   1.00
H626   H     0.05654   0.63178   0.56121   0.00000  Uiso   1.00
H627   H     0.70555   0.66615   0.39077   0.00000  Uiso   1.00
H628   H     0.71522   0.42313   0.65074   0.00000  Uiso   1.00
H629   H     0.77107   0.72458   0.61882   0.00000  Uiso   1.00
H630   H     0.87889   0.75659   0.63411   0.00000  Uiso   1.00
H631   H     0.71244   0.77289   0.55327   0.00000  Uiso   1.00
H632   H     0.71702   0.65765   0.67655   0.00000  Uiso   1.00
H633   H     0.00607   0.77100   0.63922   0.00000  Uiso   1.00
H634   H     0.65507   0.80536   0.46877   0.00000  Uiso   1.00
H635   H     0.66475   0.56234   0.72875   0.00000  Uiso   1.00
O636   O     0.10329   0.71952   0.60861   0.00000  Uiso   1.00
O637   O     0.64280   0.76460   0.38500   0.00000  Uiso   1.00
O638   O     0.65549   0.44577   0.72608   0.00000  Uiso   1.00
N639   N     0.02987   0.66015   0.57748   0.00000  Uiso   1.00
N640   N     0.70172   0.69228   0.41812   0.00000  Uiso   1.00
N641   N     0.71075   0.46508   0.66117   0.00000  Uiso   1.00
N642   N     0.00271   0.73505   0.61945   0.00000  Uiso   1.00
N643   N     0.67456   0.76719   0.46010   0.00000  Uiso   1.00
N644   N     0.68359   0.53999   0.70315   0.00000  Uiso   1.00
C645   C     0.18348   0.40077   0.54858   0.00000  Uiso   1.00
C646   C     0.13132   0.36568   0.56681   0.00000  Uiso   1.00
C647   C     0.07233   0.37790   0.55875   0.00000  Uiso   1.00
C648   C     0.03126   0.34053   0.57847   0.00000  Uiso   1.00
C649   C     0.94763   0.29331   0.60268   0.00000  Uiso   1.00
C650   C     0.22175   0.35681   0.52289   0.00000  Uiso   1.00
C651   C     0.23880   0.36159   0.47790   0.00000  Uiso   1.00
C652   C     0.27386   0.31676   0.46065   0.00000  Uiso   1.00
C653   C     0.33067   0.25580   0.41667   0.00000  Uiso   1.00
C654   C     0.21925   0.41943   0.58987   0.00000  Uiso   1.00
C655   C     0.23422   0.47686   0.60120   0.00000  Uiso   1.00
C656   C     0.26719   0.48475   0.64035   0.00000  Uiso   1.00
C657   C     0.32012   0.52101   0.70038   0.00000  Uiso   1.00
C658   C     0.21542   0.31267   0.59794   0.00000  Uiso   1.00
C659   C     0.14867   0.31783   0.59362   0.00000  Uiso   1.00
C660   C     0.10767   0.28043   0.61336   0.00000  Uiso   1.00
C661   C     0.04864   0.29260   0.60533   0.00000  Uiso   1.00
C662   C     0.23910   0.30897   0.54969   0.00000  Uiso   1.00
C663   C     0.27414   0.26413   0.53251   0.00000  Uiso   1.00
C664   C     0.29124   0.26883   0.48751   0.00000  Uiso   1.00
C665   C     0.23660   0.37158   0.61668   0.00000  Uiso   1.00
C666   C     0.26956   0.37939   0.65582   0.00000  Uiso   1.00
C667   C     0.28457   0.43681   0.66720   0.00000  Uiso   1.00
H668   H     0.16997   0.43802   0.52771   0.00000  Uiso   1.00
H669   H     0.05892   0.41493   0.53799   0.00000  Uiso   1.00
H670   H     0.22538   0.39863   0.45716   0.00000  Uiso   1.00
H671   H     0.22079   0.51387   0.58045   0.00000  Uiso   1.00
H672   H     0.94346   0.36822   0.56121   0.00000  Uiso   1.00
H673   H     0.29445   0.33385   0.39077   0.00000  Uiso   1.00
H674   H     0.28478   0.57687   0.65074   0.00000  Uiso   1.00
H675   H     0.22893   0.27542   0.61882   0.00000  Uiso   1.00
H676   H     0.12111   0.24341   0.63411   0.00000  Uiso   1.00
H677   H     0.28756   0.22711   0.55327   0.00000  Uiso   1.00
H678   H     0.28298   0.34235   0.67655   0.00000  Uiso   1.00
H679   H     0.99393   0.22900   0.63922   0.00000  Uiso   1.00
H680   H     0.34493   0.19464   0.46877   0.00000  Uiso   1.00
H681   H     0.33525   0.43766   0.72875   0.00000  Uiso   1.00
O682   O     0.89671   0.28048   0.60861   0.00000  Uiso   1.00
O683   O     0.35720   0.23540   0.38500   0.00000  Uiso   1.00
O684   O     0.34451   0.55423   0.72608   0.00000  Uiso   1.00
N685   N     0.97013   0.33985   0.57748   0.00000  Uiso   1.00
N686   N     0.29828   0.30772   0.41812   0.00000  Uiso   1.00
N687   N     0.28925   0.53492   0.66117   0.00000  Uiso   1.00
N688   N     0.99729   0.26495   0.61945   0.00000  Uiso   1.00
N689   N     0.32544   0.23281   0.46010   0.00000  Uiso   1.00
N690   N     0.31641   0.46001   0.70315   0.00000  Uiso   1.00
C691   C     0.68348   0.90077   0.04858   0.00000  Uiso   1.00
C692   C     0.63132   0.86568   0.06681   0.00000  Uiso   1.00
C693   C     0.57233   0.87790   0.05875   0.00000  Uiso   1.00
C694   C     0.53126   0.84053   0.07847   0.00000  Uiso   1.00
C695   C     0.44763   0.79331   0.10268   0.00000  Uiso   1.00
C696   C     0.72175   0.85681   0.02289   0.00000  Uiso   1.00
C697   C     0.73880   0.86159   0.97790   0.00000  Uiso   1.00
C698   C     0.77386   0.81676   0.96065   0.00000  Uiso   1.00
C699   C     0.83067   0.75580   0.91667   0.00000  Uiso   1.00
C700   C     0.71925   0.91943   0.08987   0.00000  Uiso   1.00
C701   C     0.73422   0.97686   0.10120   0.00000  Uiso   1.00
C702   C     0.76719   0.98475   0.14035   0.00000  Uiso   1.00
C703   C     0.82012   0.02101   0.20038   0.00000  Uiso   1.00
C704   C     0.71542   0.81267   0.09794   0.00000  Uiso   1.00
C705   C     0.64867   0.81783   0.09362   0.00000  Uiso   1.00
C706   C     0.60767   0.78043   0.11336   0.00000  Uiso   1.00
C707   C     0.54864   0.79260   0.10533   0.00000  Uiso   1.00
C708   C     0.73910   0.80897   0.04969   0.00000  Uiso   1.00
C709   C     0.77414   0.76413   0.03251   0.00000  Uiso   1.00
C710   C     0.79124   0.76883   0.98751   0.00000  Uiso   1.00
C711   C     0.73660   0.87158   0.11668   0.00000  Uiso   1.00
C712   C     0.76956   0.87939   0.15582   0.00000  Uiso   1.00
C713   C     0.78457   0.93681   0.16720   0.00000  Uiso   1.00
H714   H     0.66997   0.93802   0.02771   0.00000  Uiso   1.00
H715   H     0.55892   0.91493   0.03799   0.00000  Uiso   1.00
H716   H     0.72538   0.89863   0.95716   0.00000  Uiso   1.00
H717   H     0.72079   0.01387   0.08045   0.00000  Uiso   1.00
H718   H     0.44346   0.86822   0.06121   0.00000  Uiso   1.00
H719   H     0.79445   0.83385   0.89077   0.00000  Uiso   1.00
H720   H     0.78478   0.07687   0.15074   0.00000  Uiso   1.00
H721   H     0.72893   0.77542   0.11882   0.00000  Uiso   1.00
H722   H     0.62111   0.74341   0.13411   0.00000  Uiso   1.00
H723   H     0.78756   0.72711   0.05327   0.00000  Uiso   1.00
H724   H     0.78298   0.84235   0.17655   0.00000  Uiso   1.00
H725   H     0.49393   0.72900   0.13922   0.00000  Uiso   1.00
H726   H     0.84493   0.69464   0.96877   0.00000  Uiso   1.00
H727   H     0.83525   0.93766   0.22875   0.00000  Uiso   1.00
O728   O     0.39671   0.78048   0.10861   0.00000  Uiso   1.00
O729   O     0.85720   0.73540   0.88500   0.00000  Uiso   1.00
O730   O     0.84451   0.05423   0.22608   0.00000  Uiso   1.00
N731   N     0.47013   0.83985   0.07748   0.00000  Uiso   1.00
N732   N     0.79828   0.80772   0.91812   0.00000  Uiso   1.00
N733   N     0.78925   0.03492   0.16117   0.00000  Uiso   1.00
N734   N     0.49729   0.76495   0.11945   0.00000  Uiso   1.00
N735   N     0.82544   0.73281   0.96010   0.00000  Uiso   1.00
N736   N     0.81641   0.96001   0.20315   0.00000  Uiso   1.00
