data_job_01708
_audit_creation_date              2018-12-19
_audit_creation_method            'Materials Studio'
_symmetry_space_group_name_H-M    'P1'
_symmetry_Int_Tables_number       1
_symmetry_cell_setting            triclinic
loop_
_symmetry_equiv_pos_as_xyz
  x,y,z
_cell_length_a                    21.5676
_cell_length_b                    21.5676
_cell_length_c                    23.2961
_cell_angle_alpha                 90.0000
_cell_angle_beta                  90.0000
_cell_angle_gamma                 90.0000
loop_
_atom_site_label
_atom_site_type_symbol
_atom_site_fract_x
_atom_site_fract_y
_atom_site_fract_z
_atom_site_U_iso_or_equiv
_atom_site_adp_type
_atom_site_occupancy
C1     C     0.99984   0.20164   0.42928   0.00000  Uiso   1.00
C2     C     0.96611   0.23557   0.38109   0.00000  Uiso   1.00
C3     C     0.90370   0.22960   0.36768   0.00000  Uiso   1.00
C4     C     0.88168   0.26462   0.32202   0.00000  Uiso   1.00
C5     C     0.82336   0.31127   0.25190   0.00000  Uiso   1.00
C6     C     0.05361   0.16743   0.40093   0.00000  Uiso   1.00
C7     C     0.06478   0.10415   0.40420   0.00000  Uiso   1.00
C8     C     0.11642   0.08182   0.37524   0.00000  Uiso   1.00
C9     C     0.19398   0.02267   0.33596   0.00000  Uiso   1.00
C10    C     0.02907   0.25183   0.46661   0.00000  Uiso   1.00
C11    C     0.01962   0.25952   0.52510   0.00000  Uiso   1.00
C12    C     0.05062   0.30824   0.55145   0.00000  Uiso   1.00
C13    C     0.09008   0.38015   0.61414   0.00000  Uiso   1.00
C14    C     0.07171   0.27448   0.37206   0.00000  Uiso   1.00
C15    C     0.00514   0.27514   0.35001   0.00000  Uiso   1.00
C16    C     0.98321   0.31019   0.30436   0.00000  Uiso   1.00
C17    C     0.92078   0.30426   0.29088   0.00000  Uiso   1.00
C18    C     0.09264   0.20699   0.36985   0.00000  Uiso   1.00
C19    C     0.14429   0.18474   0.34089   0.00000  Uiso   1.00
C20    C     0.15553   0.12145   0.34411   0.00000  Uiso   1.00
C21    C     0.06811   0.29140   0.43553   0.00000  Uiso   1.00
C22    C     0.09913   0.34011   0.46179   0.00000  Uiso   1.00
C23    C     0.08973   0.34787   0.52031   0.00000  Uiso   1.00
H24    H     0.96946   0.17084   0.45348   0.00000  Uiso   1.00
H25    H     0.87351   0.19897   0.39174   0.00000  Uiso   1.00
H26    H     0.03456   0.07355   0.42826   0.00000  Uiso   1.00
H27    H     0.98941   0.22889   0.54914   0.00000  Uiso   1.00
H28    H     0.78435   0.24759   0.30956   0.00000  Uiso   1.00
H29    H     0.12396   0.98314   0.38659   0.00000  Uiso   1.00
H30    H     0.02874   0.31071   0.64150   0.00000  Uiso   1.00
H31    H     0.10211   0.30528   0.34786   0.00000  Uiso   1.00
H32    H     0.01343   0.34080   0.28032   0.00000  Uiso   1.00
H33    H     0.17449   0.21537   0.31684   0.00000  Uiso   1.00
H34    H     0.12934   0.37072   0.43772   0.00000  Uiso   1.00
H35    H     0.89792   0.36270   0.21913   0.00000  Uiso   1.00
H36    H     0.23753   0.09824   0.29616   0.00000  Uiso   1.00
H37    H     0.14231   0.42582   0.55106   0.00000  Uiso   1.00
O38    O     0.78041   0.32607   0.22181   0.00000  Uiso   1.00
O39    O     0.22597   0.97911   0.32287   0.00000  Uiso   1.00
O40    O     0.10105   0.40889   0.65730   0.00000  Uiso   1.00
N41    N     0.82325   0.26982   0.29755   0.00000  Uiso   1.00
N42    N     0.14075   0.02257   0.36956   0.00000  Uiso   1.00
N43    N     0.05175   0.32881   0.60788   0.00000  Uiso   1.00
N44    N     0.88436   0.33176   0.24889   0.00000  Uiso   1.00
N45    N     0.20186   0.08451   0.32090   0.00000  Uiso   1.00
N46    N     0.11286   0.39075   0.55922   0.00000  Uiso   1.00
C47    C     0.00016   0.79836   0.42928   0.00000  Uiso   1.00
C48    C     0.03389   0.76443   0.38109   0.00000  Uiso   1.00
C49    C     0.09630   0.77040   0.36768   0.00000  Uiso   1.00
C50    C     0.11832   0.73538   0.32202   0.00000  Uiso   1.00
C51    C     0.17664   0.68873   0.25190   0.00000  Uiso   1.00
C52    C     0.94639   0.83257   0.40093   0.00000  Uiso   1.00
C53    C     0.93522   0.89585   0.40420   0.00000  Uiso   1.00
C54    C     0.88358   0.91818   0.37524   0.00000  Uiso   1.00
C55    C     0.80602   0.97733   0.33596   0.00000  Uiso   1.00
C56    C     0.97093   0.74817   0.46661   0.00000  Uiso   1.00
C57    C     0.98038   0.74048   0.52510   0.00000  Uiso   1.00
C58    C     0.94938   0.69176   0.55145   0.00000  Uiso   1.00
C59    C     0.90992   0.61985   0.61414   0.00000  Uiso   1.00
C60    C     0.92829   0.72552   0.37206   0.00000  Uiso   1.00
C61    C     0.99486   0.72486   0.35001   0.00000  Uiso   1.00
C62    C     0.01679   0.68981   0.30436   0.00000  Uiso   1.00
C63    C     0.07922   0.69574   0.29088   0.00000  Uiso   1.00
C64    C     0.90736   0.79301   0.36985   0.00000  Uiso   1.00
C65    C     0.85571   0.81526   0.34089   0.00000  Uiso   1.00
C66    C     0.84447   0.87855   0.34411   0.00000  Uiso   1.00
C67    C     0.93189   0.70860   0.43553   0.00000  Uiso   1.00
C68    C     0.90087   0.65989   0.46179   0.00000  Uiso   1.00
C69    C     0.91027   0.65213   0.52031   0.00000  Uiso   1.00
H70    H     0.03054   0.82916   0.45348   0.00000  Uiso   1.00
H71    H     0.12649   0.80103   0.39174   0.00000  Uiso   1.00
H72    H     0.96544   0.92645   0.42826   0.00000  Uiso   1.00
H73    H     0.01059   0.77111   0.54914   0.00000  Uiso   1.00
H74    H     0.21565   0.75241   0.30956   0.00000  Uiso   1.00
H75    H     0.87604   0.01686   0.38659   0.00000  Uiso   1.00
H76    H     0.97126   0.68929   0.64150   0.00000  Uiso   1.00
H77    H     0.89789   0.69472   0.34786   0.00000  Uiso   1.00
H78    H     0.98657   0.65920   0.28032   0.00000  Uiso   1.00
H79    H     0.82551   0.78463   0.31684   0.00000  Uiso   1.00
H80    H     0.87066   0.62928   0.43772   0.00000  Uiso   1.00
H81    H     0.10208   0.63730   0.21913   0.00000  Uiso   1.00
H82    H     0.76247   0.90176   0.29616   0.00000  Uiso   1.00
H83    H     0.85769   0.57418   0.55106   0.00000  Uiso   1.00
O84    O     0.21959   0.67393   0.22181   0.00000  Uiso   1.00
O85    O     0.77403   0.02089   0.32287   0.00000  Uiso   1.00
O86    O     0.89895   0.59111   0.65730   0.00000  Uiso   1.00
N87    N     0.17675   0.73018   0.29755   0.00000  Uiso   1.00
N88    N     0.85925   0.97743   0.36956   0.00000  Uiso   1.00
N89    N     0.94825   0.67119   0.60788   0.00000  Uiso   1.00
N90    N     0.11564   0.66824   0.24889   0.00000  Uiso   1.00
N91    N     0.79814   0.91549   0.32090   0.00000  Uiso   1.00
N92    N     0.88714   0.60925   0.55922   0.00000  Uiso   1.00
C93    C     0.29836   0.49984   0.42928   0.00000  Uiso   1.00
C94    C     0.26443   0.46611   0.38109   0.00000  Uiso   1.00
C95    C     0.27040   0.40370   0.36768   0.00000  Uiso   1.00
C96    C     0.23538   0.38168   0.32202   0.00000  Uiso   1.00
C97    C     0.18873   0.32336   0.25190   0.00000  Uiso   1.00
C98    C     0.33257   0.55361   0.40093   0.00000  Uiso   1.00
C99    C     0.39585   0.56478   0.40420   0.00000  Uiso   1.00
C100   C     0.41818   0.61642   0.37524   0.00000  Uiso   1.00
C101   C     0.47733   0.69398   0.33596   0.00000  Uiso   1.00
C102   C     0.24817   0.52907   0.46661   0.00000  Uiso   1.00
C103   C     0.24048   0.51962   0.52510   0.00000  Uiso   1.00
C104   C     0.19176   0.55062   0.55145   0.00000  Uiso   1.00
C105   C     0.11985   0.59008   0.61414   0.00000  Uiso   1.00
C106   C     0.22552   0.57171   0.37206   0.00000  Uiso   1.00
C107   C     0.22486   0.50514   0.35001   0.00000  Uiso   1.00
C108   C     0.18981   0.48321   0.30436   0.00000  Uiso   1.00
C109   C     0.19574   0.42078   0.29088   0.00000  Uiso   1.00
C110   C     0.29301   0.59264   0.36985   0.00000  Uiso   1.00
C111   C     0.31526   0.64429   0.34089   0.00000  Uiso   1.00
C112   C     0.37855   0.65553   0.34411   0.00000  Uiso   1.00
C113   C     0.20860   0.56811   0.43553   0.00000  Uiso   1.00
C114   C     0.15989   0.59913   0.46179   0.00000  Uiso   1.00
C115   C     0.15213   0.58973   0.52031   0.00000  Uiso   1.00
H116   H     0.32916   0.46946   0.45348   0.00000  Uiso   1.00
H117   H     0.30103   0.37351   0.39174   0.00000  Uiso   1.00
H118   H     0.42645   0.53456   0.42826   0.00000  Uiso   1.00
H119   H     0.27111   0.48941   0.54914   0.00000  Uiso   1.00
H120   H     0.25241   0.28435   0.30956   0.00000  Uiso   1.00
H121   H     0.51686   0.62396   0.38659   0.00000  Uiso   1.00
H122   H     0.18929   0.52874   0.64150   0.00000  Uiso   1.00
H123   H     0.19472   0.60211   0.34786   0.00000  Uiso   1.00
H124   H     0.15920   0.51343   0.28032   0.00000  Uiso   1.00
H125   H     0.28463   0.67449   0.31684   0.00000  Uiso   1.00
H126   H     0.12928   0.62934   0.43772   0.00000  Uiso   1.00
H127   H     0.13730   0.39792   0.21913   0.00000  Uiso   1.00
H128   H     0.40176   0.73753   0.29616   0.00000  Uiso   1.00
H129   H     0.07418   0.64231   0.55106   0.00000  Uiso   1.00
O130   O     0.17393   0.28041   0.22181   0.00000  Uiso   1.00
O131   O     0.52089   0.72597   0.32287   0.00000  Uiso   1.00
O132   O     0.09111   0.60105   0.65730   0.00000  Uiso   1.00
N133   N     0.23018   0.32325   0.29755   0.00000  Uiso   1.00
N134   N     0.47743   0.64075   0.36956   0.00000  Uiso   1.00
N135   N     0.17119   0.55175   0.60788   0.00000  Uiso   1.00
N136   N     0.16824   0.38436   0.24889   0.00000  Uiso   1.00
N137   N     0.41549   0.70186   0.32090   0.00000  Uiso   1.00
N138   N     0.10925   0.61286   0.55922   0.00000  Uiso   1.00
C139   C     0.70164   0.50016   0.42928   0.00000  Uiso   1.00
C140   C     0.73557   0.53389   0.38109   0.00000  Uiso   1.00
C141   C     0.72960   0.59630   0.36768   0.00000  Uiso   1.00
C142   C     0.76462   0.61832   0.32202   0.00000  Uiso   1.00
C143   C     0.81127   0.67664   0.25190   0.00000  Uiso   1.00
C144   C     0.66743   0.44639   0.40093   0.00000  Uiso   1.00
C145   C     0.60415   0.43522   0.40420   0.00000  Uiso   1.00
C146   C     0.58182   0.38358   0.37524   0.00000  Uiso   1.00
C147   C     0.52267   0.30602   0.33596   0.00000  Uiso   1.00
C148   C     0.75183   0.47093   0.46661   0.00000  Uiso   1.00
C149   C     0.75952   0.48038   0.52510   0.00000  Uiso   1.00
C150   C     0.80824   0.44938   0.55145   0.00000  Uiso   1.00
C151   C     0.88015   0.40992   0.61414   0.00000  Uiso   1.00
C152   C     0.77448   0.42829   0.37206   0.00000  Uiso   1.00
C153   C     0.77514   0.49486   0.35001   0.00000  Uiso   1.00
C154   C     0.81019   0.51679   0.30436   0.00000  Uiso   1.00
C155   C     0.80426   0.57922   0.29088   0.00000  Uiso   1.00
C156   C     0.70699   0.40736   0.36985   0.00000  Uiso   1.00
C157   C     0.68474   0.35571   0.34089   0.00000  Uiso   1.00
C158   C     0.62145   0.34447   0.34411   0.00000  Uiso   1.00
C159   C     0.79140   0.43189   0.43553   0.00000  Uiso   1.00
C160   C     0.84011   0.40087   0.46179   0.00000  Uiso   1.00
C161   C     0.84787   0.41027   0.52031   0.00000  Uiso   1.00
H162   H     0.67084   0.53054   0.45348   0.00000  Uiso   1.00
H163   H     0.69897   0.62649   0.39174   0.00000  Uiso   1.00
H164   H     0.57355   0.46544   0.42826   0.00000  Uiso   1.00
H165   H     0.72889   0.51059   0.54914   0.00000  Uiso   1.00
H166   H     0.74759   0.71565   0.30956   0.00000  Uiso   1.00
H167   H     0.48314   0.37604   0.38659   0.00000  Uiso   1.00
H168   H     0.81071   0.47126   0.64150   0.00000  Uiso   1.00
H169   H     0.80528   0.39789   0.34786   0.00000  Uiso   1.00
H170   H     0.84080   0.48657   0.28032   0.00000  Uiso   1.00
H171   H     0.71537   0.32551   0.31684   0.00000  Uiso   1.00
H172   H     0.87072   0.37066   0.43772   0.00000  Uiso   1.00
H173   H     0.86270   0.60208   0.21913   0.00000  Uiso   1.00
H174   H     0.59824   0.26247   0.29616   0.00000  Uiso   1.00
H175   H     0.92582   0.35769   0.55106   0.00000  Uiso   1.00
O176   O     0.82607   0.71959   0.22181   0.00000  Uiso   1.00
O177   O     0.47911   0.27403   0.32287   0.00000  Uiso   1.00
O178   O     0.90889   0.39895   0.65730   0.00000  Uiso   1.00
N179   N     0.76982   0.67675   0.29755   0.00000  Uiso   1.00
N180   N     0.52257   0.35925   0.36956   0.00000  Uiso   1.00
N181   N     0.82881   0.44825   0.60788   0.00000  Uiso   1.00
N182   N     0.83176   0.61564   0.24889   0.00000  Uiso   1.00
N183   N     0.58451   0.29814   0.32090   0.00000  Uiso   1.00
N184   N     0.89075   0.38714   0.55922   0.00000  Uiso   1.00
C185   C     0.50016   0.70164   0.07072   0.00000  Uiso   1.00
C186   C     0.53389   0.73557   0.11891   0.00000  Uiso   1.00
C187   C     0.59630   0.72960   0.13232   0.00000  Uiso   1.00
C188   C     0.61832   0.76462   0.17798   0.00000  Uiso   1.00
C189   C     0.67664   0.81127   0.24810   0.00000  Uiso   1.00
C190   C     0.44639   0.66743   0.09907   0.00000  Uiso   1.00
C191   C     0.43522   0.60415   0.09580   0.00000  Uiso   1.00
C192   C     0.38358   0.58182   0.12476   0.00000  Uiso   1.00
C193   C     0.30602   0.52267   0.16404   0.00000  Uiso   1.00
C194   C     0.47093   0.75183   0.03339   0.00000  Uiso   1.00
C195   C     0.48038   0.75952   0.97490   0.00000  Uiso   1.00
C196   C     0.44938   0.80824   0.94855   0.00000  Uiso   1.00
C197   C     0.40992   0.88015   0.88586   0.00000  Uiso   1.00
C198   C     0.42829   0.77448   0.12794   0.00000  Uiso   1.00
C199   C     0.49486   0.77514   0.14999   0.00000  Uiso   1.00
C200   C     0.51679   0.81019   0.19564   0.00000  Uiso   1.00
C201   C     0.57922   0.80426   0.20912   0.00000  Uiso   1.00
C202   C     0.40736   0.70699   0.13015   0.00000  Uiso   1.00
C203   C     0.35571   0.68474   0.15911   0.00000  Uiso   1.00
C204   C     0.34447   0.62145   0.15589   0.00000  Uiso   1.00
C205   C     0.43189   0.79140   0.06447   0.00000  Uiso   1.00
C206   C     0.40087   0.84011   0.03821   0.00000  Uiso   1.00
C207   C     0.41027   0.84787   0.97969   0.00000  Uiso   1.00
H208   H     0.53054   0.67084   0.04652   0.00000  Uiso   1.00
H209   H     0.62649   0.69897   0.10826   0.00000  Uiso   1.00
H210   H     0.46544   0.57355   0.07174   0.00000  Uiso   1.00
H211   H     0.51059   0.72889   0.95086   0.00000  Uiso   1.00
H212   H     0.71565   0.74759   0.19044   0.00000  Uiso   1.00
H213   H     0.37604   0.48314   0.11341   0.00000  Uiso   1.00
H214   H     0.47126   0.81071   0.85850   0.00000  Uiso   1.00
H215   H     0.39789   0.80528   0.15214   0.00000  Uiso   1.00
H216   H     0.48657   0.84080   0.21968   0.00000  Uiso   1.00
H217   H     0.32551   0.71537   0.18316   0.00000  Uiso   1.00
H218   H     0.37066   0.87072   0.06228   0.00000  Uiso   1.00
H219   H     0.60208   0.86270   0.28087   0.00000  Uiso   1.00
H220   H     0.26247   0.59824   0.20384   0.00000  Uiso   1.00
H221   H     0.35769   0.92582   0.94894   0.00000  Uiso   1.00
O222   O     0.71959   0.82607   0.27819   0.00000  Uiso   1.00
O223   O     0.27403   0.47911   0.17713   0.00000  Uiso   1.00
O224   O     0.39895   0.90889   0.84270   0.00000  Uiso   1.00
N225   N     0.67675   0.76982   0.20245   0.00000  Uiso   1.00
N226   N     0.35925   0.52257   0.13044   0.00000  Uiso   1.00
N227   N     0.44825   0.82881   0.89212   0.00000  Uiso   1.00
N228   N     0.61564   0.83176   0.25111   0.00000  Uiso   1.00
N229   N     0.29814   0.58451   0.17910   0.00000  Uiso   1.00
N230   N     0.38714   0.89075   0.94078   0.00000  Uiso   1.00
C231   C     0.49984   0.29836   0.07072   0.00000  Uiso   1.00
C232   C     0.46611   0.26443   0.11891   0.00000  Uiso   1.00
C233   C     0.40370   0.27040   0.13232   0.00000  Uiso   1.00
C234   C     0.38168   0.23538   0.17798   0.00000  Uiso   1.00
C235   C     0.32336   0.18873   0.24810   0.00000  Uiso   1.00
C236   C     0.55361   0.33257   0.09907   0.00000  Uiso   1.00
C237   C     0.56478   0.39585   0.09580   0.00000  Uiso   1.00
C238   C     0.61642   0.41818   0.12476   0.00000  Uiso   1.00
C239   C     0.69398   0.47733   0.16404   0.00000  Uiso   1.00
C240   C     0.52907   0.24817   0.03339   0.00000  Uiso   1.00
C241   C     0.51962   0.24048   0.97490   0.00000  Uiso   1.00
C242   C     0.55062   0.19176   0.94855   0.00000  Uiso   1.00
C243   C     0.59008   0.11985   0.88586   0.00000  Uiso   1.00
C244   C     0.57171   0.22552   0.12794   0.00000  Uiso   1.00
C245   C     0.50514   0.22486   0.14999   0.00000  Uiso   1.00
C246   C     0.48321   0.18981   0.19564   0.00000  Uiso   1.00
C247   C     0.42078   0.19574   0.20912   0.00000  Uiso   1.00
C248   C     0.59264   0.29301   0.13015   0.00000  Uiso   1.00
C249   C     0.64429   0.31526   0.15911   0.00000  Uiso   1.00
C250   C     0.65553   0.37855   0.15589   0.00000  Uiso   1.00
C251   C     0.56811   0.20860   0.06447   0.00000  Uiso   1.00
C252   C     0.59913   0.15989   0.03821   0.00000  Uiso   1.00
C253   C     0.58973   0.15213   0.97969   0.00000  Uiso   1.00
H254   H     0.46946   0.32916   0.04652   0.00000  Uiso   1.00
H255   H     0.37351   0.30103   0.10826   0.00000  Uiso   1.00
H256   H     0.53456   0.42645   0.07174   0.00000  Uiso   1.00
H257   H     0.48941   0.27111   0.95086   0.00000  Uiso   1.00
H258   H     0.28435   0.25241   0.19044   0.00000  Uiso   1.00
H259   H     0.62396   0.51686   0.11341   0.00000  Uiso   1.00
H260   H     0.52874   0.18929   0.85850   0.00000  Uiso   1.00
H261   H     0.60211   0.19472   0.15214   0.00000  Uiso   1.00
H262   H     0.51343   0.15920   0.21968   0.00000  Uiso   1.00
H263   H     0.67449   0.28463   0.18316   0.00000  Uiso   1.00
H264   H     0.62934   0.12928   0.06228   0.00000  Uiso   1.00
H265   H     0.39792   0.13730   0.28087   0.00000  Uiso   1.00
H266   H     0.73753   0.40176   0.20384   0.00000  Uiso   1.00
H267   H     0.64231   0.07418   0.94894   0.00000  Uiso   1.00
O268   O     0.28041   0.17393   0.27819   0.00000  Uiso   1.00
O269   O     0.72597   0.52089   0.17713   0.00000  Uiso   1.00
O270   O     0.60105   0.09111   0.84270   0.00000  Uiso   1.00
N271   N     0.32325   0.23018   0.20245   0.00000  Uiso   1.00
N272   N     0.64075   0.47743   0.13044   0.00000  Uiso   1.00
N273   N     0.55175   0.17119   0.89212   0.00000  Uiso   1.00
N274   N     0.38436   0.16824   0.25111   0.00000  Uiso   1.00
N275   N     0.70186   0.41549   0.17910   0.00000  Uiso   1.00
N276   N     0.61286   0.10925   0.94078   0.00000  Uiso   1.00
C277   C     0.20164   0.99984   0.07072   0.00000  Uiso   1.00
C278   C     0.23557   0.96611   0.11891   0.00000  Uiso   1.00
C279   C     0.22960   0.90370   0.13232   0.00000  Uiso   1.00
C280   C     0.26462   0.88168   0.17798   0.00000  Uiso   1.00
C281   C     0.31127   0.82336   0.24810   0.00000  Uiso   1.00
C282   C     0.16743   0.05361   0.09907   0.00000  Uiso   1.00
C283   C     0.10415   0.06478   0.09580   0.00000  Uiso   1.00
C284   C     0.08182   0.11642   0.12476   0.00000  Uiso   1.00
C285   C     0.02267   0.19398   0.16404   0.00000  Uiso   1.00
C286   C     0.25183   0.02907   0.03339   0.00000  Uiso   1.00
C287   C     0.25952   0.01962   0.97490   0.00000  Uiso   1.00
C288   C     0.30824   0.05062   0.94855   0.00000  Uiso   1.00
C289   C     0.38015   0.09008   0.88586   0.00000  Uiso   1.00
C290   C     0.27448   0.07171   0.12794   0.00000  Uiso   1.00
C291   C     0.27514   0.00514   0.14999   0.00000  Uiso   1.00
C292   C     0.31019   0.98321   0.19564   0.00000  Uiso   1.00
C293   C     0.30426   0.92078   0.20912   0.00000  Uiso   1.00
C294   C     0.20699   0.09264   0.13015   0.00000  Uiso   1.00
C295   C     0.18474   0.14429   0.15911   0.00000  Uiso   1.00
C296   C     0.12145   0.15553   0.15589   0.00000  Uiso   1.00
C297   C     0.29140   0.06811   0.06447   0.00000  Uiso   1.00
C298   C     0.34011   0.09913   0.03821   0.00000  Uiso   1.00
C299   C     0.34787   0.08973   0.97969   0.00000  Uiso   1.00
H300   H     0.17084   0.96946   0.04652   0.00000  Uiso   1.00
H301   H     0.19897   0.87351   0.10826   0.00000  Uiso   1.00
H302   H     0.07355   0.03456   0.07174   0.00000  Uiso   1.00
H303   H     0.22889   0.98941   0.95086   0.00000  Uiso   1.00
H304   H     0.24759   0.78435   0.19044   0.00000  Uiso   1.00
H305   H     0.98314   0.12396   0.11341   0.00000  Uiso   1.00
H306   H     0.31071   0.02874   0.85850   0.00000  Uiso   1.00
H307   H     0.30528   0.10211   0.15214   0.00000  Uiso   1.00
H308   H     0.34080   0.01343   0.21968   0.00000  Uiso   1.00
H309   H     0.21537   0.17449   0.18316   0.00000  Uiso   1.00
H310   H     0.37072   0.12934   0.06228   0.00000  Uiso   1.00
H311   H     0.36270   0.89792   0.28087   0.00000  Uiso   1.00
H312   H     0.09824   0.23753   0.20384   0.00000  Uiso   1.00
H313   H     0.42582   0.14231   0.94894   0.00000  Uiso   1.00
O314   O     0.32607   0.78041   0.27819   0.00000  Uiso   1.00
O315   O     0.97911   0.22597   0.17713   0.00000  Uiso   1.00
O316   O     0.40889   0.10105   0.84270   0.00000  Uiso   1.00
N317   N     0.26982   0.82325   0.20245   0.00000  Uiso   1.00
N318   N     0.02257   0.14075   0.13044   0.00000  Uiso   1.00
N319   N     0.32881   0.05175   0.89212   0.00000  Uiso   1.00
N320   N     0.33176   0.88436   0.25111   0.00000  Uiso   1.00
N321   N     0.08451   0.20186   0.17910   0.00000  Uiso   1.00
N322   N     0.39075   0.11286   0.94078   0.00000  Uiso   1.00
C323   C     0.79836   0.00016   0.07072   0.00000  Uiso   1.00
C324   C     0.76443   0.03389   0.11891   0.00000  Uiso   1.00
C325   C     0.77040   0.09630   0.13232   0.00000  Uiso   1.00
C326   C     0.73538   0.11832   0.17798   0.00000  Uiso   1.00
C327   C     0.68873   0.17664   0.24810   0.00000  Uiso   1.00
C328   C     0.83257   0.94639   0.09907   0.00000  Uiso   1.00
C329   C     0.89585   0.93522   0.09580   0.00000  Uiso   1.00
C330   C     0.91818   0.88358   0.12476   0.00000  Uiso   1.00
C331   C     0.97733   0.80602   0.16404   0.00000  Uiso   1.00
C332   C     0.74817   0.97093   0.03339   0.00000  Uiso   1.00
C333   C     0.74048   0.98038   0.97490   0.00000  Uiso   1.00
C334   C     0.69176   0.94938   0.94855   0.00000  Uiso   1.00
C335   C     0.61985   0.90992   0.88586   0.00000  Uiso   1.00
C336   C     0.72552   0.92829   0.12794   0.00000  Uiso   1.00
C337   C     0.72486   0.99486   0.14999   0.00000  Uiso   1.00
C338   C     0.68981   0.01679   0.19564   0.00000  Uiso   1.00
C339   C     0.69574   0.07922   0.20912   0.00000  Uiso   1.00
C340   C     0.79301   0.90736   0.13015   0.00000  Uiso   1.00
C341   C     0.81526   0.85571   0.15911   0.00000  Uiso   1.00
C342   C     0.87855   0.84447   0.15589   0.00000  Uiso   1.00
C343   C     0.70860   0.93189   0.06447   0.00000  Uiso   1.00
C344   C     0.65989   0.90087   0.03821   0.00000  Uiso   1.00
C345   C     0.65213   0.91027   0.97969   0.00000  Uiso   1.00
H346   H     0.82916   0.03054   0.04652   0.00000  Uiso   1.00
H347   H     0.80103   0.12649   0.10826   0.00000  Uiso   1.00
H348   H     0.92645   0.96544   0.07174   0.00000  Uiso   1.00
H349   H     0.77111   0.01059   0.95086   0.00000  Uiso   1.00
H350   H     0.75241   0.21565   0.19044   0.00000  Uiso   1.00
H351   H     0.01686   0.87604   0.11341   0.00000  Uiso   1.00
H352   H     0.68929   0.97126   0.85850   0.00000  Uiso   1.00
H353   H     0.69472   0.89789   0.15214   0.00000  Uiso   1.00
H354   H     0.65920   0.98657   0.21968   0.00000  Uiso   1.00
H355   H     0.78463   0.82551   0.18316   0.00000  Uiso   1.00
H356   H     0.62928   0.87066   0.06228   0.00000  Uiso   1.00
H357   H     0.63730   0.10208   0.28087   0.00000  Uiso   1.00
H358   H     0.90176   0.76247   0.20384   0.00000  Uiso   1.00
H359   H     0.57418   0.85769   0.94894   0.00000  Uiso   1.00
O360   O     0.67393   0.21959   0.27819   0.00000  Uiso   1.00
O361   O     0.02089   0.77403   0.17713   0.00000  Uiso   1.00
O362   O     0.59111   0.89895   0.84270   0.00000  Uiso   1.00
N363   N     0.73018   0.17675   0.20245   0.00000  Uiso   1.00
N364   N     0.97743   0.85925   0.13044   0.00000  Uiso   1.00
N365   N     0.67119   0.94825   0.89212   0.00000  Uiso   1.00
N366   N     0.66824   0.11564   0.25111   0.00000  Uiso   1.00
N367   N     0.91549   0.79814   0.17910   0.00000  Uiso   1.00
N368   N     0.60925   0.88714   0.94078   0.00000  Uiso   1.00
C369   C     0.50016   0.29836   0.57072   0.00000  Uiso   1.00
C370   C     0.53389   0.26443   0.61891   0.00000  Uiso   1.00
C371   C     0.59630   0.27040   0.63232   0.00000  Uiso   1.00
C372   C     0.61832   0.23538   0.67798   0.00000  Uiso   1.00
C373   C     0.67664   0.18873   0.74810   0.00000  Uiso   1.00
C374   C     0.44639   0.33257   0.59907   0.00000  Uiso   1.00
C375   C     0.43522   0.39585   0.59580   0.00000  Uiso   1.00
C376   C     0.38358   0.41818   0.62476   0.00000  Uiso   1.00
C377   C     0.30602   0.47733   0.66404   0.00000  Uiso   1.00
C378   C     0.47093   0.24817   0.53339   0.00000  Uiso   1.00
C379   C     0.48038   0.24048   0.47490   0.00000  Uiso   1.00
C380   C     0.44938   0.19176   0.44855   0.00000  Uiso   1.00
C381   C     0.40992   0.11985   0.38586   0.00000  Uiso   1.00
C382   C     0.42829   0.22552   0.62794   0.00000  Uiso   1.00
C383   C     0.49486   0.22486   0.64999   0.00000  Uiso   1.00
C384   C     0.51679   0.18981   0.69564   0.00000  Uiso   1.00
C385   C     0.57922   0.19574   0.70912   0.00000  Uiso   1.00
C386   C     0.40736   0.29301   0.63015   0.00000  Uiso   1.00
C387   C     0.35571   0.31526   0.65911   0.00000  Uiso   1.00
C388   C     0.34447   0.37855   0.65589   0.00000  Uiso   1.00
C389   C     0.43189   0.20860   0.56447   0.00000  Uiso   1.00
C390   C     0.40087   0.15989   0.53821   0.00000  Uiso   1.00
C391   C     0.41027   0.15213   0.47969   0.00000  Uiso   1.00
H392   H     0.53054   0.32916   0.54652   0.00000  Uiso   1.00
H393   H     0.62649   0.30103   0.60826   0.00000  Uiso   1.00
H394   H     0.46544   0.42645   0.57174   0.00000  Uiso   1.00
H395   H     0.51059   0.27111   0.45086   0.00000  Uiso   1.00
H396   H     0.71565   0.25241   0.69044   0.00000  Uiso   1.00
H397   H     0.37604   0.51686   0.61341   0.00000  Uiso   1.00
H398   H     0.47126   0.18929   0.35850   0.00000  Uiso   1.00
H399   H     0.39789   0.19472   0.65214   0.00000  Uiso   1.00
H400   H     0.48657   0.15920   0.71968   0.00000  Uiso   1.00
H401   H     0.32551   0.28463   0.68316   0.00000  Uiso   1.00
H402   H     0.37066   0.12928   0.56228   0.00000  Uiso   1.00
H403   H     0.60208   0.13730   0.78087   0.00000  Uiso   1.00
H404   H     0.26247   0.40176   0.70384   0.00000  Uiso   1.00
H405   H     0.35769   0.07418   0.44894   0.00000  Uiso   1.00
O406   O     0.71959   0.17393   0.77819   0.00000  Uiso   1.00
O407   O     0.27403   0.52089   0.67713   0.00000  Uiso   1.00
O408   O     0.39895   0.09111   0.34270   0.00000  Uiso   1.00
N409   N     0.67675   0.23018   0.70245   0.00000  Uiso   1.00
N410   N     0.35925   0.47743   0.63044   0.00000  Uiso   1.00
N411   N     0.44825   0.17119   0.39212   0.00000  Uiso   1.00
N412   N     0.61564   0.16824   0.75111   0.00000  Uiso   1.00
N413   N     0.29814   0.41549   0.67910   0.00000  Uiso   1.00
N414   N     0.38714   0.10925   0.44078   0.00000  Uiso   1.00
C415   C     0.49984   0.70164   0.57072   0.00000  Uiso   1.00
C416   C     0.46611   0.73557   0.61891   0.00000  Uiso   1.00
C417   C     0.40370   0.72960   0.63232   0.00000  Uiso   1.00
C418   C     0.38168   0.76462   0.67798   0.00000  Uiso   1.00
C419   C     0.32336   0.81127   0.74810   0.00000  Uiso   1.00
C420   C     0.55361   0.66743   0.59907   0.00000  Uiso   1.00
C421   C     0.56478   0.60415   0.59580   0.00000  Uiso   1.00
C422   C     0.61642   0.58182   0.62476   0.00000  Uiso   1.00
C423   C     0.69398   0.52267   0.66404   0.00000  Uiso   1.00
C424   C     0.52907   0.75183   0.53339   0.00000  Uiso   1.00
C425   C     0.51962   0.75952   0.47490   0.00000  Uiso   1.00
C426   C     0.55062   0.80824   0.44855   0.00000  Uiso   1.00
C427   C     0.59008   0.88015   0.38586   0.00000  Uiso   1.00
C428   C     0.57171   0.77448   0.62794   0.00000  Uiso   1.00
C429   C     0.50514   0.77514   0.64999   0.00000  Uiso   1.00
C430   C     0.48321   0.81019   0.69564   0.00000  Uiso   1.00
C431   C     0.42078   0.80426   0.70912   0.00000  Uiso   1.00
C432   C     0.59264   0.70699   0.63015   0.00000  Uiso   1.00
C433   C     0.64429   0.68474   0.65911   0.00000  Uiso   1.00
C434   C     0.65553   0.62145   0.65589   0.00000  Uiso   1.00
C435   C     0.56811   0.79140   0.56447   0.00000  Uiso   1.00
C436   C     0.59913   0.84011   0.53821   0.00000  Uiso   1.00
C437   C     0.58973   0.84787   0.47969   0.00000  Uiso   1.00
H438   H     0.46946   0.67084   0.54652   0.00000  Uiso   1.00
H439   H     0.37351   0.69897   0.60826   0.00000  Uiso   1.00
H440   H     0.53456   0.57355   0.57174   0.00000  Uiso   1.00
H441   H     0.48941   0.72889   0.45086   0.00000  Uiso   1.00
H442   H     0.28435   0.74759   0.69044   0.00000  Uiso   1.00
H443   H     0.62396   0.48314   0.61341   0.00000  Uiso   1.00
H444   H     0.52874   0.81071   0.35850   0.00000  Uiso   1.00
H445   H     0.60211   0.80528   0.65214   0.00000  Uiso   1.00
H446   H     0.51343   0.84080   0.71968   0.00000  Uiso   1.00
H447   H     0.67449   0.71537   0.68316   0.00000  Uiso   1.00
H448   H     0.62934   0.87072   0.56228   0.00000  Uiso   1.00
H449   H     0.39792   0.86270   0.78087   0.00000  Uiso   1.00
H450   H     0.73753   0.59824   0.70384   0.00000  Uiso   1.00
H451   H     0.64231   0.92582   0.44894   0.00000  Uiso   1.00
O452   O     0.28041   0.82607   0.77819   0.00000  Uiso   1.00
O453   O     0.72597   0.47911   0.67713   0.00000  Uiso   1.00
O454   O     0.60105   0.90889   0.34270   0.00000  Uiso   1.00
N455   N     0.32325   0.76982   0.70245   0.00000  Uiso   1.00
N456   N     0.64075   0.52257   0.63044   0.00000  Uiso   1.00
N457   N     0.55175   0.82881   0.39212   0.00000  Uiso   1.00
N458   N     0.38436   0.83176   0.75111   0.00000  Uiso   1.00
N459   N     0.70186   0.58451   0.67910   0.00000  Uiso   1.00
N460   N     0.61286   0.89075   0.44078   0.00000  Uiso   1.00
C461   C     0.20164   0.00016   0.57072   0.00000  Uiso   1.00
C462   C     0.23557   0.03389   0.61891   0.00000  Uiso   1.00
C463   C     0.22960   0.09630   0.63232   0.00000  Uiso   1.00
C464   C     0.26462   0.11832   0.67798   0.00000  Uiso   1.00
C465   C     0.31127   0.17664   0.74810   0.00000  Uiso   1.00
C466   C     0.16743   0.94639   0.59907   0.00000  Uiso   1.00
C467   C     0.10415   0.93522   0.59580   0.00000  Uiso   1.00
C468   C     0.08182   0.88358   0.62476   0.00000  Uiso   1.00
C469   C     0.02267   0.80602   0.66404   0.00000  Uiso   1.00
C470   C     0.25183   0.97093   0.53339   0.00000  Uiso   1.00
C471   C     0.25952   0.98038   0.47490   0.00000  Uiso   1.00
C472   C     0.30824   0.94938   0.44855   0.00000  Uiso   1.00
C473   C     0.38015   0.90992   0.38586   0.00000  Uiso   1.00
C474   C     0.27448   0.92829   0.62794   0.00000  Uiso   1.00
C475   C     0.27514   0.99486   0.64999   0.00000  Uiso   1.00
C476   C     0.31019   0.01679   0.69564   0.00000  Uiso   1.00
C477   C     0.30426   0.07922   0.70912   0.00000  Uiso   1.00
C478   C     0.20699   0.90736   0.63015   0.00000  Uiso   1.00
C479   C     0.18474   0.85571   0.65911   0.00000  Uiso   1.00
C480   C     0.12145   0.84447   0.65589   0.00000  Uiso   1.00
C481   C     0.29140   0.93189   0.56447   0.00000  Uiso   1.00
C482   C     0.34011   0.90087   0.53821   0.00000  Uiso   1.00
C483   C     0.34787   0.91027   0.47969   0.00000  Uiso   1.00
H484   H     0.17084   0.03054   0.54652   0.00000  Uiso   1.00
H485   H     0.19897   0.12649   0.60826   0.00000  Uiso   1.00
H486   H     0.07355   0.96544   0.57174   0.00000  Uiso   1.00
H487   H     0.22889   0.01059   0.45086   0.00000  Uiso   1.00
H488   H     0.24759   0.21565   0.69044   0.00000  Uiso   1.00
H489   H     0.98314   0.87604   0.61341   0.00000  Uiso   1.00
H490   H     0.31071   0.97126   0.35850   0.00000  Uiso   1.00
H491   H     0.30528   0.89789   0.65214   0.00000  Uiso   1.00
H492   H     0.34080   0.98657   0.71968   0.00000  Uiso   1.00
H493   H     0.21537   0.82551   0.68316   0.00000  Uiso   1.00
H494   H     0.37072   0.87066   0.56228   0.00000  Uiso   1.00
H495   H     0.36270   0.10208   0.78087   0.00000  Uiso   1.00
H496   H     0.09824   0.76247   0.70384   0.00000  Uiso   1.00
H497   H     0.42582   0.85769   0.44894   0.00000  Uiso   1.00
O498   O     0.32607   0.21959   0.77819   0.00000  Uiso   1.00
O499   O     0.97911   0.77403   0.67713   0.00000  Uiso   1.00
O500   O     0.40889   0.89895   0.34270   0.00000  Uiso   1.00
N501   N     0.26982   0.17675   0.70245   0.00000  Uiso   1.00
N502   N     0.02257   0.85925   0.63044   0.00000  Uiso   1.00
N503   N     0.32881   0.94825   0.39212   0.00000  Uiso   1.00
N504   N     0.33176   0.11564   0.75111   0.00000  Uiso   1.00
N505   N     0.08451   0.79814   0.67910   0.00000  Uiso   1.00
N506   N     0.39075   0.88714   0.44078   0.00000  Uiso   1.00
C507   C     0.79836   0.99984   0.57072   0.00000  Uiso   1.00
C508   C     0.76443   0.96611   0.61891   0.00000  Uiso   1.00
C509   C     0.77040   0.90370   0.63232   0.00000  Uiso   1.00
C510   C     0.73538   0.88168   0.67798   0.00000  Uiso   1.00
C511   C     0.68873   0.82336   0.74810   0.00000  Uiso   1.00
C512   C     0.83257   0.05361   0.59907   0.00000  Uiso   1.00
C513   C     0.89585   0.06478   0.59580   0.00000  Uiso   1.00
C514   C     0.91818   0.11642   0.62476   0.00000  Uiso   1.00
C515   C     0.97733   0.19398   0.66404   0.00000  Uiso   1.00
C516   C     0.74817   0.02907   0.53339   0.00000  Uiso   1.00
C517   C     0.74048   0.01962   0.47490   0.00000  Uiso   1.00
C518   C     0.69176   0.05062   0.44855   0.00000  Uiso   1.00
C519   C     0.61985   0.09008   0.38586   0.00000  Uiso   1.00
C520   C     0.72552   0.07171   0.62794   0.00000  Uiso   1.00
C521   C     0.72486   0.00514   0.64999   0.00000  Uiso   1.00
C522   C     0.68981   0.98321   0.69564   0.00000  Uiso   1.00
C523   C     0.69574   0.92078   0.70912   0.00000  Uiso   1.00
C524   C     0.79301   0.09264   0.63015   0.00000  Uiso   1.00
C525   C     0.81526   0.14429   0.65911   0.00000  Uiso   1.00
C526   C     0.87855   0.15553   0.65589   0.00000  Uiso   1.00
C527   C     0.70860   0.06811   0.56447   0.00000  Uiso   1.00
C528   C     0.65989   0.09913   0.53821   0.00000  Uiso   1.00
C529   C     0.65213   0.08973   0.47969   0.00000  Uiso   1.00
H530   H     0.82916   0.96946   0.54652   0.00000  Uiso   1.00
H531   H     0.80103   0.87351   0.60826   0.00000  Uiso   1.00
H532   H     0.92645   0.03456   0.57174   0.00000  Uiso   1.00
H533   H     0.77111   0.98941   0.45086   0.00000  Uiso   1.00
H534   H     0.75241   0.78435   0.69044   0.00000  Uiso   1.00
H535   H     0.01686   0.12396   0.61341   0.00000  Uiso   1.00
H536   H     0.68929   0.02874   0.35850   0.00000  Uiso   1.00
H537   H     0.69472   0.10211   0.65214   0.00000  Uiso   1.00
H538   H     0.65920   0.01343   0.71968   0.00000  Uiso   1.00
H539   H     0.78463   0.17449   0.68316   0.00000  Uiso   1.00
H540   H     0.62928   0.12934   0.56228   0.00000  Uiso   1.00
H541   H     0.63730   0.89792   0.78087   0.00000  Uiso   1.00
H542   H     0.90176   0.23753   0.70384   0.00000  Uiso   1.00
H543   H     0.57418   0.14231   0.44894   0.00000  Uiso   1.00
O544   O     0.67393   0.78041   0.77819   0.00000  Uiso   1.00
O545   O     0.02089   0.22597   0.67713   0.00000  Uiso   1.00
O546   O     0.59111   0.10105   0.34270   0.00000  Uiso   1.00
N547   N     0.73018   0.82325   0.70245   0.00000  Uiso   1.00
N548   N     0.97743   0.14075   0.63044   0.00000  Uiso   1.00
N549   N     0.67119   0.05175   0.39212   0.00000  Uiso   1.00
N550   N     0.66824   0.88436   0.75111   0.00000  Uiso   1.00
N551   N     0.91549   0.20186   0.67910   0.00000  Uiso   1.00
N552   N     0.60925   0.11286   0.44078   0.00000  Uiso   1.00
C553   C     0.99984   0.79836   0.92928   0.00000  Uiso   1.00
C554   C     0.96611   0.76443   0.88109   0.00000  Uiso   1.00
C555   C     0.90370   0.77040   0.86768   0.00000  Uiso   1.00
C556   C     0.88168   0.73538   0.82202   0.00000  Uiso   1.00
C557   C     0.82336   0.68873   0.75190   0.00000  Uiso   1.00
C558   C     0.05361   0.83257   0.90093   0.00000  Uiso   1.00
C559   C     0.06478   0.89585   0.90420   0.00000  Uiso   1.00
C560   C     0.11642   0.91818   0.87524   0.00000  Uiso   1.00
C561   C     0.19398   0.97733   0.83596   0.00000  Uiso   1.00
C562   C     0.02907   0.74817   0.96661   0.00000  Uiso   1.00
C563   C     0.01962   0.74048   0.02510   0.00000  Uiso   1.00
C564   C     0.05062   0.69176   0.05145   0.00000  Uiso   1.00
C565   C     0.09008   0.61985   0.11414   0.00000  Uiso   1.00
C566   C     0.07171   0.72552   0.87206   0.00000  Uiso   1.00
C567   C     0.00514   0.72486   0.85001   0.00000  Uiso   1.00
C568   C     0.98321   0.68981   0.80436   0.00000  Uiso   1.00
C569   C     0.92078   0.69574   0.79088   0.00000  Uiso   1.00
C570   C     0.09264   0.79301   0.86985   0.00000  Uiso   1.00
C571   C     0.14429   0.81526   0.84089   0.00000  Uiso   1.00
C572   C     0.15553   0.87855   0.84411   0.00000  Uiso   1.00
C573   C     0.06811   0.70860   0.93553   0.00000  Uiso   1.00
C574   C     0.09913   0.65989   0.96179   0.00000  Uiso   1.00
C575   C     0.08973   0.65213   0.02031   0.00000  Uiso   1.00
H576   H     0.96946   0.82916   0.95348   0.00000  Uiso   1.00
H577   H     0.87351   0.80103   0.89174   0.00000  Uiso   1.00
H578   H     0.03456   0.92645   0.92826   0.00000  Uiso   1.00
H579   H     0.98941   0.77111   0.04914   0.00000  Uiso   1.00
H580   H     0.78435   0.75241   0.80956   0.00000  Uiso   1.00
H581   H     0.12396   0.01686   0.88659   0.00000  Uiso   1.00
H582   H     0.02874   0.68929   0.14150   0.00000  Uiso   1.00
H583   H     0.10211   0.69472   0.84786   0.00000  Uiso   1.00
H584   H     0.01343   0.65920   0.78032   0.00000  Uiso   1.00
H585   H     0.17449   0.78463   0.81684   0.00000  Uiso   1.00
H586   H     0.12934   0.62928   0.93772   0.00000  Uiso   1.00
H587   H     0.89792   0.63730   0.71913   0.00000  Uiso   1.00
H588   H     0.23753   0.90176   0.79616   0.00000  Uiso   1.00
H589   H     0.14231   0.57418   0.05106   0.00000  Uiso   1.00
O590   O     0.78041   0.67393   0.72181   0.00000  Uiso   1.00
O591   O     0.22597   0.02089   0.82287   0.00000  Uiso   1.00
O592   O     0.10105   0.59111   0.15730   0.00000  Uiso   1.00
N593   N     0.82325   0.73018   0.79755   0.00000  Uiso   1.00
N594   N     0.14075   0.97743   0.86956   0.00000  Uiso   1.00
N595   N     0.05175   0.67119   0.10788   0.00000  Uiso   1.00
N596   N     0.88436   0.66824   0.74889   0.00000  Uiso   1.00
N597   N     0.20186   0.91549   0.82090   0.00000  Uiso   1.00
N598   N     0.11286   0.60925   0.05922   0.00000  Uiso   1.00
C599   C     0.00016   0.20164   0.92928   0.00000  Uiso   1.00
C600   C     0.03389   0.23557   0.88109   0.00000  Uiso   1.00
C601   C     0.09630   0.22960   0.86768   0.00000  Uiso   1.00
C602   C     0.11832   0.26462   0.82202   0.00000  Uiso   1.00
C603   C     0.17664   0.31127   0.75190   0.00000  Uiso   1.00
C604   C     0.94639   0.16743   0.90093   0.00000  Uiso   1.00
C605   C     0.93522   0.10415   0.90420   0.00000  Uiso   1.00
C606   C     0.88358   0.08182   0.87524   0.00000  Uiso   1.00
C607   C     0.80602   0.02267   0.83596   0.00000  Uiso   1.00
C608   C     0.97093   0.25183   0.96661   0.00000  Uiso   1.00
C609   C     0.98038   0.25952   0.02510   0.00000  Uiso   1.00
C610   C     0.94938   0.30824   0.05145   0.00000  Uiso   1.00
C611   C     0.90992   0.38015   0.11414   0.00000  Uiso   1.00
C612   C     0.92829   0.27448   0.87206   0.00000  Uiso   1.00
C613   C     0.99486   0.27514   0.85001   0.00000  Uiso   1.00
C614   C     0.01679   0.31019   0.80436   0.00000  Uiso   1.00
C615   C     0.07922   0.30426   0.79088   0.00000  Uiso   1.00
C616   C     0.90736   0.20699   0.86985   0.00000  Uiso   1.00
C617   C     0.85571   0.18474   0.84089   0.00000  Uiso   1.00
C618   C     0.84447   0.12145   0.84411   0.00000  Uiso   1.00
C619   C     0.93189   0.29140   0.93553   0.00000  Uiso   1.00
C620   C     0.90087   0.34011   0.96179   0.00000  Uiso   1.00
C621   C     0.91027   0.34787   0.02031   0.00000  Uiso   1.00
H622   H     0.03054   0.17084   0.95348   0.00000  Uiso   1.00
H623   H     0.12649   0.19897   0.89174   0.00000  Uiso   1.00
H624   H     0.96544   0.07355   0.92826   0.00000  Uiso   1.00
H625   H     0.01059   0.22889   0.04914   0.00000  Uiso   1.00
H626   H     0.21565   0.24759   0.80956   0.00000  Uiso   1.00
H627   H     0.87604   0.98314   0.88659   0.00000  Uiso   1.00
H628   H     0.97126   0.31071   0.14150   0.00000  Uiso   1.00
H629   H     0.89789   0.30528   0.84786   0.00000  Uiso   1.00
H630   H     0.98657   0.34080   0.78032   0.00000  Uiso   1.00
H631   H     0.82551   0.21537   0.81684   0.00000  Uiso   1.00
H632   H     0.87066   0.37072   0.93772   0.00000  Uiso   1.00
H633   H     0.10208   0.36270   0.71913   0.00000  Uiso   1.00
H634   H     0.76247   0.09824   0.79616   0.00000  Uiso   1.00
H635   H     0.85769   0.42582   0.05106   0.00000  Uiso   1.00
O636   O     0.21959   0.32607   0.72181   0.00000  Uiso   1.00
O637   O     0.77403   0.97911   0.82287   0.00000  Uiso   1.00
O638   O     0.89895   0.40889   0.15730   0.00000  Uiso   1.00
N639   N     0.17675   0.26982   0.79755   0.00000  Uiso   1.00
N640   N     0.85925   0.02257   0.86956   0.00000  Uiso   1.00
N641   N     0.94825   0.32881   0.10788   0.00000  Uiso   1.00
N642   N     0.11564   0.33176   0.74889   0.00000  Uiso   1.00
N643   N     0.79814   0.08451   0.82090   0.00000  Uiso   1.00
N644   N     0.88714   0.39075   0.05922   0.00000  Uiso   1.00
C645   C     0.29836   0.50016   0.92928   0.00000  Uiso   1.00
C646   C     0.26443   0.53389   0.88109   0.00000  Uiso   1.00
C647   C     0.27040   0.59630   0.86768   0.00000  Uiso   1.00
C648   C     0.23538   0.61832   0.82202   0.00000  Uiso   1.00
C649   C     0.18873   0.67664   0.75190   0.00000  Uiso   1.00
C650   C     0.33257   0.44639   0.90093   0.00000  Uiso   1.00
C651   C     0.39585   0.43522   0.90420   0.00000  Uiso   1.00
C652   C     0.41818   0.38358   0.87524   0.00000  Uiso   1.00
C653   C     0.47733   0.30602   0.83596   0.00000  Uiso   1.00
C654   C     0.24817   0.47093   0.96661   0.00000  Uiso   1.00
C655   C     0.24048   0.48038   0.02510   0.00000  Uiso   1.00
C656   C     0.19176   0.44938   0.05145   0.00000  Uiso   1.00
C657   C     0.11985   0.40992   0.11414   0.00000  Uiso   1.00
C658   C     0.22552   0.42829   0.87206   0.00000  Uiso   1.00
C659   C     0.22486   0.49486   0.85001   0.00000  Uiso   1.00
C660   C     0.18981   0.51679   0.80436   0.00000  Uiso   1.00
C661   C     0.19574   0.57922   0.79088   0.00000  Uiso   1.00
C662   C     0.29301   0.40736   0.86985   0.00000  Uiso   1.00
C663   C     0.31526   0.35571   0.84089   0.00000  Uiso   1.00
C664   C     0.37855   0.34447   0.84411   0.00000  Uiso   1.00
C665   C     0.20860   0.43189   0.93553   0.00000  Uiso   1.00
C666   C     0.15989   0.40087   0.96179   0.00000  Uiso   1.00
C667   C     0.15213   0.41027   0.02031   0.00000  Uiso   1.00
H668   H     0.32916   0.53054   0.95348   0.00000  Uiso   1.00
H669   H     0.30103   0.62649   0.89174   0.00000  Uiso   1.00
H670   H     0.42645   0.46544   0.92826   0.00000  Uiso   1.00
H671   H     0.27111   0.51059   0.04914   0.00000  Uiso   1.00
H672   H     0.25241   0.71565   0.80956   0.00000  Uiso   1.00
H673   H     0.51686   0.37604   0.88659   0.00000  Uiso   1.00
H674   H     0.18929   0.47126   0.14150   0.00000  Uiso   1.00
H675   H     0.19472   0.39789   0.84786   0.00000  Uiso   1.00
H676   H     0.15920   0.48657   0.78032   0.00000  Uiso   1.00
H677   H     0.28463   0.32551   0.81684   0.00000  Uiso   1.00
H678   H     0.12928   0.37066   0.93772   0.00000  Uiso   1.00
H679   H     0.13730   0.60208   0.71913   0.00000  Uiso   1.00
H680   H     0.40176   0.26247   0.79616   0.00000  Uiso   1.00
H681   H     0.07418   0.35769   0.05106   0.00000  Uiso   1.00
O682   O     0.17393   0.71959   0.72181   0.00000  Uiso   1.00
O683   O     0.52089   0.27403   0.82287   0.00000  Uiso   1.00
O684   O     0.09111   0.39895   0.15730   0.00000  Uiso   1.00
N685   N     0.23018   0.67675   0.79755   0.00000  Uiso   1.00
N686   N     0.47743   0.35925   0.86956   0.00000  Uiso   1.00
N687   N     0.17119   0.44825   0.10788   0.00000  Uiso   1.00
N688   N     0.16824   0.61564   0.74889   0.00000  Uiso   1.00
N689   N     0.41549   0.29814   0.82090   0.00000  Uiso   1.00
N690   N     0.10925   0.38714   0.05922   0.00000  Uiso   1.00
C691   C     0.70164   0.49984   0.92928   0.00000  Uiso   1.00
C692   C     0.73557   0.46611   0.88109   0.00000  Uiso   1.00
C693   C     0.72960   0.40370   0.86768   0.00000  Uiso   1.00
C694   C     0.76462   0.38168   0.82202   0.00000  Uiso   1.00
C695   C     0.81127   0.32336   0.75190   0.00000  Uiso   1.00
C696   C     0.66743   0.55361   0.90093   0.00000  Uiso   1.00
C697   C     0.60415   0.56478   0.90420   0.00000  Uiso   1.00
C698   C     0.58182   0.61642   0.87524   0.00000  Uiso   1.00
C699   C     0.52267   0.69398   0.83596   0.00000  Uiso   1.00
C700   C     0.75183   0.52907   0.96661   0.00000  Uiso   1.00
C701   C     0.75952   0.51962   0.02510   0.00000  Uiso   1.00
C702   C     0.80824   0.55062   0.05145   0.00000  Uiso   1.00
C703   C     0.88015   0.59008   0.11414   0.00000  Uiso   1.00
C704   C     0.77448   0.57171   0.87206   0.00000  Uiso   1.00
C705   C     0.77514   0.50514   0.85001   0.00000  Uiso   1.00
C706   C     0.81019   0.48321   0.80436   0.00000  Uiso   1.00
C707   C     0.80426   0.42078   0.79088   0.00000  Uiso   1.00
C708   C     0.70699   0.59264   0.86985   0.00000  Uiso   1.00
C709   C     0.68474   0.64429   0.84089   0.00000  Uiso   1.00
C710   C     0.62145   0.65553   0.84411   0.00000  Uiso   1.00
C711   C     0.79140   0.56811   0.93553   0.00000  Uiso   1.00
C712   C     0.84011   0.59913   0.96179   0.00000  Uiso   1.00
C713   C     0.84787   0.58973   0.02031   0.00000  Uiso   1.00
H714   H     0.67084   0.46946   0.95348   0.00000  Uiso   1.00
H715   H     0.69897   0.37351   0.89174   0.00000  Uiso   1.00
H716   H     0.57355   0.53456   0.92826   0.00000  Uiso   1.00
H717   H     0.72889   0.48941   0.04914   0.00000  Uiso   1.00
H718   H     0.74759   0.28435   0.80956   0.00000  Uiso   1.00
H719   H     0.48314   0.62396   0.88659   0.00000  Uiso   1.00
H720   H     0.81071   0.52874   0.14150   0.00000  Uiso   1.00
H721   H     0.80528   0.60211   0.84786   0.00000  Uiso   1.00
H722   H     0.84080   0.51343   0.78032   0.00000  Uiso   1.00
H723   H     0.71537   0.67449   0.81684   0.00000  Uiso   1.00
H724   H     0.87072   0.62934   0.93772   0.00000  Uiso   1.00
H725   H     0.86270   0.39792   0.71913   0.00000  Uiso   1.00
H726   H     0.59824   0.73753   0.79616   0.00000  Uiso   1.00
H727   H     0.92582   0.64231   0.05106   0.00000  Uiso   1.00
O728   O     0.82607   0.28041   0.72181   0.00000  Uiso   1.00
O729   O     0.47911   0.72597   0.82287   0.00000  Uiso   1.00
O730   O     0.90889   0.60105   0.15730   0.00000  Uiso   1.00
N731   N     0.76982   0.32325   0.79755   0.00000  Uiso   1.00
N732   N     0.52257   0.64075   0.86956   0.00000  Uiso   1.00
N733   N     0.82881   0.55175   0.10788   0.00000  Uiso   1.00
N734   N     0.83176   0.38436   0.74889   0.00000  Uiso   1.00
N735   N     0.58451   0.70186   0.82090   0.00000  Uiso   1.00
N736   N     0.89075   0.61286   0.05922   0.00000  Uiso   1.00
