data_job_06899
_audit_creation_date              2018-12-19
_audit_creation_method            'Materials Studio'
_symmetry_space_group_name_H-M    'P1'
_symmetry_Int_Tables_number       1
_symmetry_cell_setting            triclinic
loop_
_symmetry_equiv_pos_as_xyz
  x,y,z
_cell_length_a                    30.8777
_cell_length_b                    31.0341
_cell_length_c                    46.9552
_cell_angle_alpha                 90.0000
_cell_angle_beta                  154.9527
_cell_angle_gamma                 90.0000
loop_
_atom_site_label
_atom_site_type_symbol
_atom_site_fract_x
_atom_site_fract_y
_atom_site_fract_z
_atom_site_U_iso_or_equiv
_atom_site_adp_type
_atom_site_occupancy
C1     C     0.55187   0.93879   0.09727   0.00000  Uiso   1.00
C2     C     0.50180   0.95088   0.09567   0.00000  Uiso   1.00
C3     C     0.90857   0.47172   0.04326   0.00000  Uiso   1.00
C4     C     0.87602   0.47991   0.05149   0.00000  Uiso   1.00
C5     C     0.78938   0.50056   0.04011   0.00000  Uiso   1.00
C6     C     0.65740   0.95973   0.16041   0.00000  Uiso   1.00
C7     C     0.69498   0.98801   0.16243   0.00000  Uiso   1.00
C8     C     0.79341   0.00364   0.22516   0.00000  Uiso   1.00
C9     C     0.44836   0.53800   0.31429   0.00000  Uiso   1.00
C10    C     0.57042   0.89032   0.10961   0.00000  Uiso   1.00
C11    C     0.53489   0.86024   0.06894   0.00000  Uiso   1.00
C12    C     0.56012   0.81743   0.08892   0.00000  Uiso   1.00
C13    C     0.58002   0.74403   0.09919   0.00000  Uiso   1.00
C14    C     0.65986   0.91625   0.20507   0.00000  Uiso   1.00
C15    C     0.56047   0.93864   0.15422   0.00000  Uiso   1.00
C16    C     0.52805   0.94679   0.16253   0.00000  Uiso   1.00
C17    C     0.93477   0.46764   0.11015   0.00000  Uiso   1.00
C18    C     0.71605   0.94749   0.21896   0.00000  Uiso   1.00
C19    C     0.81446   0.96307   0.28170   0.00000  Uiso   1.00
C20    C     0.85217   0.99137   0.28382   0.00000  Uiso   1.00
C21    C     0.62907   0.87807   0.16817   0.00000  Uiso   1.00
C22    C     0.65437   0.83530   0.18821   0.00000  Uiso   1.00
C23    C     0.61888   0.80516   0.14758   0.00000  Uiso   1.00
H24    H     0.50621   0.94832   0.05169   0.00000  Uiso   1.00
H25    H     0.86320   0.48120   0.99796   0.00000  Uiso   1.00
H26    H     0.64957   0.99747   0.11711   0.00000  Uiso   1.00
H27    H     0.48951   0.86972   0.02364   0.00000  Uiso   1.00
H28    H     0.73053   0.51226   0.96422   0.00000  Uiso   1.00
H29    H     0.33437   0.54657   0.21546   0.00000  Uiso   1.00
H30    H     0.49685   0.77718   0.01836   0.00000  Uiso   1.00
H31    H     0.70553   0.90672   0.25066   0.00000  Uiso   1.00
H32    H     0.57345   0.93731   0.20785   0.00000  Uiso   1.00
H33    H     0.85983   0.95359   0.32700   0.00000  Uiso   1.00
H34    H     0.69976   0.82584   0.23353   0.00000  Uiso   1.00
H35    H     0.90119   0.47665   0.13458   0.00000  Uiso   1.00
H36    H     0.50503   0.51095   0.38582   0.00000  Uiso   1.00
H37    H     0.66750   0.74157   0.18871   0.00000  Uiso   1.00
O38    O     0.72540   0.51534   0.01766   0.00000  Uiso   1.00
O39    O     0.51761   0.56035   0.34727   0.00000  Uiso   1.00
O40    O     0.57479   0.70692   0.08867   0.00000  Uiso   1.00
N41    N     0.78881   0.49967   0.01019   0.00000  Uiso   1.00
N42    N     0.35336   0.53176   0.24508   0.00000  Uiso   1.00
N43    N     0.53783   0.77990   0.06081   0.00000  Uiso   1.00
N44    N     0.88064   0.48051   0.10185   0.00000  Uiso   1.00
N45    N     0.44519   0.51259   0.33675   0.00000  Uiso   1.00
N46    N     0.62965   0.76074   0.15248   0.00000  Uiso   1.00
C47    C     0.66959   0.79389   0.87921   0.00000  Uiso   1.00
C48    C     0.58175   0.78431   0.84729   0.00000  Uiso   1.00
C49    C     0.58708   0.78556   0.87997   0.00000  Uiso   1.00
C50    C     0.49829   0.77574   0.84194   0.00000  Uiso   1.00
C51    C     0.37571   0.76247   0.80275   0.00000  Uiso   1.00
C52    C     0.68061   0.75406   0.86701   0.00000  Uiso   1.00
C53    C     0.76907   0.72988   0.91627   0.00000  Uiso   1.00
C54    C     0.76350   0.69460   0.89483   0.00000  Uiso   1.00
C55    C     0.79442   0.63439   0.88626   0.00000  Uiso   1.00
C56    C     0.13186   0.32982   0.83723   0.00000  Uiso   1.00
C57    C     0.17934   0.36934   0.86146   0.00000  Uiso   1.00
C58    C     0.13273   0.39784   0.81495   0.00000  Uiso   1.00
C59    C     0.08796   0.45525   0.76014   0.00000  Uiso   1.00
C60    C     0.50240   0.77422   0.75354   0.00000  Uiso   1.00
C61    C     0.49094   0.77362   0.77903   0.00000  Uiso   1.00
C62    C     0.40211   0.76380   0.74093   0.00000  Uiso   1.00
C63    C     0.40731   0.76504   0.77355   0.00000  Uiso   1.00
C64    C     0.58980   0.74337   0.79875   0.00000  Uiso   1.00
C65    C     0.58410   0.70812   0.77723   0.00000  Uiso   1.00
C66    C     0.67252   0.68390   0.82645   0.00000  Uiso   1.00
C67    C     0.54104   0.81913   0.76897   0.00000  Uiso   1.00
C68    C     0.99436   0.34758   0.72241   0.00000  Uiso   1.00
C69    C     0.04176   0.38714   0.74657   0.00000  Uiso   1.00
H70    H     0.24030   0.30220   0.93236   0.00000  Uiso   1.00
H71    H     0.65738   0.79383   0.93280   0.00000  Uiso   1.00
H72    H     0.33934   0.23816   0.96909   0.00000  Uiso   1.00
H73    H     0.24961   0.37759   0.91428   0.00000  Uiso   1.00
H74    H     0.52541   0.77981   0.90319   0.00000  Uiso   1.00
H75    H     0.90909   0.66245   0.97972   0.00000  Uiso   1.00
H76    H     0.21989   0.45647   0.86414   0.00000  Uiso   1.00
H77    H     0.43170   0.76590   0.70040   0.00000  Uiso   1.00
H78    H     0.33184   0.75553   0.68811   0.00000  Uiso   1.00
H79    H     0.51381   0.69986   0.72440   0.00000  Uiso   1.00
H80    H     0.42408   0.83930   0.66959   0.00000  Uiso   1.00
H81    H     0.26120   0.74873   0.70459   0.00000  Uiso   1.00
H82    H     0.64488   0.63136   0.78112   0.00000  Uiso   1.00
H83    H     0.95568   0.42539   0.66554   0.00000  Uiso   1.00
O84    O     0.33319   0.75809   0.80000   0.00000  Uiso   1.00
O85    O     0.83657   0.60412   0.90040   0.00000  Uiso   1.00
O86    O     0.08835   0.48987   0.74877   0.00000  Uiso   1.00
N87    N     0.47692   0.77393   0.85813   0.00000  Uiso   1.00
N88    N     0.83564   0.66420   0.92968   0.00000  Uiso   1.00
N89    N     0.15877   0.43908   0.82163   0.00000  Uiso   1.00
N90    N     0.33475   0.75720   0.75127   0.00000  Uiso   1.00
N91    N     0.69347   0.64747   0.82282   0.00000  Uiso   1.00
N92    N     0.01660   0.42235   0.71477   0.00000  Uiso   1.00
C93    C     0.03503   0.67239   0.83849   0.00000  Uiso   1.00
C94    C     0.92204   0.67200   0.76310   0.00000  Uiso   1.00
C95    C     0.86636   0.63604   0.72166   0.00000  Uiso   1.00
C96    C     0.76387   0.64239   0.65408   0.00000  Uiso   1.00
C97    C     0.59530   0.63557   0.54084   0.00000  Uiso   1.00
C98    C     0.08577   0.70515   0.84906   0.00000  Uiso   1.00
C99    C     0.16775   0.69707   0.87990   0.00000  Uiso   1.00
C100   C     0.20309   0.73133   0.88468   0.00000  Uiso   1.00
C101   C     0.28876   0.77599   0.90494   0.00000  Uiso   1.00
C102   C     0.04041   0.69157   0.87155   0.00000  Uiso   1.00
C103   C     0.08428   0.67207   0.92132   0.00000  Uiso   1.00
C104   C     0.08146   0.69490   0.94506   0.00000  Uiso   1.00
C105   C     0.59670   0.21847   0.00025   0.00000  Uiso   1.00
C106   C     0.95204   0.74761   0.79216   0.00000  Uiso   1.00
C107   C     0.87697   0.71285   0.73794   0.00000  Uiso   1.00
C108   C     0.27453   0.21926   0.67041   0.00000  Uiso   1.00
C109   C     0.71871   0.68332   0.62887   0.00000  Uiso   1.00
C110   C     0.04069   0.74601   0.82390   0.00000  Uiso   1.00
C111   C     0.07593   0.78029   0.82864   0.00000  Uiso   1.00
C112   C     0.15793   0.77226   0.85947   0.00000  Uiso   1.00
C113   C     0.99533   0.73242   0.84639   0.00000  Uiso   1.00
C114   C     0.49245   0.25529   0.87006   0.00000  Uiso   1.00
C115   C     0.53630   0.23583   0.91985   0.00000  Uiso   1.00
H116   H     0.07013   0.64058   0.85808   0.00000  Uiso   1.00
H117   H     0.90128   0.60443   0.74115   0.00000  Uiso   1.00
H118   H     0.20262   0.66545   0.89937   0.00000  Uiso   1.00
H119   H     0.11916   0.64046   0.94078   0.00000  Uiso   1.00
H120   H     0.69419   0.58236   0.60041   0.00000  Uiso   1.00
H121   H     0.32963   0.71104   0.93404   0.00000  Uiso   1.00
H122   H     0.15364   0.65833   0.02137   0.00000  Uiso   1.00
H123   H     0.41694   0.27942   0.77257   0.00000  Uiso   1.00
H124   H     0.23967   0.25088   0.65095   0.00000  Uiso   1.00
H125   H     0.04103   0.81190   0.80917   0.00000  Uiso   1.00
H126   H     0.45756   0.28691   0.85058   0.00000  Uiso   1.00
H127   H     0.06303   0.20123   0.52720   0.00000  Uiso   1.00
H128   H     0.19847   0.82991   0.86084   0.00000  Uiso   1.00
H129   H     0.52248   0.27720   0.94816   0.00000  Uiso   1.00
O130   O     0.51477   0.62052   0.48534   0.00000  Uiso   1.00
O131   O     0.34845   0.78934   0.92306   0.00000  Uiso   1.00
O132   O     0.61755   0.22019   0.03763   0.00000  Uiso   1.00
N133   N     0.68765   0.61425   0.59987   0.00000  Uiso   1.00
N134   N     0.28173   0.73456   0.91179   0.00000  Uiso   1.00
N135   N     0.11722   0.68528   0.99345   0.00000  Uiso   1.00
N136   N     0.11707   0.17821   0.56048   0.00000  Uiso   1.00
N137   N     0.21116   0.79852   0.87240   0.00000  Uiso   1.00
N138   N     0.54664   0.24924   0.95406   0.00000  Uiso   1.00
C139   C     0.86395   0.64705   0.62780   0.00000  Uiso   1.00
C140   C     0.96463   0.62377   0.69347   0.00000  Uiso   1.00
C141   C     0.97873   0.59016   0.72097   0.00000  Uiso   1.00
C142   C     0.07671   0.57319   0.78145   0.00000  Uiso   1.00
C143   C     0.22072   0.53458   0.87857   0.00000  Uiso   1.00
C144   C     0.84464   0.64300   0.58437   0.00000  Uiso   1.00
C145   C     0.75785   0.62556   0.52014   0.00000  Uiso   1.00
C146   C     0.75482   0.62479   0.48878   0.00000  Uiso   1.00
C147   C     0.71252   0.61606   0.41652   0.00000  Uiso   1.00
C148   C     0.88464   0.69468   0.64564   0.00000  Uiso   1.00
C149   C     0.83146   0.72069   0.63290   0.00000  Uiso   1.00
C150   C     0.86209   0.76343   0.65311   0.00000  Uiso   1.00
C151   C     0.38188   0.33494   0.67596   0.00000  Uiso   1.00
C152   C     0.01287   0.67669   0.68631   0.00000  Uiso   1.00
C153   C     0.04551   0.63987   0.72525   0.00000  Uiso   1.00
C154   C     0.14350   0.62295   0.78571   0.00000  Uiso   1.00
C155   C     0.15775   0.58932   0.81329   0.00000  Uiso   1.00
C156   C     0.92553   0.65910   0.61616   0.00000  Uiso   1.00
C157   C     0.92262   0.65835   0.58488   0.00000  Uiso   1.00
C158   C     0.83586   0.64091   0.52062   0.00000  Uiso   1.00
C159   C     0.96553   0.71078   0.67742   0.00000  Uiso   1.00
C160   C     0.99624   0.75348   0.69765   0.00000  Uiso   1.00
C161   C     0.94312   0.77956   0.68495   0.00000  Uiso   1.00
H162   H     0.80097   0.63451   0.60305   0.00000  Uiso   1.00
H163   H     0.91611   0.57771   0.69635   0.00000  Uiso   1.00
H164   H     0.69527   0.61311   0.49556   0.00000  Uiso   1.00
H165   H     0.76887   0.70822   0.60830   0.00000  Uiso   1.00
H166   H     0.07943   0.52181   0.81380   0.00000  Uiso   1.00
H167   H     0.61375   0.59648   0.39041   0.00000  Uiso   1.00
H168   H     0.26895   0.29705   0.62815   0.00000  Uiso   1.00
H169   H     0.07585   0.68922   0.71106   0.00000  Uiso   1.00
H170   H     0.20608   0.63541   0.81029   0.00000  Uiso   1.00
H171   H     0.98523   0.67081   0.60949   0.00000  Uiso   1.00
H172   H     0.05883   0.76593   0.72224   0.00000  Uiso   1.00
H173   H     0.31478   0.56865   0.90628   0.00000  Uiso   1.00
H174   H     0.84909   0.64331   0.48288   0.00000  Uiso   1.00
H175   H     0.00430   0.84388   0.72062   0.00000  Uiso   1.00
O176   O     0.27781   0.50884   0.92336   0.00000  Uiso   1.00
O177   O     0.66684   0.60680   0.36788   0.00000  Uiso   1.00
O178   O     0.37047   0.36994   0.67979   0.00000  Uiso   1.00
N179   N     0.11695   0.54023   0.82195   0.00000  Uiso   1.00
N180   N     0.68157   0.61002   0.42611   0.00000  Uiso   1.00
N181   N     0.32666   0.29754   0.64836   0.00000  Uiso   1.00
N182   N     0.24359   0.56543   0.87171   0.00000  Uiso   1.00
N183   N     0.80821   0.63523   0.47587   0.00000  Uiso   1.00
N184   N     0.95330   0.82275   0.69812   0.00000  Uiso   1.00
C185   C     0.09353   0.62369   0.15898   0.00000  Uiso   1.00
C186   C     0.11873   0.62168   0.14231   0.00000  Uiso   1.00
C187   C     0.05437   0.60645   0.08273   0.00000  Uiso   1.00
C188   C     0.09162   0.60731   0.07723   0.00000  Uiso   1.00
C189   C     0.11581   0.60185   0.04339   0.00000  Uiso   1.00
C190   C     0.10804   0.67059   0.17642   0.00000  Uiso   1.00
C191   C     0.03469   0.69649   0.14551   0.00000  Uiso   1.00
C192   C     0.56295   0.23852   0.16873   0.00000  Uiso   1.00
C193   C     0.57056   0.30899   0.18787   0.00000  Uiso   1.00
C194   C     0.17758   0.59839   0.22414   0.00000  Uiso   1.00
C195   C     0.16271   0.56358   0.23336   0.00000  Uiso   1.00
C196   C     0.74951   0.04482   0.29677   0.00000  Uiso   1.00
C197   C     0.86510   0.00318   0.39000   0.00000  Uiso   1.00
C198   C     0.77414   0.15228   0.25518   0.00000  Uiso   1.00
C199   C     0.71683   0.13721   0.19457   0.00000  Uiso   1.00
C200   C     0.25419   0.63809   0.18916   0.00000  Uiso   1.00
C201   C     0.18989   0.62286   0.12958   0.00000  Uiso   1.00
C202   C     0.70613   0.18612   0.22867   0.00000  Uiso   1.00
C203   C     0.73451   0.22812   0.25195   0.00000  Uiso   1.00
C204   C     0.66122   0.25408   0.22108   0.00000  Uiso   1.00
C205   C     0.77568   0.11391   0.27639   0.00000  Uiso   1.00
C206   C     0.36253   0.59521   0.33980   0.00000  Uiso   1.00
C207   C     0.84779   0.06038   0.34912   0.00000  Uiso   1.00
H208   H     0.01716   0.61160   0.11830   0.00000  Uiso   1.00
H209   H     0.97845   0.59444   0.04230   0.00000  Uiso   1.00
H210   H     0.95879   0.68446   0.10508   0.00000  Uiso   1.00
H211   H     0.08679   0.55157   0.19292   0.00000  Uiso   1.00
H212   H     0.47879   0.08228   0.98107   0.00000  Uiso   1.00
H213   H     0.93733   0.77209   0.11346   0.00000  Uiso   1.00
H214   H     0.70724   0.99186   0.29868   0.00000  Uiso   1.00
H215   H     0.85051   0.16437   0.29587   0.00000  Uiso   1.00
H216   H     0.33010   0.65011   0.22961   0.00000  Uiso   1.00
H217   H     0.81043   0.24013   0.29238   0.00000  Uiso   1.00
H218   H     0.43843   0.60724   0.38022   0.00000  Uiso   1.00
H219   H     0.26420   0.62746   0.13310   0.00000  Uiso   1.00
H220   H     0.72274   0.31727   0.26549   0.00000  Uiso   1.00
H221   H     0.99264   0.03705   0.45071   0.00000  Uiso   1.00
O222   O     0.10204   0.59455   0.01029   0.00000  Uiso   1.00
O223   O     0.54765   0.34357   0.18398   0.00000  Uiso   1.00
O224   O     0.90176   0.97592   0.42698   0.00000  Uiso   1.00
N225   N     0.04877   0.59486   0.02595   0.00000  Uiso   1.00
N226   N     0.51000   0.27233   0.14972   0.00000  Uiso   1.00
N227   N     0.76234   0.01035   0.32289   0.00000  Uiso   1.00
N228   N     0.20235   0.61918   0.10775   0.00000  Uiso   1.00
N229   N     0.66358   0.29664   0.23152   0.00000  Uiso   1.00
N230   N     0.91591   0.03466   0.40469   0.00000  Uiso   1.00
C231   C     0.48803   0.66062   0.91271   0.00000  Uiso   1.00
C232   C     0.53641   0.70283   0.95128   0.00000  Uiso   1.00
C233   C     0.49020   0.73353   0.94097   0.00000  Uiso   1.00
C234   C     0.54721   0.76996   0.98146   0.00000  Uiso   1.00
C235   C     0.60719   0.83465   0.03391   0.00000  Uiso   1.00
C236   C     0.56048   0.62499   0.96553   0.00000  Uiso   1.00
C237   C     0.53451   0.59023   0.96719   0.00000  Uiso   1.00
C238   C     0.61180   0.56113   0.01967   0.00000  Uiso   1.00
C239   C     0.70913   0.50495   0.09421   0.00000  Uiso   1.00
C240   C     0.49292   0.66098   0.88318   0.00000  Uiso   1.00
C241   C     0.41014   0.65647   0.81560   0.00000  Uiso   1.00
C242   C     0.43055   0.65766   0.79875   0.00000  Uiso   1.00
C243   C     0.42298   0.65736   0.74543   0.00000  Uiso   1.00
C244   C     0.67147   0.67074   0.00295   0.00000  Uiso   1.00
C245   C     0.63604   0.70833   0.00030   0.00000  Uiso   1.00
C246   C     0.69314   0.74472   0.04081   0.00000  Uiso   1.00
C247   C     0.64702   0.77547   0.03056   0.00000  Uiso   1.00
C248   C     0.66011   0.63048   0.01454   0.00000  Uiso   1.00
C249   C     0.73746   0.60142   0.06703   0.00000  Uiso   1.00
C250   C     0.71161   0.56663   0.06877   0.00000  Uiso   1.00
C251   C     0.59255   0.66647   0.93219   0.00000  Uiso   1.00
C252   C     0.61309   0.66767   0.91544   0.00000  Uiso   1.00
C253   C     0.53036   0.66316   0.84785   0.00000  Uiso   1.00
H254   H     0.41047   0.65634   0.87455   0.00000  Uiso   1.00
H255   H     0.41309   0.72926   0.90303   0.00000  Uiso   1.00
H256   H     0.45740   0.58598   0.92924   0.00000  Uiso   1.00
H257   H     0.33305   0.65221   0.77768   0.00000  Uiso   1.00
H258   H     0.45996   0.81252   0.95624   0.00000  Uiso   1.00
H259   H     0.55337   0.51040   0.01150   0.00000  Uiso   1.00
H260   H     0.29116   0.65006   0.69189   0.00000  Uiso   1.00
H261   H     0.74904   0.67502   0.04112   0.00000  Uiso   1.00
H262   H     0.77024   0.74897   0.07874   0.00000  Uiso   1.00
H263   H     0.81455   0.60569   0.10495   0.00000  Uiso   1.00
H264   H     0.69020   0.67192   0.95339   0.00000  Uiso   1.00
H265   H     0.74983   0.82851   0.09885   0.00000  Uiso   1.00
H266   H     0.84325   0.52639   0.15411   0.00000  Uiso   1.00
H267   H     0.58104   0.66606   0.83451   0.00000  Uiso   1.00
O268   O     0.61275   0.86882   0.04930   0.00000  Uiso   1.00
O269   O     0.73530   0.47245   0.12179   0.00000  Uiso   1.00
O270   O     0.39128   0.65568   0.70248   0.00000  Uiso   1.00
N271   N     0.52526   0.80614   0.98463   0.00000  Uiso   1.00
N272   N     0.61260   0.52368   0.03630   0.00000  Uiso   1.00
N273   N     0.36746   0.65424   0.73750   0.00000  Uiso   1.00
N274   N     0.68124   0.81475   0.06137   0.00000  Uiso   1.00
N275   N     0.76858   0.53229   0.11304   0.00000  Uiso   1.00
N276   N     0.52344   0.66285   0.81424   0.00000  Uiso   1.00
C277   C     0.05187   0.43879   0.09727   0.00000  Uiso   1.00
C278   C     0.00180   0.45088   0.09567   0.00000  Uiso   1.00
C279   C     0.40857   0.97172   0.04326   0.00000  Uiso   1.00
C280   C     0.37602   0.97991   0.05149   0.00000  Uiso   1.00
C281   C     0.28938   0.00056   0.04011   0.00000  Uiso   1.00
C282   C     0.15740   0.45973   0.16041   0.00000  Uiso   1.00
C283   C     0.19498   0.48801   0.16243   0.00000  Uiso   1.00
C284   C     0.29341   0.50364   0.22516   0.00000  Uiso   1.00
C285   C     0.94836   0.03800   0.31429   0.00000  Uiso   1.00
C286   C     0.07042   0.39032   0.10961   0.00000  Uiso   1.00
C287   C     0.03489   0.36024   0.06894   0.00000  Uiso   1.00
C288   C     0.06012   0.31743   0.08892   0.00000  Uiso   1.00
C289   C     0.08002   0.24403   0.09919   0.00000  Uiso   1.00
C290   C     0.15986   0.41625   0.20507   0.00000  Uiso   1.00
C291   C     0.06047   0.43864   0.15422   0.00000  Uiso   1.00
C292   C     0.02805   0.44679   0.16253   0.00000  Uiso   1.00
C293   C     0.43477   0.96764   0.11015   0.00000  Uiso   1.00
C294   C     0.21605   0.44749   0.21896   0.00000  Uiso   1.00
C295   C     0.31446   0.46307   0.28170   0.00000  Uiso   1.00
C296   C     0.35217   0.49137   0.28382   0.00000  Uiso   1.00
C297   C     0.12907   0.37807   0.16817   0.00000  Uiso   1.00
C298   C     0.15437   0.33530   0.18821   0.00000  Uiso   1.00
C299   C     0.11888   0.30516   0.14758   0.00000  Uiso   1.00
H300   H     0.00621   0.44832   0.05169   0.00000  Uiso   1.00
H301   H     0.36320   0.98120   0.99796   0.00000  Uiso   1.00
H302   H     0.14957   0.49747   0.11711   0.00000  Uiso   1.00
H303   H     0.98951   0.36972   0.02364   0.00000  Uiso   1.00
H304   H     0.23053   0.01226   0.96422   0.00000  Uiso   1.00
H305   H     0.83437   0.04657   0.21546   0.00000  Uiso   1.00
H306   H     0.99685   0.27718   0.01836   0.00000  Uiso   1.00
H307   H     0.20553   0.40672   0.25066   0.00000  Uiso   1.00
H308   H     0.07345   0.43731   0.20785   0.00000  Uiso   1.00
H309   H     0.35983   0.45359   0.32700   0.00000  Uiso   1.00
H310   H     0.19976   0.32584   0.23353   0.00000  Uiso   1.00
H311   H     0.40119   0.97665   0.13458   0.00000  Uiso   1.00
H312   H     0.00503   0.01095   0.38582   0.00000  Uiso   1.00
H313   H     0.16750   0.24157   0.18871   0.00000  Uiso   1.00
O314   O     0.22540   0.01534   0.01766   0.00000  Uiso   1.00
O315   O     0.01761   0.06035   0.34727   0.00000  Uiso   1.00
O316   O     0.07479   0.20692   0.08867   0.00000  Uiso   1.00
N317   N     0.28881   0.99967   0.01019   0.00000  Uiso   1.00
N318   N     0.85336   0.03176   0.24508   0.00000  Uiso   1.00
N319   N     0.03783   0.27990   0.06081   0.00000  Uiso   1.00
N320   N     0.38064   0.98051   0.10185   0.00000  Uiso   1.00
N321   N     0.94519   0.01259   0.33675   0.00000  Uiso   1.00
N322   N     0.12965   0.26074   0.15248   0.00000  Uiso   1.00
C323   C     0.16959   0.29389   0.87921   0.00000  Uiso   1.00
C324   C     0.08175   0.28431   0.84729   0.00000  Uiso   1.00
C325   C     0.08708   0.28556   0.87997   0.00000  Uiso   1.00
C326   C     0.99829   0.27574   0.84194   0.00000  Uiso   1.00
C327   C     0.87571   0.26247   0.80275   0.00000  Uiso   1.00
C328   C     0.18061   0.25406   0.86701   0.00000  Uiso   1.00
C329   C     0.26907   0.22988   0.91627   0.00000  Uiso   1.00
C330   C     0.26350   0.19460   0.89483   0.00000  Uiso   1.00
C331   C     0.29442   0.13439   0.88626   0.00000  Uiso   1.00
C332   C     0.63186   0.82982   0.83723   0.00000  Uiso   1.00
C333   C     0.67934   0.86934   0.86146   0.00000  Uiso   1.00
C334   C     0.63273   0.89784   0.81495   0.00000  Uiso   1.00
C335   C     0.58796   0.95525   0.76014   0.00000  Uiso   1.00
C336   C     0.00240   0.27422   0.75354   0.00000  Uiso   1.00
C337   C     0.99094   0.27362   0.77903   0.00000  Uiso   1.00
C338   C     0.90211   0.26380   0.74093   0.00000  Uiso   1.00
C339   C     0.90731   0.26504   0.77355   0.00000  Uiso   1.00
C340   C     0.08980   0.24337   0.79875   0.00000  Uiso   1.00
C341   C     0.08410   0.20812   0.77723   0.00000  Uiso   1.00
C342   C     0.17252   0.18390   0.82645   0.00000  Uiso   1.00
C343   C     0.04104   0.31913   0.76897   0.00000  Uiso   1.00
C344   C     0.49436   0.84758   0.72241   0.00000  Uiso   1.00
C345   C     0.54176   0.88714   0.74657   0.00000  Uiso   1.00
H346   H     0.74030   0.80220   0.93236   0.00000  Uiso   1.00
H347   H     0.15738   0.29383   0.93280   0.00000  Uiso   1.00
H348   H     0.83934   0.73816   0.96909   0.00000  Uiso   1.00
H349   H     0.74961   0.87759   0.91428   0.00000  Uiso   1.00
H350   H     0.02541   0.27981   0.90319   0.00000  Uiso   1.00
H351   H     0.40909   0.16245   0.97972   0.00000  Uiso   1.00
H352   H     0.71989   0.95647   0.86414   0.00000  Uiso   1.00
H353   H     0.93170   0.26590   0.70040   0.00000  Uiso   1.00
H354   H     0.83184   0.25553   0.68811   0.00000  Uiso   1.00
H355   H     0.01381   0.19986   0.72440   0.00000  Uiso   1.00
H356   H     0.92408   0.33930   0.66959   0.00000  Uiso   1.00
H357   H     0.76120   0.24873   0.70459   0.00000  Uiso   1.00
H358   H     0.14488   0.13136   0.78112   0.00000  Uiso   1.00
H359   H     0.45568   0.92539   0.66554   0.00000  Uiso   1.00
O360   O     0.83319   0.25809   0.80000   0.00000  Uiso   1.00
O361   O     0.33657   0.10412   0.90040   0.00000  Uiso   1.00
O362   O     0.58835   0.98987   0.74877   0.00000  Uiso   1.00
N363   N     0.97692   0.27393   0.85813   0.00000  Uiso   1.00
N364   N     0.33564   0.16420   0.92968   0.00000  Uiso   1.00
N365   N     0.65877   0.93908   0.82163   0.00000  Uiso   1.00
N366   N     0.83475   0.25720   0.75127   0.00000  Uiso   1.00
N367   N     0.19347   0.14747   0.82282   0.00000  Uiso   1.00
N368   N     0.51660   0.92235   0.71477   0.00000  Uiso   1.00
C369   C     0.53503   0.17239   0.83849   0.00000  Uiso   1.00
C370   C     0.42204   0.17200   0.76310   0.00000  Uiso   1.00
C371   C     0.36636   0.13604   0.72166   0.00000  Uiso   1.00
C372   C     0.26387   0.14239   0.65408   0.00000  Uiso   1.00
C373   C     0.09530   0.13557   0.54084   0.00000  Uiso   1.00
C374   C     0.58577   0.20515   0.84906   0.00000  Uiso   1.00
C375   C     0.66775   0.19707   0.87990   0.00000  Uiso   1.00
C376   C     0.70309   0.23133   0.88468   0.00000  Uiso   1.00
C377   C     0.78876   0.27599   0.90494   0.00000  Uiso   1.00
C378   C     0.54041   0.19157   0.87155   0.00000  Uiso   1.00
C379   C     0.58428   0.17207   0.92132   0.00000  Uiso   1.00
C380   C     0.58146   0.19490   0.94506   0.00000  Uiso   1.00
C381   C     0.09670   0.71847   0.00025   0.00000  Uiso   1.00
C382   C     0.45204   0.24761   0.79216   0.00000  Uiso   1.00
C383   C     0.37697   0.21285   0.73794   0.00000  Uiso   1.00
C384   C     0.77453   0.71926   0.67041   0.00000  Uiso   1.00
C385   C     0.21871   0.18332   0.62887   0.00000  Uiso   1.00
C386   C     0.54069   0.24601   0.82390   0.00000  Uiso   1.00
C387   C     0.57593   0.28029   0.82864   0.00000  Uiso   1.00
C388   C     0.65793   0.27226   0.85947   0.00000  Uiso   1.00
C389   C     0.49533   0.23242   0.84639   0.00000  Uiso   1.00
C390   C     0.99245   0.75529   0.87006   0.00000  Uiso   1.00
C391   C     0.03630   0.73583   0.91985   0.00000  Uiso   1.00
H392   H     0.57013   0.14058   0.85808   0.00000  Uiso   1.00
H393   H     0.40128   0.10443   0.74115   0.00000  Uiso   1.00
H394   H     0.70262   0.16545   0.89937   0.00000  Uiso   1.00
H395   H     0.61916   0.14046   0.94078   0.00000  Uiso   1.00
H396   H     0.19419   0.08236   0.60041   0.00000  Uiso   1.00
H397   H     0.82963   0.21104   0.93404   0.00000  Uiso   1.00
H398   H     0.65364   0.15833   0.02137   0.00000  Uiso   1.00
H399   H     0.91694   0.77942   0.77257   0.00000  Uiso   1.00
H400   H     0.73967   0.75088   0.65095   0.00000  Uiso   1.00
H401   H     0.54103   0.31190   0.80917   0.00000  Uiso   1.00
H402   H     0.95756   0.78691   0.85058   0.00000  Uiso   1.00
H403   H     0.56303   0.70123   0.52720   0.00000  Uiso   1.00
H404   H     0.69847   0.32991   0.86084   0.00000  Uiso   1.00
H405   H     0.02248   0.77720   0.94816   0.00000  Uiso   1.00
O406   O     0.01477   0.12052   0.48534   0.00000  Uiso   1.00
O407   O     0.84845   0.28934   0.92306   0.00000  Uiso   1.00
O408   O     0.11755   0.72019   0.03763   0.00000  Uiso   1.00
N409   N     0.18765   0.11425   0.59987   0.00000  Uiso   1.00
N410   N     0.78173   0.23456   0.91179   0.00000  Uiso   1.00
N411   N     0.61722   0.18528   0.99345   0.00000  Uiso   1.00
N412   N     0.61707   0.67821   0.56048   0.00000  Uiso   1.00
N413   N     0.71116   0.29852   0.87240   0.00000  Uiso   1.00
N414   N     0.04664   0.74924   0.95406   0.00000  Uiso   1.00
C415   C     0.36395   0.14705   0.62780   0.00000  Uiso   1.00
C416   C     0.46463   0.12377   0.69347   0.00000  Uiso   1.00
C417   C     0.47873   0.09016   0.72097   0.00000  Uiso   1.00
C418   C     0.57671   0.07319   0.78145   0.00000  Uiso   1.00
C419   C     0.72072   0.03458   0.87857   0.00000  Uiso   1.00
C420   C     0.34464   0.14300   0.58437   0.00000  Uiso   1.00
C421   C     0.25785   0.12556   0.52014   0.00000  Uiso   1.00
C422   C     0.25482   0.12479   0.48878   0.00000  Uiso   1.00
C423   C     0.21252   0.11606   0.41652   0.00000  Uiso   1.00
C424   C     0.38464   0.19468   0.64564   0.00000  Uiso   1.00
C425   C     0.33146   0.22069   0.63290   0.00000  Uiso   1.00
C426   C     0.36209   0.26343   0.65311   0.00000  Uiso   1.00
C427   C     0.88188   0.83494   0.67596   0.00000  Uiso   1.00
C428   C     0.51287   0.17669   0.68631   0.00000  Uiso   1.00
C429   C     0.54551   0.13987   0.72525   0.00000  Uiso   1.00
C430   C     0.64350   0.12295   0.78571   0.00000  Uiso   1.00
C431   C     0.65775   0.08932   0.81329   0.00000  Uiso   1.00
C432   C     0.42553   0.15910   0.61616   0.00000  Uiso   1.00
C433   C     0.42262   0.15835   0.58488   0.00000  Uiso   1.00
C434   C     0.33586   0.14091   0.52062   0.00000  Uiso   1.00
C435   C     0.46553   0.21078   0.67742   0.00000  Uiso   1.00
C436   C     0.49624   0.25348   0.69765   0.00000  Uiso   1.00
C437   C     0.44312   0.27956   0.68495   0.00000  Uiso   1.00
H438   H     0.30097   0.13451   0.60305   0.00000  Uiso   1.00
H439   H     0.41611   0.07771   0.69635   0.00000  Uiso   1.00
H440   H     0.19527   0.11311   0.49556   0.00000  Uiso   1.00
H441   H     0.26887   0.20822   0.60830   0.00000  Uiso   1.00
H442   H     0.57943   0.02181   0.81380   0.00000  Uiso   1.00
H443   H     0.11375   0.09648   0.39041   0.00000  Uiso   1.00
H444   H     0.76895   0.79705   0.62815   0.00000  Uiso   1.00
H445   H     0.57585   0.18922   0.71106   0.00000  Uiso   1.00
H446   H     0.70608   0.13541   0.81029   0.00000  Uiso   1.00
H447   H     0.48523   0.17081   0.60949   0.00000  Uiso   1.00
H448   H     0.55883   0.26593   0.72224   0.00000  Uiso   1.00
H449   H     0.81478   0.06865   0.90628   0.00000  Uiso   1.00
H450   H     0.34909   0.14331   0.48288   0.00000  Uiso   1.00
H451   H     0.50430   0.34388   0.72062   0.00000  Uiso   1.00
O452   O     0.77781   0.00884   0.92336   0.00000  Uiso   1.00
O453   O     0.16684   0.10680   0.36788   0.00000  Uiso   1.00
O454   O     0.87047   0.86994   0.67979   0.00000  Uiso   1.00
N455   N     0.61695   0.04023   0.82195   0.00000  Uiso   1.00
N456   N     0.18157   0.11002   0.42611   0.00000  Uiso   1.00
N457   N     0.82666   0.79754   0.64836   0.00000  Uiso   1.00
N458   N     0.74359   0.06543   0.87171   0.00000  Uiso   1.00
N459   N     0.30821   0.13523   0.47587   0.00000  Uiso   1.00
N460   N     0.45330   0.32275   0.69812   0.00000  Uiso   1.00
C461   C     0.59353   0.12369   0.15898   0.00000  Uiso   1.00
C462   C     0.61873   0.12168   0.14231   0.00000  Uiso   1.00
C463   C     0.55437   0.10645   0.08273   0.00000  Uiso   1.00
C464   C     0.59162   0.10731   0.07723   0.00000  Uiso   1.00
C465   C     0.61581   0.10185   0.04339   0.00000  Uiso   1.00
C466   C     0.60804   0.17059   0.17642   0.00000  Uiso   1.00
C467   C     0.53469   0.19649   0.14551   0.00000  Uiso   1.00
C468   C     0.06295   0.73852   0.16873   0.00000  Uiso   1.00
C469   C     0.07056   0.80899   0.18787   0.00000  Uiso   1.00
C470   C     0.67758   0.09839   0.22414   0.00000  Uiso   1.00
C471   C     0.66271   0.06358   0.23336   0.00000  Uiso   1.00
C472   C     0.24951   0.54482   0.29677   0.00000  Uiso   1.00
C473   C     0.36510   0.50318   0.39000   0.00000  Uiso   1.00
C474   C     0.27414   0.65228   0.25518   0.00000  Uiso   1.00
C475   C     0.21683   0.63721   0.19457   0.00000  Uiso   1.00
C476   C     0.75419   0.13809   0.18916   0.00000  Uiso   1.00
C477   C     0.68989   0.12286   0.12958   0.00000  Uiso   1.00
C478   C     0.20613   0.68612   0.22867   0.00000  Uiso   1.00
C479   C     0.23451   0.72812   0.25195   0.00000  Uiso   1.00
C480   C     0.16122   0.75408   0.22108   0.00000  Uiso   1.00
C481   C     0.27568   0.61391   0.27639   0.00000  Uiso   1.00
C482   C     0.86253   0.09521   0.33980   0.00000  Uiso   1.00
C483   C     0.34779   0.56038   0.34912   0.00000  Uiso   1.00
H484   H     0.51716   0.11160   0.11830   0.00000  Uiso   1.00
H485   H     0.47845   0.09444   0.04230   0.00000  Uiso   1.00
H486   H     0.45879   0.18446   0.10508   0.00000  Uiso   1.00
H487   H     0.58679   0.05157   0.19292   0.00000  Uiso   1.00
H488   H     0.97879   0.58228   0.98107   0.00000  Uiso   1.00
H489   H     0.43733   0.27209   0.11346   0.00000  Uiso   1.00
H490   H     0.20724   0.49186   0.29868   0.00000  Uiso   1.00
H491   H     0.35051   0.66437   0.29587   0.00000  Uiso   1.00
H492   H     0.83010   0.15011   0.22961   0.00000  Uiso   1.00
H493   H     0.31043   0.74013   0.29238   0.00000  Uiso   1.00
H494   H     0.93843   0.10724   0.38022   0.00000  Uiso   1.00
H495   H     0.76420   0.12746   0.13310   0.00000  Uiso   1.00
H496   H     0.22274   0.81727   0.26549   0.00000  Uiso   1.00
H497   H     0.49264   0.53705   0.45071   0.00000  Uiso   1.00
O498   O     0.60204   0.09455   0.01029   0.00000  Uiso   1.00
O499   O     0.04765   0.84357   0.18398   0.00000  Uiso   1.00
O500   O     0.40176   0.47592   0.42698   0.00000  Uiso   1.00
N501   N     0.54877   0.09486   0.02595   0.00000  Uiso   1.00
N502   N     0.01000   0.77233   0.14972   0.00000  Uiso   1.00
N503   N     0.26234   0.51035   0.32289   0.00000  Uiso   1.00
N504   N     0.70235   0.11918   0.10775   0.00000  Uiso   1.00
N505   N     0.16358   0.79664   0.23152   0.00000  Uiso   1.00
N506   N     0.41591   0.53466   0.40469   0.00000  Uiso   1.00
C507   C     0.98803   0.16062   0.91271   0.00000  Uiso   1.00
C508   C     0.03641   0.20283   0.95128   0.00000  Uiso   1.00
C509   C     0.99020   0.23353   0.94097   0.00000  Uiso   1.00
C510   C     0.04721   0.26996   0.98146   0.00000  Uiso   1.00
C511   C     0.10719   0.33465   0.03391   0.00000  Uiso   1.00
C512   C     0.06048   0.12499   0.96553   0.00000  Uiso   1.00
C513   C     0.03451   0.09023   0.96719   0.00000  Uiso   1.00
C514   C     0.11180   0.06113   0.01967   0.00000  Uiso   1.00
C515   C     0.20913   0.00495   0.09421   0.00000  Uiso   1.00
C516   C     0.99292   0.16098   0.88318   0.00000  Uiso   1.00
C517   C     0.91014   0.15647   0.81560   0.00000  Uiso   1.00
C518   C     0.93055   0.15766   0.79875   0.00000  Uiso   1.00
C519   C     0.92298   0.15736   0.74543   0.00000  Uiso   1.00
C520   C     0.17147   0.17074   0.00295   0.00000  Uiso   1.00
C521   C     0.13604   0.20833   0.00030   0.00000  Uiso   1.00
C522   C     0.19314   0.24472   0.04081   0.00000  Uiso   1.00
C523   C     0.14702   0.27547   0.03056   0.00000  Uiso   1.00
C524   C     0.16011   0.13048   0.01454   0.00000  Uiso   1.00
C525   C     0.23746   0.10142   0.06703   0.00000  Uiso   1.00
C526   C     0.21161   0.06663   0.06877   0.00000  Uiso   1.00
C527   C     0.09255   0.16647   0.93219   0.00000  Uiso   1.00
C528   C     0.11309   0.16767   0.91544   0.00000  Uiso   1.00
C529   C     0.03036   0.16316   0.84785   0.00000  Uiso   1.00
H530   H     0.91047   0.15634   0.87455   0.00000  Uiso   1.00
H531   H     0.91309   0.22926   0.90303   0.00000  Uiso   1.00
H532   H     0.95740   0.08598   0.92924   0.00000  Uiso   1.00
H533   H     0.83305   0.15221   0.77768   0.00000  Uiso   1.00
H534   H     0.95996   0.31252   0.95624   0.00000  Uiso   1.00
H535   H     0.05337   0.01040   0.01150   0.00000  Uiso   1.00
H536   H     0.79116   0.15006   0.69189   0.00000  Uiso   1.00
H537   H     0.24904   0.17502   0.04112   0.00000  Uiso   1.00
H538   H     0.27024   0.24897   0.07874   0.00000  Uiso   1.00
H539   H     0.31455   0.10569   0.10495   0.00000  Uiso   1.00
H540   H     0.19020   0.17192   0.95339   0.00000  Uiso   1.00
H541   H     0.24983   0.32851   0.09885   0.00000  Uiso   1.00
H542   H     0.34325   0.02639   0.15411   0.00000  Uiso   1.00
H543   H     0.08104   0.16606   0.83451   0.00000  Uiso   1.00
O544   O     0.11275   0.36882   0.04930   0.00000  Uiso   1.00
O545   O     0.23530   0.97245   0.12179   0.00000  Uiso   1.00
O546   O     0.89128   0.15568   0.70248   0.00000  Uiso   1.00
N547   N     0.02526   0.30614   0.98463   0.00000  Uiso   1.00
N548   N     0.11260   0.02368   0.03630   0.00000  Uiso   1.00
N549   N     0.86746   0.15424   0.73750   0.00000  Uiso   1.00
N550   N     0.18124   0.31475   0.06137   0.00000  Uiso   1.00
N551   N     0.26858   0.03229   0.11304   0.00000  Uiso   1.00
N552   N     0.02344   0.16285   0.81424   0.00000  Uiso   1.00
C553   C     0.55187   0.06121   0.59727   0.00000  Uiso   1.00
C554   C     0.50180   0.04912   0.59567   0.00000  Uiso   1.00
C555   C     0.90857   0.52828   0.54326   0.00000  Uiso   1.00
C556   C     0.87602   0.52009   0.55149   0.00000  Uiso   1.00
C557   C     0.78938   0.49944   0.54011   0.00000  Uiso   1.00
C558   C     0.65740   0.04027   0.66041   0.00000  Uiso   1.00
C559   C     0.69498   0.01199   0.66243   0.00000  Uiso   1.00
C560   C     0.79341   0.99636   0.72516   0.00000  Uiso   1.00
C561   C     0.44836   0.46200   0.81429   0.00000  Uiso   1.00
C562   C     0.57042   0.10968   0.60961   0.00000  Uiso   1.00
C563   C     0.53489   0.13976   0.56894   0.00000  Uiso   1.00
C564   C     0.56012   0.18257   0.58892   0.00000  Uiso   1.00
C565   C     0.58002   0.25597   0.59919   0.00000  Uiso   1.00
C566   C     0.65986   0.08375   0.70507   0.00000  Uiso   1.00
C567   C     0.56047   0.06136   0.65422   0.00000  Uiso   1.00
C568   C     0.52805   0.05321   0.66253   0.00000  Uiso   1.00
C569   C     0.93477   0.53236   0.61015   0.00000  Uiso   1.00
C570   C     0.71605   0.05251   0.71896   0.00000  Uiso   1.00
C571   C     0.81446   0.03693   0.78170   0.00000  Uiso   1.00
C572   C     0.85217   0.00863   0.78382   0.00000  Uiso   1.00
C573   C     0.62907   0.12193   0.66817   0.00000  Uiso   1.00
C574   C     0.65437   0.16470   0.68821   0.00000  Uiso   1.00
C575   C     0.61888   0.19484   0.64758   0.00000  Uiso   1.00
H576   H     0.50621   0.05168   0.55169   0.00000  Uiso   1.00
H577   H     0.86320   0.51880   0.49796   0.00000  Uiso   1.00
H578   H     0.64957   0.00253   0.61711   0.00000  Uiso   1.00
H579   H     0.48951   0.13028   0.52364   0.00000  Uiso   1.00
H580   H     0.73053   0.48774   0.46422   0.00000  Uiso   1.00
H581   H     0.33437   0.45343   0.71546   0.00000  Uiso   1.00
H582   H     0.49685   0.22282   0.51836   0.00000  Uiso   1.00
H583   H     0.70553   0.09328   0.75066   0.00000  Uiso   1.00
H584   H     0.57345   0.06269   0.70785   0.00000  Uiso   1.00
H585   H     0.85983   0.04641   0.82700   0.00000  Uiso   1.00
H586   H     0.69976   0.17416   0.73353   0.00000  Uiso   1.00
H587   H     0.90119   0.52335   0.63458   0.00000  Uiso   1.00
H588   H     0.50503   0.48905   0.88582   0.00000  Uiso   1.00
H589   H     0.66750   0.25843   0.68871   0.00000  Uiso   1.00
O590   O     0.72540   0.48466   0.51766   0.00000  Uiso   1.00
O591   O     0.51761   0.43965   0.84727   0.00000  Uiso   1.00
O592   O     0.57479   0.29308   0.58867   0.00000  Uiso   1.00
N593   N     0.78881   0.50033   0.51019   0.00000  Uiso   1.00
N594   N     0.35336   0.46824   0.74508   0.00000  Uiso   1.00
N595   N     0.53783   0.22010   0.56081   0.00000  Uiso   1.00
N596   N     0.88064   0.51949   0.60185   0.00000  Uiso   1.00
N597   N     0.44519   0.48741   0.83675   0.00000  Uiso   1.00
N598   N     0.62965   0.23926   0.65248   0.00000  Uiso   1.00
C599   C     0.66959   0.20611   0.37921   0.00000  Uiso   1.00
C600   C     0.58175   0.21569   0.34729   0.00000  Uiso   1.00
C601   C     0.58708   0.21444   0.37997   0.00000  Uiso   1.00
C602   C     0.49829   0.22426   0.34194   0.00000  Uiso   1.00
C603   C     0.37571   0.23753   0.30275   0.00000  Uiso   1.00
C604   C     0.68061   0.24594   0.36701   0.00000  Uiso   1.00
C605   C     0.76907   0.27012   0.41627   0.00000  Uiso   1.00
C606   C     0.76350   0.30540   0.39483   0.00000  Uiso   1.00
C607   C     0.79442   0.36561   0.38626   0.00000  Uiso   1.00
C608   C     0.13186   0.67018   0.33723   0.00000  Uiso   1.00
C609   C     0.17934   0.63066   0.36146   0.00000  Uiso   1.00
C610   C     0.13273   0.60216   0.31495   0.00000  Uiso   1.00
C611   C     0.08796   0.54475   0.26014   0.00000  Uiso   1.00
C612   C     0.50240   0.22578   0.25354   0.00000  Uiso   1.00
C613   C     0.49094   0.22638   0.27903   0.00000  Uiso   1.00
C614   C     0.40211   0.23620   0.24093   0.00000  Uiso   1.00
C615   C     0.40731   0.23496   0.27355   0.00000  Uiso   1.00
C616   C     0.58980   0.25663   0.29875   0.00000  Uiso   1.00
C617   C     0.58410   0.29188   0.27723   0.00000  Uiso   1.00
C618   C     0.67252   0.31610   0.32645   0.00000  Uiso   1.00
C619   C     0.54104   0.18087   0.26897   0.00000  Uiso   1.00
C620   C     0.99436   0.65242   0.22241   0.00000  Uiso   1.00
C621   C     0.04176   0.61286   0.24657   0.00000  Uiso   1.00
H622   H     0.24030   0.69780   0.43236   0.00000  Uiso   1.00
H623   H     0.65738   0.20617   0.43280   0.00000  Uiso   1.00
H624   H     0.33934   0.76184   0.46909   0.00000  Uiso   1.00
H625   H     0.24961   0.62241   0.41428   0.00000  Uiso   1.00
H626   H     0.52541   0.22019   0.40319   0.00000  Uiso   1.00
H627   H     0.90909   0.33755   0.47972   0.00000  Uiso   1.00
H628   H     0.21989   0.54353   0.36414   0.00000  Uiso   1.00
H629   H     0.43170   0.23410   0.20040   0.00000  Uiso   1.00
H630   H     0.33184   0.24447   0.18811   0.00000  Uiso   1.00
H631   H     0.51381   0.30014   0.22440   0.00000  Uiso   1.00
H632   H     0.42408   0.16070   0.16959   0.00000  Uiso   1.00
H633   H     0.26120   0.25127   0.20459   0.00000  Uiso   1.00
H634   H     0.64488   0.36864   0.28112   0.00000  Uiso   1.00
H635   H     0.95568   0.57461   0.16554   0.00000  Uiso   1.00
O636   O     0.33319   0.24191   0.30000   0.00000  Uiso   1.00
O637   O     0.83657   0.39588   0.40040   0.00000  Uiso   1.00
O638   O     0.08835   0.51013   0.24877   0.00000  Uiso   1.00
N639   N     0.47692   0.22607   0.35813   0.00000  Uiso   1.00
N640   N     0.83564   0.33580   0.42968   0.00000  Uiso   1.00
N641   N     0.15877   0.56092   0.32163   0.00000  Uiso   1.00
N642   N     0.33475   0.24280   0.25127   0.00000  Uiso   1.00
N643   N     0.69347   0.35253   0.32282   0.00000  Uiso   1.00
N644   N     0.01660   0.57765   0.21477   0.00000  Uiso   1.00
C645   C     0.03503   0.32761   0.33849   0.00000  Uiso   1.00
C646   C     0.92204   0.32800   0.26310   0.00000  Uiso   1.00
C647   C     0.86636   0.36396   0.22166   0.00000  Uiso   1.00
C648   C     0.76387   0.35761   0.15408   0.00000  Uiso   1.00
C649   C     0.59530   0.36443   0.04084   0.00000  Uiso   1.00
C650   C     0.08577   0.29485   0.34906   0.00000  Uiso   1.00
C651   C     0.16775   0.30293   0.37990   0.00000  Uiso   1.00
C652   C     0.20309   0.26867   0.38468   0.00000  Uiso   1.00
C653   C     0.28876   0.22401   0.40494   0.00000  Uiso   1.00
C654   C     0.04041   0.30843   0.37155   0.00000  Uiso   1.00
C655   C     0.08428   0.32793   0.42132   0.00000  Uiso   1.00
C656   C     0.08146   0.30510   0.44506   0.00000  Uiso   1.00
C657   C     0.59670   0.78153   0.50025   0.00000  Uiso   1.00
C658   C     0.95204   0.25239   0.29216   0.00000  Uiso   1.00
C659   C     0.87697   0.28715   0.23794   0.00000  Uiso   1.00
C660   C     0.27453   0.78074   0.17041   0.00000  Uiso   1.00
C661   C     0.71871   0.31668   0.12887   0.00000  Uiso   1.00
C662   C     0.04069   0.25399   0.32390   0.00000  Uiso   1.00
C663   C     0.07593   0.21971   0.32864   0.00000  Uiso   1.00
C664   C     0.15793   0.22774   0.35947   0.00000  Uiso   1.00
C665   C     0.99533   0.26758   0.34639   0.00000  Uiso   1.00
C666   C     0.49245   0.74471   0.37006   0.00000  Uiso   1.00
C667   C     0.53630   0.76417   0.41985   0.00000  Uiso   1.00
H668   H     0.07013   0.35942   0.35808   0.00000  Uiso   1.00
H669   H     0.90128   0.39557   0.24115   0.00000  Uiso   1.00
H670   H     0.20262   0.33455   0.39937   0.00000  Uiso   1.00
H671   H     0.11916   0.35954   0.44078   0.00000  Uiso   1.00
H672   H     0.69419   0.41764   0.10041   0.00000  Uiso   1.00
H673   H     0.32963   0.28896   0.43404   0.00000  Uiso   1.00
H674   H     0.15364   0.34167   0.52137   0.00000  Uiso   1.00
H675   H     0.41694   0.72058   0.27257   0.00000  Uiso   1.00
H676   H     0.23967   0.74912   0.15095   0.00000  Uiso   1.00
H677   H     0.04103   0.18810   0.30917   0.00000  Uiso   1.00
H678   H     0.45756   0.71309   0.35058   0.00000  Uiso   1.00
H679   H     0.06303   0.79877   0.02720   0.00000  Uiso   1.00
H680   H     0.19847   0.17009   0.36084   0.00000  Uiso   1.00
H681   H     0.52248   0.72280   0.44816   0.00000  Uiso   1.00
O682   O     0.51477   0.37948   0.98534   0.00000  Uiso   1.00
O683   O     0.34845   0.21066   0.42306   0.00000  Uiso   1.00
O684   O     0.61755   0.77981   0.53763   0.00000  Uiso   1.00
N685   N     0.68765   0.38575   0.09987   0.00000  Uiso   1.00
N686   N     0.28173   0.26544   0.41179   0.00000  Uiso   1.00
N687   N     0.11722   0.31472   0.49345   0.00000  Uiso   1.00
N688   N     0.11707   0.82179   0.06048   0.00000  Uiso   1.00
N689   N     0.21116   0.20148   0.37240   0.00000  Uiso   1.00
N690   N     0.54664   0.75076   0.45406   0.00000  Uiso   1.00
C691   C     0.86395   0.35295   0.12780   0.00000  Uiso   1.00
C692   C     0.96463   0.37623   0.19347   0.00000  Uiso   1.00
C693   C     0.97873   0.40984   0.22097   0.00000  Uiso   1.00
C694   C     0.07671   0.42681   0.28145   0.00000  Uiso   1.00
C695   C     0.22072   0.46542   0.37857   0.00000  Uiso   1.00
C696   C     0.84464   0.35700   0.08437   0.00000  Uiso   1.00
C697   C     0.75785   0.37444   0.02014   0.00000  Uiso   1.00
C698   C     0.75482   0.37521   0.98878   0.00000  Uiso   1.00
C699   C     0.71252   0.38394   0.91652   0.00000  Uiso   1.00
C700   C     0.88464   0.30532   0.14564   0.00000  Uiso   1.00
C701   C     0.83146   0.27931   0.13290   0.00000  Uiso   1.00
C702   C     0.86209   0.23657   0.15311   0.00000  Uiso   1.00
C703   C     0.38188   0.66506   0.17596   0.00000  Uiso   1.00
C704   C     0.01287   0.32331   0.18631   0.00000  Uiso   1.00
C705   C     0.04551   0.36013   0.22525   0.00000  Uiso   1.00
C706   C     0.14350   0.37705   0.28571   0.00000  Uiso   1.00
C707   C     0.15775   0.41068   0.31329   0.00000  Uiso   1.00
C708   C     0.92553   0.34090   0.11616   0.00000  Uiso   1.00
C709   C     0.92262   0.34165   0.08488   0.00000  Uiso   1.00
C710   C     0.83586   0.35909   0.02062   0.00000  Uiso   1.00
C711   C     0.96553   0.28922   0.17742   0.00000  Uiso   1.00
C712   C     0.99624   0.24652   0.19765   0.00000  Uiso   1.00
C713   C     0.94312   0.22044   0.18495   0.00000  Uiso   1.00
H714   H     0.80097   0.36549   0.10305   0.00000  Uiso   1.00
H715   H     0.91611   0.42229   0.19635   0.00000  Uiso   1.00
H716   H     0.69527   0.38689   0.99556   0.00000  Uiso   1.00
H717   H     0.76887   0.29178   0.10830   0.00000  Uiso   1.00
H718   H     0.07943   0.47819   0.31380   0.00000  Uiso   1.00
H719   H     0.61375   0.40352   0.89041   0.00000  Uiso   1.00
H720   H     0.26895   0.70295   0.12815   0.00000  Uiso   1.00
H721   H     0.07585   0.31078   0.21106   0.00000  Uiso   1.00
H722   H     0.20608   0.36459   0.31029   0.00000  Uiso   1.00
H723   H     0.98523   0.32919   0.10949   0.00000  Uiso   1.00
H724   H     0.05883   0.23407   0.22224   0.00000  Uiso   1.00
H725   H     0.31478   0.43135   0.40628   0.00000  Uiso   1.00
H726   H     0.84909   0.35669   0.98288   0.00000  Uiso   1.00
H727   H     0.00430   0.15612   0.22062   0.00000  Uiso   1.00
O728   O     0.27781   0.49116   0.42336   0.00000  Uiso   1.00
O729   O     0.66684   0.39320   0.86788   0.00000  Uiso   1.00
O730   O     0.37047   0.63006   0.17979   0.00000  Uiso   1.00
N731   N     0.11695   0.45977   0.32195   0.00000  Uiso   1.00
N732   N     0.68157   0.38998   0.92611   0.00000  Uiso   1.00
N733   N     0.32666   0.70246   0.14836   0.00000  Uiso   1.00
N734   N     0.24359   0.43457   0.37171   0.00000  Uiso   1.00
N735   N     0.80821   0.36477   0.97587   0.00000  Uiso   1.00
N736   N     0.95330   0.17725   0.19812   0.00000  Uiso   1.00
C737   C     0.09353   0.37631   0.65898   0.00000  Uiso   1.00
C738   C     0.11873   0.37832   0.64231   0.00000  Uiso   1.00
C739   C     0.05437   0.39355   0.58273   0.00000  Uiso   1.00
C740   C     0.09162   0.39269   0.57723   0.00000  Uiso   1.00
C741   C     0.11581   0.39815   0.54339   0.00000  Uiso   1.00
C742   C     0.10804   0.32941   0.67642   0.00000  Uiso   1.00
C743   C     0.03469   0.30351   0.64551   0.00000  Uiso   1.00
C744   C     0.56295   0.76148   0.66873   0.00000  Uiso   1.00
C745   C     0.57056   0.69101   0.68787   0.00000  Uiso   1.00
C746   C     0.17758   0.40161   0.72414   0.00000  Uiso   1.00
C747   C     0.16271   0.43642   0.73336   0.00000  Uiso   1.00
C748   C     0.74951   0.95518   0.79677   0.00000  Uiso   1.00
C749   C     0.86510   0.99682   0.89000   0.00000  Uiso   1.00
C750   C     0.77414   0.84772   0.75518   0.00000  Uiso   1.00
C751   C     0.71683   0.86279   0.69457   0.00000  Uiso   1.00
C752   C     0.25419   0.36191   0.68916   0.00000  Uiso   1.00
C753   C     0.18989   0.37714   0.62958   0.00000  Uiso   1.00
C754   C     0.70613   0.81388   0.72867   0.00000  Uiso   1.00
C755   C     0.73451   0.77188   0.75195   0.00000  Uiso   1.00
C756   C     0.66122   0.74592   0.72108   0.00000  Uiso   1.00
C757   C     0.77568   0.88609   0.77639   0.00000  Uiso   1.00
C758   C     0.36253   0.40479   0.83980   0.00000  Uiso   1.00
C759   C     0.84779   0.93962   0.84912   0.00000  Uiso   1.00
H760   H     0.01716   0.38840   0.61830   0.00000  Uiso   1.00
H761   H     0.97845   0.40556   0.54230   0.00000  Uiso   1.00
H762   H     0.95879   0.31554   0.60508   0.00000  Uiso   1.00
H763   H     0.08679   0.44843   0.69292   0.00000  Uiso   1.00
H764   H     0.47879   0.91772   0.48107   0.00000  Uiso   1.00
H765   H     0.93733   0.22791   0.61346   0.00000  Uiso   1.00
H766   H     0.70724   0.00814   0.79868   0.00000  Uiso   1.00
H767   H     0.85051   0.83563   0.79587   0.00000  Uiso   1.00
H768   H     0.33010   0.34989   0.72961   0.00000  Uiso   1.00
H769   H     0.81043   0.75987   0.79238   0.00000  Uiso   1.00
H770   H     0.43843   0.39276   0.88022   0.00000  Uiso   1.00
H771   H     0.26420   0.37254   0.63310   0.00000  Uiso   1.00
H772   H     0.72274   0.68273   0.76549   0.00000  Uiso   1.00
H773   H     0.99264   0.96295   0.95071   0.00000  Uiso   1.00
O774   O     0.10204   0.40545   0.51029   0.00000  Uiso   1.00
O775   O     0.54765   0.65643   0.68398   0.00000  Uiso   1.00
O776   O     0.90176   0.02408   0.92698   0.00000  Uiso   1.00
N777   N     0.04877   0.40514   0.52595   0.00000  Uiso   1.00
N778   N     0.51000   0.72767   0.64972   0.00000  Uiso   1.00
N779   N     0.76234   0.98965   0.82289   0.00000  Uiso   1.00
N780   N     0.20235   0.38082   0.60775   0.00000  Uiso   1.00
N781   N     0.66358   0.70336   0.73152   0.00000  Uiso   1.00
N782   N     0.91591   0.96534   0.90469   0.00000  Uiso   1.00
C783   C     0.48803   0.33938   0.41271   0.00000  Uiso   1.00
C784   C     0.53641   0.29717   0.45128   0.00000  Uiso   1.00
C785   C     0.49020   0.26647   0.44097   0.00000  Uiso   1.00
C786   C     0.54721   0.23004   0.48146   0.00000  Uiso   1.00
C787   C     0.60719   0.16535   0.53391   0.00000  Uiso   1.00
C788   C     0.56048   0.37501   0.46553   0.00000  Uiso   1.00
C789   C     0.53451   0.40977   0.46719   0.00000  Uiso   1.00
C790   C     0.61180   0.43887   0.51967   0.00000  Uiso   1.00
C791   C     0.70913   0.49505   0.59421   0.00000  Uiso   1.00
C792   C     0.49292   0.33902   0.38318   0.00000  Uiso   1.00
C793   C     0.41014   0.34353   0.31560   0.00000  Uiso   1.00
C794   C     0.43055   0.34234   0.29875   0.00000  Uiso   1.00
C795   C     0.42298   0.34264   0.24543   0.00000  Uiso   1.00
C796   C     0.67147   0.32926   0.50295   0.00000  Uiso   1.00
C797   C     0.63604   0.29167   0.50030   0.00000  Uiso   1.00
C798   C     0.69314   0.25528   0.54081   0.00000  Uiso   1.00
C799   C     0.64702   0.22453   0.53056   0.00000  Uiso   1.00
C800   C     0.66011   0.36952   0.51454   0.00000  Uiso   1.00
C801   C     0.73746   0.39858   0.56703   0.00000  Uiso   1.00
C802   C     0.71161   0.43337   0.56877   0.00000  Uiso   1.00
C803   C     0.59255   0.33353   0.43219   0.00000  Uiso   1.00
C804   C     0.61309   0.33233   0.41544   0.00000  Uiso   1.00
C805   C     0.53036   0.33684   0.34785   0.00000  Uiso   1.00
H806   H     0.41047   0.34366   0.37455   0.00000  Uiso   1.00
H807   H     0.41309   0.27074   0.40303   0.00000  Uiso   1.00
H808   H     0.45740   0.41402   0.42924   0.00000  Uiso   1.00
H809   H     0.33305   0.34779   0.27768   0.00000  Uiso   1.00
H810   H     0.45996   0.18748   0.45624   0.00000  Uiso   1.00
H811   H     0.55337   0.48960   0.51150   0.00000  Uiso   1.00
H812   H     0.29116   0.34994   0.19189   0.00000  Uiso   1.00
H813   H     0.74904   0.32498   0.54112   0.00000  Uiso   1.00
H814   H     0.77024   0.25103   0.57874   0.00000  Uiso   1.00
H815   H     0.81455   0.39431   0.60495   0.00000  Uiso   1.00
H816   H     0.69020   0.32808   0.45339   0.00000  Uiso   1.00
H817   H     0.74983   0.17149   0.59885   0.00000  Uiso   1.00
H818   H     0.84325   0.47361   0.65411   0.00000  Uiso   1.00
H819   H     0.58104   0.33394   0.33451   0.00000  Uiso   1.00
O820   O     0.61275   0.13118   0.54930   0.00000  Uiso   1.00
O821   O     0.73530   0.52755   0.62179   0.00000  Uiso   1.00
O822   O     0.39128   0.34432   0.20248   0.00000  Uiso   1.00
N823   N     0.52526   0.19386   0.48463   0.00000  Uiso   1.00
N824   N     0.61260   0.47632   0.53630   0.00000  Uiso   1.00
N825   N     0.36746   0.34576   0.23750   0.00000  Uiso   1.00
N826   N     0.68124   0.18525   0.56137   0.00000  Uiso   1.00
N827   N     0.76858   0.46771   0.61304   0.00000  Uiso   1.00
N828   N     0.52344   0.33715   0.31424   0.00000  Uiso   1.00
C829   C     0.05187   0.56121   0.59727   0.00000  Uiso   1.00
C830   C     0.00180   0.54912   0.59567   0.00000  Uiso   1.00
C831   C     0.40857   0.02828   0.54326   0.00000  Uiso   1.00
C832   C     0.37602   0.02009   0.55149   0.00000  Uiso   1.00
C833   C     0.28938   0.99944   0.54011   0.00000  Uiso   1.00
C834   C     0.15740   0.54027   0.66041   0.00000  Uiso   1.00
C835   C     0.19498   0.51199   0.66243   0.00000  Uiso   1.00
C836   C     0.29341   0.49636   0.72516   0.00000  Uiso   1.00
C837   C     0.94836   0.96200   0.81429   0.00000  Uiso   1.00
C838   C     0.07042   0.60968   0.60961   0.00000  Uiso   1.00
C839   C     0.03489   0.63976   0.56894   0.00000  Uiso   1.00
C840   C     0.06012   0.68257   0.58892   0.00000  Uiso   1.00
C841   C     0.08002   0.75597   0.59919   0.00000  Uiso   1.00
C842   C     0.15986   0.58375   0.70507   0.00000  Uiso   1.00
C843   C     0.06047   0.56136   0.65422   0.00000  Uiso   1.00
C844   C     0.02805   0.55321   0.66253   0.00000  Uiso   1.00
C845   C     0.43477   0.03236   0.61015   0.00000  Uiso   1.00
C846   C     0.21605   0.55251   0.71896   0.00000  Uiso   1.00
C847   C     0.31446   0.53693   0.78170   0.00000  Uiso   1.00
C848   C     0.35217   0.50863   0.78382   0.00000  Uiso   1.00
C849   C     0.12907   0.62193   0.66817   0.00000  Uiso   1.00
C850   C     0.15437   0.66470   0.68821   0.00000  Uiso   1.00
C851   C     0.11888   0.69484   0.64758   0.00000  Uiso   1.00
H852   H     0.00621   0.55168   0.55169   0.00000  Uiso   1.00
H853   H     0.36320   0.01880   0.49796   0.00000  Uiso   1.00
H854   H     0.14957   0.50253   0.61711   0.00000  Uiso   1.00
H855   H     0.98951   0.63028   0.52364   0.00000  Uiso   1.00
H856   H     0.23053   0.98774   0.46422   0.00000  Uiso   1.00
H857   H     0.83437   0.95343   0.71546   0.00000  Uiso   1.00
H858   H     0.99685   0.72282   0.51836   0.00000  Uiso   1.00
H859   H     0.20553   0.59328   0.75066   0.00000  Uiso   1.00
H860   H     0.07345   0.56269   0.70785   0.00000  Uiso   1.00
H861   H     0.35983   0.54641   0.82700   0.00000  Uiso   1.00
H862   H     0.19976   0.67416   0.73353   0.00000  Uiso   1.00
H863   H     0.40119   0.02335   0.63458   0.00000  Uiso   1.00
H864   H     0.00503   0.98905   0.88582   0.00000  Uiso   1.00
H865   H     0.16750   0.75843   0.68871   0.00000  Uiso   1.00
O866   O     0.22540   0.98466   0.51766   0.00000  Uiso   1.00
O867   O     0.01761   0.93965   0.84727   0.00000  Uiso   1.00
O868   O     0.07479   0.79308   0.58867   0.00000  Uiso   1.00
N869   N     0.28881   0.00033   0.51019   0.00000  Uiso   1.00
N870   N     0.85336   0.96824   0.74508   0.00000  Uiso   1.00
N871   N     0.03783   0.72010   0.56081   0.00000  Uiso   1.00
N872   N     0.38064   0.01949   0.60185   0.00000  Uiso   1.00
N873   N     0.94519   0.98741   0.83675   0.00000  Uiso   1.00
N874   N     0.12965   0.73926   0.65248   0.00000  Uiso   1.00
C875   C     0.16959   0.70611   0.37921   0.00000  Uiso   1.00
C876   C     0.08175   0.71569   0.34729   0.00000  Uiso   1.00
C877   C     0.08708   0.71444   0.37997   0.00000  Uiso   1.00
C878   C     0.99829   0.72426   0.34194   0.00000  Uiso   1.00
C879   C     0.87571   0.73753   0.30275   0.00000  Uiso   1.00
C880   C     0.18061   0.74594   0.36701   0.00000  Uiso   1.00
C881   C     0.26907   0.77012   0.41627   0.00000  Uiso   1.00
C882   C     0.26350   0.80540   0.39483   0.00000  Uiso   1.00
C883   C     0.29442   0.86561   0.38626   0.00000  Uiso   1.00
C884   C     0.63186   0.17018   0.33723   0.00000  Uiso   1.00
C885   C     0.67934   0.13066   0.36146   0.00000  Uiso   1.00
C886   C     0.63273   0.10216   0.31495   0.00000  Uiso   1.00
C887   C     0.58796   0.04475   0.26014   0.00000  Uiso   1.00
C888   C     0.00240   0.72578   0.25354   0.00000  Uiso   1.00
C889   C     0.99094   0.72638   0.27903   0.00000  Uiso   1.00
C890   C     0.90211   0.73620   0.24093   0.00000  Uiso   1.00
C891   C     0.90731   0.73496   0.27355   0.00000  Uiso   1.00
C892   C     0.08980   0.75663   0.29875   0.00000  Uiso   1.00
C893   C     0.08410   0.79188   0.27723   0.00000  Uiso   1.00
C894   C     0.17252   0.81610   0.32645   0.00000  Uiso   1.00
C895   C     0.04104   0.68087   0.26897   0.00000  Uiso   1.00
C896   C     0.49436   0.15242   0.22241   0.00000  Uiso   1.00
C897   C     0.54176   0.11286   0.24657   0.00000  Uiso   1.00
H898   H     0.74030   0.19780   0.43236   0.00000  Uiso   1.00
H899   H     0.15738   0.70617   0.43280   0.00000  Uiso   1.00
H900   H     0.83934   0.26184   0.46909   0.00000  Uiso   1.00
H901   H     0.74961   0.12241   0.41428   0.00000  Uiso   1.00
H902   H     0.02541   0.72019   0.40319   0.00000  Uiso   1.00
H903   H     0.40909   0.83755   0.47972   0.00000  Uiso   1.00
H904   H     0.71989   0.04353   0.36414   0.00000  Uiso   1.00
H905   H     0.93170   0.73410   0.20040   0.00000  Uiso   1.00
H906   H     0.83184   0.74447   0.18811   0.00000  Uiso   1.00
H907   H     0.01381   0.80014   0.22440   0.00000  Uiso   1.00
H908   H     0.92408   0.66070   0.16959   0.00000  Uiso   1.00
H909   H     0.76120   0.75127   0.20459   0.00000  Uiso   1.00
H910   H     0.14488   0.86864   0.28112   0.00000  Uiso   1.00
H911   H     0.45568   0.07461   0.16554   0.00000  Uiso   1.00
O912   O     0.83319   0.74191   0.30000   0.00000  Uiso   1.00
O913   O     0.33657   0.89588   0.40040   0.00000  Uiso   1.00
O914   O     0.58835   0.01013   0.24877   0.00000  Uiso   1.00
N915   N     0.97692   0.72607   0.35813   0.00000  Uiso   1.00
N916   N     0.33564   0.83580   0.42968   0.00000  Uiso   1.00
N917   N     0.65877   0.06092   0.32163   0.00000  Uiso   1.00
N918   N     0.83475   0.74280   0.25127   0.00000  Uiso   1.00
N919   N     0.19347   0.85253   0.32282   0.00000  Uiso   1.00
N920   N     0.51660   0.07765   0.21477   0.00000  Uiso   1.00
C921   C     0.53503   0.82761   0.33849   0.00000  Uiso   1.00
C922   C     0.42204   0.82800   0.26310   0.00000  Uiso   1.00
C923   C     0.36636   0.86396   0.22166   0.00000  Uiso   1.00
C924   C     0.26387   0.85761   0.15408   0.00000  Uiso   1.00
C925   C     0.09530   0.86443   0.04084   0.00000  Uiso   1.00
C926   C     0.58577   0.79485   0.34906   0.00000  Uiso   1.00
C927   C     0.66775   0.80293   0.37990   0.00000  Uiso   1.00
C928   C     0.70309   0.76867   0.38468   0.00000  Uiso   1.00
C929   C     0.78876   0.72401   0.40494   0.00000  Uiso   1.00
C930   C     0.54041   0.80843   0.37155   0.00000  Uiso   1.00
C931   C     0.58428   0.82793   0.42132   0.00000  Uiso   1.00
C932   C     0.58146   0.80510   0.44506   0.00000  Uiso   1.00
C933   C     0.09670   0.28153   0.50025   0.00000  Uiso   1.00
C934   C     0.45204   0.75239   0.29216   0.00000  Uiso   1.00
C935   C     0.37697   0.78715   0.23794   0.00000  Uiso   1.00
C936   C     0.77453   0.28074   0.17041   0.00000  Uiso   1.00
C937   C     0.21871   0.81668   0.12887   0.00000  Uiso   1.00
C938   C     0.54069   0.75399   0.32390   0.00000  Uiso   1.00
C939   C     0.57593   0.71971   0.32864   0.00000  Uiso   1.00
C940   C     0.65793   0.72774   0.35947   0.00000  Uiso   1.00
C941   C     0.49533   0.76758   0.34639   0.00000  Uiso   1.00
C942   C     0.99245   0.24471   0.37006   0.00000  Uiso   1.00
C943   C     0.03630   0.26417   0.41985   0.00000  Uiso   1.00
H944   H     0.57013   0.85942   0.35808   0.00000  Uiso   1.00
H945   H     0.40128   0.89557   0.24115   0.00000  Uiso   1.00
H946   H     0.70262   0.83455   0.39937   0.00000  Uiso   1.00
H947   H     0.61916   0.85954   0.44078   0.00000  Uiso   1.00
H948   H     0.19419   0.91764   0.10041   0.00000  Uiso   1.00
H949   H     0.82963   0.78896   0.43404   0.00000  Uiso   1.00
H950   H     0.65364   0.84167   0.52137   0.00000  Uiso   1.00
H951   H     0.91694   0.22058   0.27257   0.00000  Uiso   1.00
H952   H     0.73967   0.24912   0.15095   0.00000  Uiso   1.00
H953   H     0.54103   0.68810   0.30917   0.00000  Uiso   1.00
H954   H     0.95756   0.21309   0.35058   0.00000  Uiso   1.00
H955   H     0.56303   0.29877   0.02720   0.00000  Uiso   1.00
H956   H     0.69847   0.67009   0.36084   0.00000  Uiso   1.00
H957   H     0.02248   0.22280   0.44816   0.00000  Uiso   1.00
O958   O     0.01477   0.87948   0.98534   0.00000  Uiso   1.00
O959   O     0.84845   0.71066   0.42306   0.00000  Uiso   1.00
O960   O     0.11755   0.27981   0.53763   0.00000  Uiso   1.00
N961   N     0.18765   0.88575   0.09987   0.00000  Uiso   1.00
N962   N     0.78173   0.76544   0.41179   0.00000  Uiso   1.00
N963   N     0.61722   0.81472   0.49345   0.00000  Uiso   1.00
N964   N     0.61707   0.32179   0.06048   0.00000  Uiso   1.00
N965   N     0.71116   0.70148   0.37240   0.00000  Uiso   1.00
N966   N     0.04664   0.25076   0.45406   0.00000  Uiso   1.00
C967   C     0.36395   0.85295   0.12780   0.00000  Uiso   1.00
C968   C     0.46463   0.87623   0.19347   0.00000  Uiso   1.00
C969   C     0.47873   0.90984   0.22097   0.00000  Uiso   1.00
C970   C     0.57671   0.92681   0.28145   0.00000  Uiso   1.00
C971   C     0.72072   0.96542   0.37857   0.00000  Uiso   1.00
C972   C     0.34464   0.85700   0.08437   0.00000  Uiso   1.00
C973   C     0.25785   0.87444   0.02014   0.00000  Uiso   1.00
C974   C     0.25482   0.87521   0.98878   0.00000  Uiso   1.00
C975   C     0.21252   0.88394   0.91652   0.00000  Uiso   1.00
C976   C     0.38464   0.80532   0.14564   0.00000  Uiso   1.00
C977   C     0.33146   0.77931   0.13290   0.00000  Uiso   1.00
C978   C     0.36209   0.73657   0.15311   0.00000  Uiso   1.00
C979   C     0.88188   0.16506   0.17596   0.00000  Uiso   1.00
C980   C     0.51287   0.82331   0.18631   0.00000  Uiso   1.00
C981   C     0.54551   0.86013   0.22525   0.00000  Uiso   1.00
C982   C     0.64350   0.87705   0.28571   0.00000  Uiso   1.00
C983   C     0.65775   0.91068   0.31329   0.00000  Uiso   1.00
C984   C     0.42553   0.84090   0.11616   0.00000  Uiso   1.00
C985   C     0.42262   0.84165   0.08488   0.00000  Uiso   1.00
C986   C     0.33586   0.85909   0.02062   0.00000  Uiso   1.00
C987   C     0.46553   0.78922   0.17742   0.00000  Uiso   1.00
C988   C     0.49624   0.74652   0.19765   0.00000  Uiso   1.00
C989   C     0.44312   0.72044   0.18495   0.00000  Uiso   1.00
H990   H     0.30097   0.86549   0.10305   0.00000  Uiso   1.00
H991   H     0.41611   0.92229   0.19635   0.00000  Uiso   1.00
H992   H     0.19527   0.88689   0.99556   0.00000  Uiso   1.00
H993   H     0.26887   0.79178   0.10830   0.00000  Uiso   1.00
H994   H     0.57943   0.97819   0.31380   0.00000  Uiso   1.00
H995   H     0.11375   0.90352   0.89041   0.00000  Uiso   1.00
H996   H     0.76895   0.20295   0.12815   0.00000  Uiso   1.00
H997   H     0.57585   0.81078   0.21106   0.00000  Uiso   1.00
H998   H     0.70608   0.86459   0.31029   0.00000  Uiso   1.00
H999   H     0.48523   0.82919   0.10949   0.00000  Uiso   1.00
H1000  H     0.55883   0.73407   0.22224   0.00000  Uiso   1.00
H1001  H     0.81478   0.93135   0.40628   0.00000  Uiso   1.00
H1002  H     0.34909   0.85669   0.98288   0.00000  Uiso   1.00
H1003  H     0.50430   0.65612   0.22062   0.00000  Uiso   1.00
O1004  O     0.77781   0.99116   0.42336   0.00000  Uiso   1.00
O1005  O     0.16684   0.89320   0.86788   0.00000  Uiso   1.00
O1006  O     0.87047   0.13006   0.17979   0.00000  Uiso   1.00
N1007  N     0.61695   0.95977   0.32195   0.00000  Uiso   1.00
N1008  N     0.18157   0.88998   0.92611   0.00000  Uiso   1.00
N1009  N     0.82666   0.20246   0.14836   0.00000  Uiso   1.00
N1010  N     0.74359   0.93457   0.37171   0.00000  Uiso   1.00
N1011  N     0.30821   0.86477   0.97587   0.00000  Uiso   1.00
N1012  N     0.45330   0.67725   0.19812   0.00000  Uiso   1.00
C1013  C     0.59353   0.87631   0.65898   0.00000  Uiso   1.00
C1014  C     0.61873   0.87832   0.64231   0.00000  Uiso   1.00
C1015  C     0.55437   0.89355   0.58273   0.00000  Uiso   1.00
C1016  C     0.59162   0.89269   0.57723   0.00000  Uiso   1.00
C1017  C     0.61581   0.89815   0.54339   0.00000  Uiso   1.00
C1018  C     0.60804   0.82941   0.67642   0.00000  Uiso   1.00
C1019  C     0.53469   0.80351   0.64551   0.00000  Uiso   1.00
C1020  C     0.06295   0.26148   0.66873   0.00000  Uiso   1.00
C1021  C     0.07056   0.19101   0.68787   0.00000  Uiso   1.00
C1022  C     0.67758   0.90161   0.72414   0.00000  Uiso   1.00
C1023  C     0.66271   0.93642   0.73336   0.00000  Uiso   1.00
C1024  C     0.24951   0.45518   0.79677   0.00000  Uiso   1.00
C1025  C     0.36510   0.49682   0.89000   0.00000  Uiso   1.00
C1026  C     0.27414   0.34772   0.75518   0.00000  Uiso   1.00
C1027  C     0.21683   0.36279   0.69457   0.00000  Uiso   1.00
C1028  C     0.75419   0.86191   0.68916   0.00000  Uiso   1.00
C1029  C     0.68989   0.87714   0.62958   0.00000  Uiso   1.00
C1030  C     0.20613   0.31388   0.72867   0.00000  Uiso   1.00
C1031  C     0.23451   0.27188   0.75194   0.00000  Uiso   1.00
C1032  C     0.16122   0.24592   0.72108   0.00000  Uiso   1.00
C1033  C     0.27568   0.38609   0.77639   0.00000  Uiso   1.00
C1034  C     0.86253   0.90479   0.83980   0.00000  Uiso   1.00
C1035  C     0.34779   0.43962   0.84912   0.00000  Uiso   1.00
H1036  H     0.51716   0.88840   0.61830   0.00000  Uiso   1.00
H1037  H     0.47845   0.90556   0.54230   0.00000  Uiso   1.00
H1038  H     0.45879   0.81554   0.60508   0.00000  Uiso   1.00
H1039  H     0.58679   0.94843   0.69292   0.00000  Uiso   1.00
H1040  H     0.97879   0.41772   0.48107   0.00000  Uiso   1.00
H1041  H     0.43733   0.72791   0.61346   0.00000  Uiso   1.00
H1042  H     0.20724   0.50814   0.79868   0.00000  Uiso   1.00
H1043  H     0.35051   0.33563   0.79587   0.00000  Uiso   1.00
H1044  H     0.83010   0.84989   0.72961   0.00000  Uiso   1.00
H1045  H     0.31043   0.25987   0.79238   0.00000  Uiso   1.00
H1046  H     0.93843   0.89276   0.88022   0.00000  Uiso   1.00
H1047  H     0.76420   0.87254   0.63310   0.00000  Uiso   1.00
H1048  H     0.22274   0.18273   0.76549   0.00000  Uiso   1.00
H1049  H     0.49264   0.46295   0.95071   0.00000  Uiso   1.00
O1050  O     0.60204   0.90545   0.51029   0.00000  Uiso   1.00
O1051  O     0.04765   0.15643   0.68398   0.00000  Uiso   1.00
O1052  O     0.40176   0.52408   0.92698   0.00000  Uiso   1.00
N1053  N     0.54877   0.90514   0.52595   0.00000  Uiso   1.00
N1054  N     0.01000   0.22767   0.64972   0.00000  Uiso   1.00
N1055  N     0.26234   0.48965   0.82289   0.00000  Uiso   1.00
N1056  N     0.70235   0.88082   0.60775   0.00000  Uiso   1.00
N1057  N     0.16358   0.20336   0.73152   0.00000  Uiso   1.00
N1058  N     0.41591   0.46534   0.90469   0.00000  Uiso   1.00
C1059  C     0.98803   0.83938   0.41271   0.00000  Uiso   1.00
C1060  C     0.03641   0.79717   0.45128   0.00000  Uiso   1.00
C1061  C     0.99020   0.76647   0.44097   0.00000  Uiso   1.00
C1062  C     0.04721   0.73004   0.48146   0.00000  Uiso   1.00
C1063  C     0.10719   0.66535   0.53391   0.00000  Uiso   1.00
C1064  C     0.06048   0.87501   0.46553   0.00000  Uiso   1.00
C1065  C     0.03451   0.90977   0.46719   0.00000  Uiso   1.00
C1066  C     0.11180   0.93887   0.51967   0.00000  Uiso   1.00
C1067  C     0.20913   0.99505   0.59421   0.00000  Uiso   1.00
C1068  C     0.99292   0.83902   0.38318   0.00000  Uiso   1.00
C1069  C     0.91014   0.84353   0.31560   0.00000  Uiso   1.00
C1070  C     0.93055   0.84234   0.29875   0.00000  Uiso   1.00
C1071  C     0.92298   0.84264   0.24543   0.00000  Uiso   1.00
C1072  C     0.17147   0.82926   0.50295   0.00000  Uiso   1.00
C1073  C     0.13604   0.79167   0.50030   0.00000  Uiso   1.00
C1074  C     0.19314   0.75528   0.54081   0.00000  Uiso   1.00
C1075  C     0.14702   0.72453   0.53056   0.00000  Uiso   1.00
C1076  C     0.16011   0.86952   0.51454   0.00000  Uiso   1.00
C1077  C     0.23746   0.89858   0.56703   0.00000  Uiso   1.00
C1078  C     0.21161   0.93337   0.56877   0.00000  Uiso   1.00
C1079  C     0.09255   0.83353   0.43219   0.00000  Uiso   1.00
C1080  C     0.11309   0.83233   0.41544   0.00000  Uiso   1.00
C1081  C     0.03036   0.83684   0.34785   0.00000  Uiso   1.00
H1082  H     0.91047   0.84366   0.37455   0.00000  Uiso   1.00
H1083  H     0.91309   0.77074   0.40303   0.00000  Uiso   1.00
H1084  H     0.95740   0.91402   0.42924   0.00000  Uiso   1.00
H1085  H     0.83305   0.84779   0.27768   0.00000  Uiso   1.00
H1086  H     0.95996   0.68748   0.45624   0.00000  Uiso   1.00
H1087  H     0.05337   0.98960   0.51150   0.00000  Uiso   1.00
H1088  H     0.79116   0.84994   0.19189   0.00000  Uiso   1.00
H1089  H     0.24904   0.82498   0.54112   0.00000  Uiso   1.00
H1090  H     0.27024   0.75103   0.57874   0.00000  Uiso   1.00
H1091  H     0.31455   0.89431   0.60495   0.00000  Uiso   1.00
H1092  H     0.19020   0.82808   0.45339   0.00000  Uiso   1.00
H1093  H     0.24983   0.67149   0.59885   0.00000  Uiso   1.00
H1094  H     0.34325   0.97361   0.65411   0.00000  Uiso   1.00
H1095  H     0.08104   0.83394   0.33451   0.00000  Uiso   1.00
O1096  O     0.11275   0.63118   0.54930   0.00000  Uiso   1.00
O1097  O     0.23530   0.02755   0.62179   0.00000  Uiso   1.00
O1098  O     0.89128   0.84432   0.20248   0.00000  Uiso   1.00
N1099  N     0.02526   0.69386   0.48463   0.00000  Uiso   1.00
N1100  N     0.11260   0.97632   0.53630   0.00000  Uiso   1.00
N1101  N     0.86746   0.84576   0.23750   0.00000  Uiso   1.00
N1102  N     0.18124   0.68525   0.56137   0.00000  Uiso   1.00
N1103  N     0.26858   0.96771   0.61304   0.00000  Uiso   1.00
N1104  N     0.02344   0.83715   0.31424   0.00000  Uiso   1.00
