data_job_05659
_audit_creation_date              2018-12-19
_audit_creation_method            'Materials Studio'
_symmetry_space_group_name_H-M    'P1'
_symmetry_Int_Tables_number       1
_symmetry_cell_setting            triclinic
loop_
_symmetry_equiv_pos_as_xyz
  x,y,z
_cell_length_a                    17.2618
_cell_length_b                    40.0676
_cell_length_c                    17.6943
_cell_angle_alpha                 90.0000
_cell_angle_beta                  90.0000
_cell_angle_gamma                 90.0000
loop_
_atom_site_label
_atom_site_type_symbol
_atom_site_fract_x
_atom_site_fract_y
_atom_site_fract_z
_atom_site_U_iso_or_equiv
_atom_site_adp_type
_atom_site_occupancy
C1     C     0.70287   0.12648   0.76941   0.00000  Uiso   1.00
C2     C     0.74067   0.10828   0.83552   0.00000  Uiso   1.00
C3     C     0.72249   0.07633   0.86003   0.00000  Uiso   1.00
C4     C     0.76367   0.06413   0.92151   0.00000  Uiso   1.00
C5     C     0.81362   0.03298   0.01875   0.00000  Uiso   1.00
C6     C     0.67158   0.15913   0.80150   0.00000  Uiso   1.00
C7     C     0.59530   0.16993   0.79739   0.00000  Uiso   1.00
C8     C     0.57832   0.20054   0.83023   0.00000  Uiso   1.00
C9     C     0.52101   0.24833   0.87461   0.00000  Uiso   1.00
C10    C     0.76864   0.13613   0.71619   0.00000  Uiso   1.00
C11    C     0.77397   0.12759   0.64035   0.00000  Uiso   1.00
C12    C     0.83870   0.13885   0.60136   0.00000  Uiso   1.00
C13    C     0.93210   0.15093   0.51329   0.00000  Uiso   1.00
C14    C     0.80835   0.16165   0.83502   0.00000  Uiso   1.00
C15    C     0.79796   0.12739   0.87115   0.00000  Uiso   1.00
C16    C     0.83918   0.11524   0.93261   0.00000  Uiso   1.00
C17    C     0.82106   0.08327   0.95721   0.00000  Uiso   1.00
C18    C     0.72886   0.17823   0.83713   0.00000  Uiso   1.00
C19    C     0.71200   0.20883   0.86998   0.00000  Uiso   1.00
C20    C     0.63571   0.21967   0.86593   0.00000  Uiso   1.00
C21    C     0.82593   0.15523   0.75182   0.00000  Uiso   1.00
C22    C     0.89067   0.16650   0.71294   0.00000  Uiso   1.00
C23    C     0.89610   0.15798   0.63706   0.00000  Uiso   1.00
H24    H     0.65827   0.11161   0.74167   0.00000  Uiso   1.00
H25    H     0.67814   0.06156   0.83244   0.00000  Uiso   1.00
H26    H     0.55098   0.15514   0.76981   0.00000  Uiso   1.00
H27    H     0.72962   0.11281   0.61280   0.00000  Uiso   1.00
H28    H     0.72542   0.01449   0.94880   0.00000  Uiso   1.00
H29    H     0.45730   0.21182   0.81672   0.00000  Uiso   1.00
H30    H     0.83400   0.12257   0.48563   0.00000  Uiso   1.00
H31    H     0.85295   0.17652   0.86276   0.00000  Uiso   1.00
H32    H     0.88351   0.13002   0.96017   0.00000  Uiso   1.00
H33    H     0.75635   0.22361   0.89754   0.00000  Uiso   1.00
H34    H     0.93499   0.18128   0.74053   0.00000  Uiso   1.00
H35    H     0.89211   0.07006   0.05248   0.00000  Uiso   1.00
H36    H     0.62398   0.26739   0.92039   0.00000  Uiso   1.00
H37    H     0.00069   0.17814   0.58930   0.00000  Uiso   1.00
O38    O     0.82534   0.01052   0.06255   0.00000  Uiso   1.00
O39    O     0.47357   0.26942   0.88925   0.00000  Uiso   1.00
O40    O     0.96780   0.15231   0.45487   0.00000  Uiso   1.00
N41    N     0.76047   0.03395   0.95983   0.00000  Uiso   1.00
N42    N     0.50978   0.21844   0.83635   0.00000  Uiso   1.00
N43    N     0.86196   0.13500   0.52680   0.00000  Uiso   1.00
N44    N     0.85016   0.06385   0.01561   0.00000  Uiso   1.00
N45    N     0.59948   0.24834   0.89213   0.00000  Uiso   1.00
N46    N     0.95165   0.16490   0.58258   0.00000  Uiso   1.00
C47    C     0.29572   0.13440   0.72762   0.00000  Uiso   1.00
C48    C     0.25730   0.11661   0.66128   0.00000  Uiso   1.00
C49    C     0.27482   0.08471   0.63597   0.00000  Uiso   1.00
C50    C     0.23315   0.07292   0.57440   0.00000  Uiso   1.00
C51    C     0.18221   0.04236   0.47668   0.00000  Uiso   1.00
C52    C     0.32744   0.16708   0.69614   0.00000  Uiso   1.00
C53    C     0.40392   0.17761   0.70015   0.00000  Uiso   1.00
C54    C     0.42128   0.20831   0.66793   0.00000  Uiso   1.00
C55    C     0.47922   0.25612   0.62438   0.00000  Uiso   1.00
C56    C     0.23036   0.14402   0.78135   0.00000  Uiso   1.00
C57    C     0.22523   0.13517   0.85702   0.00000  Uiso   1.00
C58    C     0.16087   0.14646   0.89654   0.00000  Uiso   1.00
C59    C     0.06809   0.15845   0.98529   0.00000  Uiso   1.00
C60    C     0.19056   0.17019   0.66328   0.00000  Uiso   1.00
C61    C     0.20019   0.13605   0.62633   0.00000  Uiso   1.00
C62    C     0.15848   0.12431   0.56478   0.00000  Uiso   1.00
C63    C     0.17593   0.09239   0.53939   0.00000  Uiso   1.00
C64    C     0.27033   0.18652   0.66119   0.00000  Uiso   1.00
C65    C     0.28758   0.21721   0.62896   0.00000  Uiso   1.00
C66    C     0.36407   0.22779   0.63292   0.00000  Uiso   1.00
C67    C     0.17325   0.16346   0.74640   0.00000  Uiso   1.00
C68    C     0.10889   0.17477   0.78582   0.00000  Uiso   1.00
C69    C     0.10366   0.16593   0.86153   0.00000  Uiso   1.00
H70    H     0.34019   0.11926   0.75483   0.00000  Uiso   1.00
H71    H     0.31903   0.06967   0.66303   0.00000  Uiso   1.00
H72    H     0.44811   0.16257   0.72721   0.00000  Uiso   1.00
H73    H     0.26944   0.12013   0.88404   0.00000  Uiso   1.00
H74    H     0.27040   0.02328   0.54582   0.00000  Uiso   1.00
H75    H     0.54256   0.21915   0.68116   0.00000  Uiso   1.00
H76    H     0.16582   0.12965   0.01188   0.00000  Uiso   1.00
H77    H     0.14610   0.18532   0.63607   0.00000  Uiso   1.00
H78    H     0.11428   0.13936   0.53775   0.00000  Uiso   1.00
H79    H     0.24336   0.23225   0.60192   0.00000  Uiso   1.00
H80    H     0.06470   0.18981   0.75876   0.00000  Uiso   1.00
H81    H     0.10422   0.07983   0.44414   0.00000  Uiso   1.00
H82    H     0.37638   0.27571   0.57948   0.00000  Uiso   1.00
H83    H     0.99964   0.18621   0.91020   0.00000  Uiso   1.00
O84    O     0.16990   0.02013   0.43243   0.00000  Uiso   1.00
O85    O     0.52696   0.27711   0.61000   0.00000  Uiso   1.00
O86    O     0.03269   0.15969   0.04390   0.00000  Uiso   1.00
N87    N     0.23564   0.04289   0.53539   0.00000  Uiso   1.00
N88    N     0.49010   0.22602   0.66192   0.00000  Uiso   1.00
N89    N     0.13789   0.14236   0.97112   0.00000  Uiso   1.00
N90    N     0.14622   0.07333   0.48068   0.00000  Uiso   1.00
N91    N     0.40068   0.25645   0.60720   0.00000  Uiso   1.00
N92    N     0.04847   0.17279   0.91640   0.00000  Uiso   1.00
C93    C     0.70287   0.62648   0.26941   0.00000  Uiso   1.00
C94    C     0.74067   0.60828   0.33552   0.00000  Uiso   1.00
C95    C     0.72249   0.57633   0.36003   0.00000  Uiso   1.00
C96    C     0.76367   0.56413   0.42151   0.00000  Uiso   1.00
C97    C     0.81362   0.53298   0.51875   0.00000  Uiso   1.00
C98    C     0.67158   0.65913   0.30150   0.00000  Uiso   1.00
C99    C     0.59530   0.66993   0.29739   0.00000  Uiso   1.00
C100   C     0.57832   0.70054   0.33023   0.00000  Uiso   1.00
C101   C     0.52101   0.74833   0.37461   0.00000  Uiso   1.00
C102   C     0.76864   0.63613   0.21619   0.00000  Uiso   1.00
C103   C     0.77397   0.62759   0.14035   0.00000  Uiso   1.00
C104   C     0.83870   0.63885   0.10136   0.00000  Uiso   1.00
C105   C     0.93210   0.65093   0.01329   0.00000  Uiso   1.00
C106   C     0.80835   0.66165   0.33502   0.00000  Uiso   1.00
C107   C     0.79796   0.62739   0.37115   0.00000  Uiso   1.00
C108   C     0.83918   0.61524   0.43261   0.00000  Uiso   1.00
C109   C     0.82106   0.58327   0.45721   0.00000  Uiso   1.00
C110   C     0.72886   0.67823   0.33713   0.00000  Uiso   1.00
C111   C     0.71200   0.70883   0.36998   0.00000  Uiso   1.00
C112   C     0.63571   0.71967   0.36593   0.00000  Uiso   1.00
C113   C     0.82593   0.65523   0.25182   0.00000  Uiso   1.00
C114   C     0.89067   0.66650   0.21294   0.00000  Uiso   1.00
C115   C     0.89610   0.65798   0.13706   0.00000  Uiso   1.00
H116   H     0.65827   0.61161   0.24167   0.00000  Uiso   1.00
H117   H     0.67814   0.56156   0.33244   0.00000  Uiso   1.00
H118   H     0.55098   0.65514   0.26981   0.00000  Uiso   1.00
H119   H     0.72962   0.61281   0.11280   0.00000  Uiso   1.00
H120   H     0.72542   0.51449   0.44880   0.00000  Uiso   1.00
H121   H     0.45730   0.71182   0.31672   0.00000  Uiso   1.00
H122   H     0.83400   0.62257   0.98563   0.00000  Uiso   1.00
H123   H     0.85295   0.67652   0.36276   0.00000  Uiso   1.00
H124   H     0.88351   0.63002   0.46017   0.00000  Uiso   1.00
H125   H     0.75635   0.72361   0.39754   0.00000  Uiso   1.00
H126   H     0.93499   0.68128   0.24053   0.00000  Uiso   1.00
H127   H     0.89211   0.57006   0.55248   0.00000  Uiso   1.00
H128   H     0.62398   0.76739   0.42039   0.00000  Uiso   1.00
H129   H     0.00069   0.67814   0.08930   0.00000  Uiso   1.00
O130   O     0.82534   0.51052   0.56255   0.00000  Uiso   1.00
O131   O     0.47357   0.76942   0.38925   0.00000  Uiso   1.00
O132   O     0.96780   0.65231   0.95487   0.00000  Uiso   1.00
N133   N     0.76047   0.53395   0.45983   0.00000  Uiso   1.00
N134   N     0.50978   0.71844   0.33635   0.00000  Uiso   1.00
N135   N     0.86196   0.63500   0.02680   0.00000  Uiso   1.00
N136   N     0.85016   0.56385   0.51561   0.00000  Uiso   1.00
N137   N     0.59948   0.74834   0.39213   0.00000  Uiso   1.00
N138   N     0.95165   0.66490   0.08258   0.00000  Uiso   1.00
C139   C     0.29572   0.63440   0.22762   0.00000  Uiso   1.00
C140   C     0.25730   0.61661   0.16128   0.00000  Uiso   1.00
C141   C     0.27482   0.58471   0.13597   0.00000  Uiso   1.00
C142   C     0.23315   0.57292   0.07440   0.00000  Uiso   1.00
C143   C     0.18221   0.54236   0.97668   0.00000  Uiso   1.00
C144   C     0.32744   0.66708   0.19614   0.00000  Uiso   1.00
C145   C     0.40392   0.67761   0.20015   0.00000  Uiso   1.00
C146   C     0.42128   0.70831   0.16793   0.00000  Uiso   1.00
C147   C     0.47922   0.75612   0.12438   0.00000  Uiso   1.00
C148   C     0.23036   0.64402   0.28135   0.00000  Uiso   1.00
C149   C     0.22523   0.63517   0.35702   0.00000  Uiso   1.00
C150   C     0.16087   0.64646   0.39654   0.00000  Uiso   1.00
C151   C     0.06809   0.65845   0.48529   0.00000  Uiso   1.00
C152   C     0.19056   0.67019   0.16328   0.00000  Uiso   1.00
C153   C     0.20019   0.63605   0.12633   0.00000  Uiso   1.00
C154   C     0.15848   0.62431   0.06478   0.00000  Uiso   1.00
C155   C     0.17593   0.59239   0.03939   0.00000  Uiso   1.00
C156   C     0.27033   0.68652   0.16119   0.00000  Uiso   1.00
C157   C     0.28758   0.71721   0.12896   0.00000  Uiso   1.00
C158   C     0.36407   0.72779   0.13292   0.00000  Uiso   1.00
C159   C     0.17325   0.66346   0.24640   0.00000  Uiso   1.00
C160   C     0.10889   0.67477   0.28582   0.00000  Uiso   1.00
C161   C     0.10366   0.66593   0.36153   0.00000  Uiso   1.00
H162   H     0.34019   0.61926   0.25483   0.00000  Uiso   1.00
H163   H     0.31903   0.56967   0.16303   0.00000  Uiso   1.00
H164   H     0.44811   0.66257   0.22721   0.00000  Uiso   1.00
H165   H     0.26944   0.62013   0.38404   0.00000  Uiso   1.00
H166   H     0.27040   0.52328   0.04582   0.00000  Uiso   1.00
H167   H     0.54256   0.71915   0.18116   0.00000  Uiso   1.00
H168   H     0.16582   0.62965   0.51188   0.00000  Uiso   1.00
H169   H     0.14610   0.68532   0.13607   0.00000  Uiso   1.00
H170   H     0.11428   0.63936   0.03775   0.00000  Uiso   1.00
H171   H     0.24336   0.73225   0.10192   0.00000  Uiso   1.00
H172   H     0.06470   0.68981   0.25876   0.00000  Uiso   1.00
H173   H     0.10422   0.57983   0.94414   0.00000  Uiso   1.00
H174   H     0.37638   0.77571   0.07948   0.00000  Uiso   1.00
H175   H     0.99964   0.68621   0.41020   0.00000  Uiso   1.00
O176   O     0.16990   0.52013   0.93243   0.00000  Uiso   1.00
O177   O     0.52696   0.77711   0.11000   0.00000  Uiso   1.00
O178   O     0.03269   0.65969   0.54390   0.00000  Uiso   1.00
N179   N     0.23564   0.54289   0.03539   0.00000  Uiso   1.00
N180   N     0.49010   0.72602   0.16192   0.00000  Uiso   1.00
N181   N     0.13789   0.64236   0.47112   0.00000  Uiso   1.00
N182   N     0.14622   0.57333   0.98068   0.00000  Uiso   1.00
N183   N     0.40068   0.75645   0.10720   0.00000  Uiso   1.00
N184   N     0.04847   0.67279   0.41640   0.00000  Uiso   1.00
C185   C     0.29713   0.87352   0.76941   0.00000  Uiso   1.00
C186   C     0.25933   0.89172   0.83552   0.00000  Uiso   1.00
C187   C     0.27751   0.92367   0.86003   0.00000  Uiso   1.00
C188   C     0.23633   0.93587   0.92151   0.00000  Uiso   1.00
C189   C     0.18638   0.96702   0.01875   0.00000  Uiso   1.00
C190   C     0.32842   0.84087   0.80150   0.00000  Uiso   1.00
C191   C     0.40470   0.83007   0.79739   0.00000  Uiso   1.00
C192   C     0.42168   0.79946   0.83023   0.00000  Uiso   1.00
C193   C     0.47899   0.75167   0.87461   0.00000  Uiso   1.00
C194   C     0.23136   0.86387   0.71619   0.00000  Uiso   1.00
C195   C     0.22603   0.87241   0.64035   0.00000  Uiso   1.00
C196   C     0.16130   0.86115   0.60136   0.00000  Uiso   1.00
C197   C     0.06790   0.84907   0.51329   0.00000  Uiso   1.00
C198   C     0.19165   0.83835   0.83502   0.00000  Uiso   1.00
C199   C     0.20204   0.87261   0.87115   0.00000  Uiso   1.00
C200   C     0.16082   0.88476   0.93261   0.00000  Uiso   1.00
C201   C     0.17894   0.91673   0.95721   0.00000  Uiso   1.00
C202   C     0.27114   0.82177   0.83713   0.00000  Uiso   1.00
C203   C     0.28800   0.79117   0.86998   0.00000  Uiso   1.00
C204   C     0.36429   0.78033   0.86593   0.00000  Uiso   1.00
C205   C     0.17407   0.84477   0.75182   0.00000  Uiso   1.00
C206   C     0.10933   0.83350   0.71294   0.00000  Uiso   1.00
C207   C     0.10390   0.84202   0.63706   0.00000  Uiso   1.00
H208   H     0.34173   0.88839   0.74167   0.00000  Uiso   1.00
H209   H     0.32186   0.93844   0.83244   0.00000  Uiso   1.00
H210   H     0.44902   0.84486   0.76981   0.00000  Uiso   1.00
H211   H     0.27038   0.88719   0.61280   0.00000  Uiso   1.00
H212   H     0.27458   0.98551   0.94880   0.00000  Uiso   1.00
H213   H     0.54270   0.78818   0.81672   0.00000  Uiso   1.00
H214   H     0.16600   0.87743   0.48563   0.00000  Uiso   1.00
H215   H     0.14705   0.82348   0.86276   0.00000  Uiso   1.00
H216   H     0.11649   0.86998   0.96017   0.00000  Uiso   1.00
H217   H     0.24365   0.77639   0.89754   0.00000  Uiso   1.00
H218   H     0.06501   0.81872   0.74053   0.00000  Uiso   1.00
H219   H     0.10789   0.92994   0.05248   0.00000  Uiso   1.00
H220   H     0.37602   0.73261   0.92039   0.00000  Uiso   1.00
H221   H     0.99931   0.82186   0.58930   0.00000  Uiso   1.00
O222   O     0.17466   0.98948   0.06255   0.00000  Uiso   1.00
O223   O     0.52643   0.73058   0.88925   0.00000  Uiso   1.00
O224   O     0.03220   0.84769   0.45487   0.00000  Uiso   1.00
N225   N     0.23953   0.96605   0.95983   0.00000  Uiso   1.00
N226   N     0.49022   0.78156   0.83635   0.00000  Uiso   1.00
N227   N     0.13804   0.86500   0.52680   0.00000  Uiso   1.00
N228   N     0.14984   0.93615   0.01561   0.00000  Uiso   1.00
N229   N     0.40052   0.75166   0.89213   0.00000  Uiso   1.00
N230   N     0.04835   0.83510   0.58258   0.00000  Uiso   1.00
C231   C     0.70428   0.86560   0.72762   0.00000  Uiso   1.00
C232   C     0.74270   0.88339   0.66128   0.00000  Uiso   1.00
C233   C     0.72518   0.91529   0.63597   0.00000  Uiso   1.00
C234   C     0.76685   0.92708   0.57440   0.00000  Uiso   1.00
C235   C     0.81779   0.95764   0.47668   0.00000  Uiso   1.00
C236   C     0.67256   0.83292   0.69614   0.00000  Uiso   1.00
C237   C     0.59608   0.82239   0.70015   0.00000  Uiso   1.00
C238   C     0.57872   0.79169   0.66793   0.00000  Uiso   1.00
C239   C     0.52078   0.74388   0.62438   0.00000  Uiso   1.00
C240   C     0.76964   0.85598   0.78135   0.00000  Uiso   1.00
C241   C     0.77477   0.86483   0.85702   0.00000  Uiso   1.00
C242   C     0.83913   0.85354   0.89654   0.00000  Uiso   1.00
C243   C     0.93191   0.84155   0.98529   0.00000  Uiso   1.00
C244   C     0.80944   0.82981   0.66328   0.00000  Uiso   1.00
C245   C     0.79981   0.86395   0.62633   0.00000  Uiso   1.00
C246   C     0.84152   0.87569   0.56478   0.00000  Uiso   1.00
C247   C     0.82407   0.90761   0.53939   0.00000  Uiso   1.00
C248   C     0.72967   0.81348   0.66119   0.00000  Uiso   1.00
C249   C     0.71242   0.78279   0.62896   0.00000  Uiso   1.00
C250   C     0.63593   0.77221   0.63292   0.00000  Uiso   1.00
C251   C     0.82675   0.83654   0.74640   0.00000  Uiso   1.00
C252   C     0.89111   0.82523   0.78582   0.00000  Uiso   1.00
C253   C     0.89634   0.83407   0.86153   0.00000  Uiso   1.00
H254   H     0.65981   0.88074   0.75483   0.00000  Uiso   1.00
H255   H     0.68097   0.93033   0.66303   0.00000  Uiso   1.00
H256   H     0.55189   0.83743   0.72721   0.00000  Uiso   1.00
H257   H     0.73056   0.87987   0.88404   0.00000  Uiso   1.00
H258   H     0.72960   0.97672   0.54582   0.00000  Uiso   1.00
H259   H     0.45744   0.78085   0.68116   0.00000  Uiso   1.00
H260   H     0.83418   0.87035   0.01188   0.00000  Uiso   1.00
H261   H     0.85390   0.81468   0.63607   0.00000  Uiso   1.00
H262   H     0.88572   0.86064   0.53775   0.00000  Uiso   1.00
H263   H     0.75664   0.76775   0.60192   0.00000  Uiso   1.00
H264   H     0.93530   0.81019   0.75876   0.00000  Uiso   1.00
H265   H     0.89578   0.92017   0.44414   0.00000  Uiso   1.00
H266   H     0.62362   0.72429   0.57948   0.00000  Uiso   1.00
H267   H     0.00036   0.81379   0.91020   0.00000  Uiso   1.00
O268   O     0.83010   0.97987   0.43243   0.00000  Uiso   1.00
O269   O     0.47304   0.72289   0.61000   0.00000  Uiso   1.00
O270   O     0.96731   0.84031   0.04390   0.00000  Uiso   1.00
N271   N     0.76436   0.95711   0.53539   0.00000  Uiso   1.00
N272   N     0.50990   0.77398   0.66192   0.00000  Uiso   1.00
N273   N     0.86211   0.85764   0.97112   0.00000  Uiso   1.00
N274   N     0.85378   0.92667   0.48068   0.00000  Uiso   1.00
N275   N     0.59932   0.74355   0.60720   0.00000  Uiso   1.00
N276   N     0.95153   0.82721   0.91640   0.00000  Uiso   1.00
C277   C     0.29713   0.37352   0.26941   0.00000  Uiso   1.00
C278   C     0.25933   0.39172   0.33552   0.00000  Uiso   1.00
C279   C     0.27751   0.42367   0.36003   0.00000  Uiso   1.00
C280   C     0.23633   0.43587   0.42151   0.00000  Uiso   1.00
C281   C     0.18638   0.46702   0.51875   0.00000  Uiso   1.00
C282   C     0.32842   0.34087   0.30150   0.00000  Uiso   1.00
C283   C     0.40470   0.33007   0.29739   0.00000  Uiso   1.00
C284   C     0.42168   0.29946   0.33023   0.00000  Uiso   1.00
C285   C     0.47899   0.25167   0.37461   0.00000  Uiso   1.00
C286   C     0.23136   0.36387   0.21619   0.00000  Uiso   1.00
C287   C     0.22603   0.37241   0.14035   0.00000  Uiso   1.00
C288   C     0.16130   0.36115   0.10136   0.00000  Uiso   1.00
C289   C     0.06790   0.34907   0.01329   0.00000  Uiso   1.00
C290   C     0.19165   0.33835   0.33502   0.00000  Uiso   1.00
C291   C     0.20204   0.37261   0.37115   0.00000  Uiso   1.00
C292   C     0.16082   0.38476   0.43261   0.00000  Uiso   1.00
C293   C     0.17894   0.41673   0.45721   0.00000  Uiso   1.00
C294   C     0.27114   0.32177   0.33713   0.00000  Uiso   1.00
C295   C     0.28800   0.29117   0.36998   0.00000  Uiso   1.00
C296   C     0.36429   0.28033   0.36593   0.00000  Uiso   1.00
C297   C     0.17407   0.34477   0.25182   0.00000  Uiso   1.00
C298   C     0.10933   0.33350   0.21294   0.00000  Uiso   1.00
C299   C     0.10390   0.34202   0.13706   0.00000  Uiso   1.00
H300   H     0.34173   0.38839   0.24167   0.00000  Uiso   1.00
H301   H     0.32186   0.43844   0.33244   0.00000  Uiso   1.00
H302   H     0.44902   0.34486   0.26981   0.00000  Uiso   1.00
H303   H     0.27038   0.38719   0.11280   0.00000  Uiso   1.00
H304   H     0.27458   0.48551   0.44880   0.00000  Uiso   1.00
H305   H     0.54270   0.28818   0.31672   0.00000  Uiso   1.00
H306   H     0.16600   0.37743   0.98563   0.00000  Uiso   1.00
H307   H     0.14705   0.32348   0.36276   0.00000  Uiso   1.00
H308   H     0.11649   0.36998   0.46017   0.00000  Uiso   1.00
H309   H     0.24365   0.27639   0.39754   0.00000  Uiso   1.00
H310   H     0.06501   0.31872   0.24053   0.00000  Uiso   1.00
H311   H     0.10789   0.42994   0.55248   0.00000  Uiso   1.00
H312   H     0.37602   0.23261   0.42039   0.00000  Uiso   1.00
H313   H     0.99931   0.32186   0.08930   0.00000  Uiso   1.00
O314   O     0.17466   0.48948   0.56255   0.00000  Uiso   1.00
O315   O     0.52643   0.23058   0.38925   0.00000  Uiso   1.00
O316   O     0.03220   0.34769   0.95487   0.00000  Uiso   1.00
N317   N     0.23953   0.46605   0.45983   0.00000  Uiso   1.00
N318   N     0.49022   0.28156   0.33635   0.00000  Uiso   1.00
N319   N     0.13804   0.36500   0.02680   0.00000  Uiso   1.00
N320   N     0.14984   0.43615   0.51561   0.00000  Uiso   1.00
N321   N     0.40052   0.25166   0.39213   0.00000  Uiso   1.00
N322   N     0.04835   0.33510   0.08258   0.00000  Uiso   1.00
C323   C     0.70428   0.36560   0.22762   0.00000  Uiso   1.00
C324   C     0.74270   0.38339   0.16128   0.00000  Uiso   1.00
C325   C     0.72518   0.41529   0.13597   0.00000  Uiso   1.00
C326   C     0.76685   0.42708   0.07440   0.00000  Uiso   1.00
C327   C     0.81779   0.45764   0.97668   0.00000  Uiso   1.00
C328   C     0.67256   0.33292   0.19614   0.00000  Uiso   1.00
C329   C     0.59608   0.32239   0.20015   0.00000  Uiso   1.00
C330   C     0.57872   0.29169   0.16793   0.00000  Uiso   1.00
C331   C     0.52078   0.24388   0.12438   0.00000  Uiso   1.00
C332   C     0.76964   0.35598   0.28135   0.00000  Uiso   1.00
C333   C     0.77477   0.36483   0.35702   0.00000  Uiso   1.00
C334   C     0.83913   0.35354   0.39654   0.00000  Uiso   1.00
C335   C     0.93191   0.34155   0.48529   0.00000  Uiso   1.00
C336   C     0.80944   0.32981   0.16328   0.00000  Uiso   1.00
C337   C     0.79981   0.36395   0.12633   0.00000  Uiso   1.00
C338   C     0.84152   0.37569   0.06478   0.00000  Uiso   1.00
C339   C     0.82407   0.40761   0.03939   0.00000  Uiso   1.00
C340   C     0.72967   0.31348   0.16119   0.00000  Uiso   1.00
C341   C     0.71242   0.28279   0.12896   0.00000  Uiso   1.00
C342   C     0.63593   0.27221   0.13292   0.00000  Uiso   1.00
C343   C     0.82675   0.33654   0.24640   0.00000  Uiso   1.00
C344   C     0.89111   0.32523   0.28582   0.00000  Uiso   1.00
C345   C     0.89634   0.33407   0.36153   0.00000  Uiso   1.00
H346   H     0.65981   0.38074   0.25483   0.00000  Uiso   1.00
H347   H     0.68097   0.43033   0.16303   0.00000  Uiso   1.00
H348   H     0.55189   0.33743   0.22721   0.00000  Uiso   1.00
H349   H     0.73056   0.37987   0.38404   0.00000  Uiso   1.00
H350   H     0.72960   0.47672   0.04582   0.00000  Uiso   1.00
H351   H     0.45744   0.28085   0.18116   0.00000  Uiso   1.00
H352   H     0.83418   0.37035   0.51188   0.00000  Uiso   1.00
H353   H     0.85390   0.31468   0.13607   0.00000  Uiso   1.00
H354   H     0.88572   0.36064   0.03775   0.00000  Uiso   1.00
H355   H     0.75664   0.26775   0.10192   0.00000  Uiso   1.00
H356   H     0.93530   0.31019   0.25876   0.00000  Uiso   1.00
H357   H     0.89578   0.42017   0.94414   0.00000  Uiso   1.00
H358   H     0.62362   0.22429   0.07948   0.00000  Uiso   1.00
H359   H     0.00036   0.31379   0.41020   0.00000  Uiso   1.00
O360   O     0.83010   0.47987   0.93243   0.00000  Uiso   1.00
O361   O     0.47304   0.22289   0.11000   0.00000  Uiso   1.00
O362   O     0.96731   0.34031   0.54390   0.00000  Uiso   1.00
N363   N     0.76436   0.45711   0.03539   0.00000  Uiso   1.00
N364   N     0.50990   0.27398   0.16192   0.00000  Uiso   1.00
N365   N     0.86211   0.35764   0.47112   0.00000  Uiso   1.00
N366   N     0.85378   0.42667   0.98068   0.00000  Uiso   1.00
N367   N     0.59932   0.24355   0.10720   0.00000  Uiso   1.00
N368   N     0.95153   0.32721   0.41640   0.00000  Uiso   1.00
C369   C     0.20287   0.37352   0.76941   0.00000  Uiso   1.00
C370   C     0.24067   0.39172   0.83552   0.00000  Uiso   1.00
C371   C     0.22249   0.42367   0.86003   0.00000  Uiso   1.00
C372   C     0.26367   0.43587   0.92151   0.00000  Uiso   1.00
C373   C     0.31362   0.46702   0.01875   0.00000  Uiso   1.00
C374   C     0.17158   0.34087   0.80150   0.00000  Uiso   1.00
C375   C     0.09530   0.33007   0.79739   0.00000  Uiso   1.00
C376   C     0.07832   0.29946   0.83023   0.00000  Uiso   1.00
C377   C     0.02101   0.25167   0.87461   0.00000  Uiso   1.00
C378   C     0.26864   0.36387   0.71619   0.00000  Uiso   1.00
C379   C     0.27397   0.37241   0.64035   0.00000  Uiso   1.00
C380   C     0.33870   0.36115   0.60136   0.00000  Uiso   1.00
C381   C     0.43210   0.34907   0.51329   0.00000  Uiso   1.00
C382   C     0.30835   0.33835   0.83502   0.00000  Uiso   1.00
C383   C     0.29796   0.37261   0.87115   0.00000  Uiso   1.00
C384   C     0.33918   0.38476   0.93261   0.00000  Uiso   1.00
C385   C     0.32106   0.41673   0.95721   0.00000  Uiso   1.00
C386   C     0.22886   0.32177   0.83713   0.00000  Uiso   1.00
C387   C     0.21200   0.29117   0.86998   0.00000  Uiso   1.00
C388   C     0.13571   0.28033   0.86593   0.00000  Uiso   1.00
C389   C     0.32593   0.34477   0.75182   0.00000  Uiso   1.00
C390   C     0.39067   0.33350   0.71294   0.00000  Uiso   1.00
C391   C     0.39610   0.34202   0.63706   0.00000  Uiso   1.00
H392   H     0.15827   0.38839   0.74167   0.00000  Uiso   1.00
H393   H     0.17814   0.43844   0.83244   0.00000  Uiso   1.00
H394   H     0.05098   0.34486   0.76981   0.00000  Uiso   1.00
H395   H     0.22962   0.38719   0.61280   0.00000  Uiso   1.00
H396   H     0.22542   0.48551   0.94880   0.00000  Uiso   1.00
H397   H     0.95730   0.28818   0.81672   0.00000  Uiso   1.00
H398   H     0.33400   0.37743   0.48563   0.00000  Uiso   1.00
H399   H     0.35295   0.32348   0.86276   0.00000  Uiso   1.00
H400   H     0.38351   0.36998   0.96017   0.00000  Uiso   1.00
H401   H     0.25635   0.27639   0.89754   0.00000  Uiso   1.00
H402   H     0.43499   0.31872   0.74053   0.00000  Uiso   1.00
H403   H     0.39211   0.42994   0.05248   0.00000  Uiso   1.00
H404   H     0.12398   0.23261   0.92039   0.00000  Uiso   1.00
H405   H     0.50069   0.32186   0.58930   0.00000  Uiso   1.00
O406   O     0.32534   0.48948   0.06255   0.00000  Uiso   1.00
O407   O     0.97357   0.23058   0.88925   0.00000  Uiso   1.00
O408   O     0.46780   0.34769   0.45487   0.00000  Uiso   1.00
N409   N     0.26047   0.46605   0.95983   0.00000  Uiso   1.00
N410   N     0.00978   0.28156   0.83635   0.00000  Uiso   1.00
N411   N     0.36196   0.36500   0.52680   0.00000  Uiso   1.00
N412   N     0.35016   0.43615   0.01561   0.00000  Uiso   1.00
N413   N     0.09948   0.25166   0.89213   0.00000  Uiso   1.00
N414   N     0.45165   0.33510   0.58258   0.00000  Uiso   1.00
C415   C     0.79572   0.36560   0.72762   0.00000  Uiso   1.00
C416   C     0.75730   0.38339   0.66128   0.00000  Uiso   1.00
C417   C     0.77482   0.41529   0.63597   0.00000  Uiso   1.00
C418   C     0.73315   0.42708   0.57440   0.00000  Uiso   1.00
C419   C     0.68221   0.45764   0.47668   0.00000  Uiso   1.00
C420   C     0.82744   0.33292   0.69614   0.00000  Uiso   1.00
C421   C     0.90392   0.32239   0.70015   0.00000  Uiso   1.00
C422   C     0.92128   0.29169   0.66793   0.00000  Uiso   1.00
C423   C     0.97922   0.24388   0.62438   0.00000  Uiso   1.00
C424   C     0.73036   0.35598   0.78135   0.00000  Uiso   1.00
C425   C     0.72523   0.36483   0.85702   0.00000  Uiso   1.00
C426   C     0.66087   0.35354   0.89654   0.00000  Uiso   1.00
C427   C     0.56809   0.34155   0.98529   0.00000  Uiso   1.00
C428   C     0.69056   0.32981   0.66328   0.00000  Uiso   1.00
C429   C     0.70019   0.36395   0.62633   0.00000  Uiso   1.00
C430   C     0.65848   0.37569   0.56478   0.00000  Uiso   1.00
C431   C     0.67593   0.40761   0.53939   0.00000  Uiso   1.00
C432   C     0.77033   0.31348   0.66119   0.00000  Uiso   1.00
C433   C     0.78758   0.28279   0.62896   0.00000  Uiso   1.00
C434   C     0.86407   0.27221   0.63292   0.00000  Uiso   1.00
C435   C     0.67325   0.33654   0.74640   0.00000  Uiso   1.00
C436   C     0.60889   0.32523   0.78582   0.00000  Uiso   1.00
C437   C     0.60366   0.33407   0.86153   0.00000  Uiso   1.00
H438   H     0.84019   0.38074   0.75483   0.00000  Uiso   1.00
H439   H     0.81903   0.43033   0.66303   0.00000  Uiso   1.00
H440   H     0.94811   0.33743   0.72721   0.00000  Uiso   1.00
H441   H     0.76944   0.37987   0.88404   0.00000  Uiso   1.00
H442   H     0.77040   0.47672   0.54582   0.00000  Uiso   1.00
H443   H     0.04256   0.28085   0.68116   0.00000  Uiso   1.00
H444   H     0.66582   0.37035   0.01188   0.00000  Uiso   1.00
H445   H     0.64610   0.31468   0.63607   0.00000  Uiso   1.00
H446   H     0.61428   0.36064   0.53775   0.00000  Uiso   1.00
H447   H     0.74336   0.26775   0.60192   0.00000  Uiso   1.00
H448   H     0.56470   0.31019   0.75876   0.00000  Uiso   1.00
H449   H     0.60422   0.42017   0.44414   0.00000  Uiso   1.00
H450   H     0.87638   0.22429   0.57948   0.00000  Uiso   1.00
H451   H     0.49964   0.31379   0.91020   0.00000  Uiso   1.00
O452   O     0.66990   0.47987   0.43243   0.00000  Uiso   1.00
O453   O     0.02696   0.22289   0.61000   0.00000  Uiso   1.00
O454   O     0.53269   0.34031   0.04390   0.00000  Uiso   1.00
N455   N     0.73564   0.45711   0.53539   0.00000  Uiso   1.00
N456   N     0.99010   0.27398   0.66192   0.00000  Uiso   1.00
N457   N     0.63789   0.35764   0.97112   0.00000  Uiso   1.00
N458   N     0.64622   0.42667   0.48068   0.00000  Uiso   1.00
N459   N     0.90068   0.24355   0.60720   0.00000  Uiso   1.00
N460   N     0.54847   0.32721   0.91640   0.00000  Uiso   1.00
C461   C     0.20287   0.87352   0.26941   0.00000  Uiso   1.00
C462   C     0.24067   0.89172   0.33552   0.00000  Uiso   1.00
C463   C     0.22249   0.92367   0.36003   0.00000  Uiso   1.00
C464   C     0.26367   0.93587   0.42151   0.00000  Uiso   1.00
C465   C     0.31362   0.96702   0.51875   0.00000  Uiso   1.00
C466   C     0.17158   0.84087   0.30150   0.00000  Uiso   1.00
C467   C     0.09530   0.83007   0.29739   0.00000  Uiso   1.00
C468   C     0.07832   0.79946   0.33023   0.00000  Uiso   1.00
C469   C     0.02101   0.75167   0.37461   0.00000  Uiso   1.00
C470   C     0.26864   0.86387   0.21619   0.00000  Uiso   1.00
C471   C     0.27397   0.87241   0.14035   0.00000  Uiso   1.00
C472   C     0.33870   0.86115   0.10136   0.00000  Uiso   1.00
C473   C     0.43210   0.84907   0.01329   0.00000  Uiso   1.00
C474   C     0.30835   0.83835   0.33502   0.00000  Uiso   1.00
C475   C     0.29796   0.87261   0.37115   0.00000  Uiso   1.00
C476   C     0.33918   0.88476   0.43261   0.00000  Uiso   1.00
C477   C     0.32106   0.91673   0.45721   0.00000  Uiso   1.00
C478   C     0.22886   0.82177   0.33713   0.00000  Uiso   1.00
C479   C     0.21200   0.79117   0.36998   0.00000  Uiso   1.00
C480   C     0.13571   0.78033   0.36593   0.00000  Uiso   1.00
C481   C     0.32593   0.84477   0.25182   0.00000  Uiso   1.00
C482   C     0.39067   0.83350   0.21294   0.00000  Uiso   1.00
C483   C     0.39610   0.84202   0.13706   0.00000  Uiso   1.00
H484   H     0.15827   0.88839   0.24167   0.00000  Uiso   1.00
H485   H     0.17814   0.93844   0.33244   0.00000  Uiso   1.00
H486   H     0.05098   0.84486   0.26981   0.00000  Uiso   1.00
H487   H     0.22962   0.88719   0.11280   0.00000  Uiso   1.00
H488   H     0.22542   0.98551   0.44880   0.00000  Uiso   1.00
H489   H     0.95730   0.78818   0.31672   0.00000  Uiso   1.00
H490   H     0.33400   0.87743   0.98563   0.00000  Uiso   1.00
H491   H     0.35295   0.82348   0.36276   0.00000  Uiso   1.00
H492   H     0.38351   0.86998   0.46017   0.00000  Uiso   1.00
H493   H     0.25635   0.77639   0.39754   0.00000  Uiso   1.00
H494   H     0.43499   0.81872   0.24053   0.00000  Uiso   1.00
H495   H     0.39211   0.92994   0.55248   0.00000  Uiso   1.00
H496   H     0.12398   0.73261   0.42039   0.00000  Uiso   1.00
H497   H     0.50069   0.82186   0.08930   0.00000  Uiso   1.00
O498   O     0.32534   0.98948   0.56255   0.00000  Uiso   1.00
O499   O     0.97357   0.73058   0.38925   0.00000  Uiso   1.00
O500   O     0.46780   0.84769   0.95487   0.00000  Uiso   1.00
N501   N     0.26047   0.96605   0.45983   0.00000  Uiso   1.00
N502   N     0.00978   0.78156   0.33635   0.00000  Uiso   1.00
N503   N     0.36196   0.86500   0.02680   0.00000  Uiso   1.00
N504   N     0.35016   0.93615   0.51561   0.00000  Uiso   1.00
N505   N     0.09948   0.75166   0.39213   0.00000  Uiso   1.00
N506   N     0.45165   0.83510   0.08258   0.00000  Uiso   1.00
C507   C     0.79572   0.86560   0.22762   0.00000  Uiso   1.00
C508   C     0.75730   0.88339   0.16128   0.00000  Uiso   1.00
C509   C     0.77482   0.91529   0.13597   0.00000  Uiso   1.00
C510   C     0.73315   0.92708   0.07440   0.00000  Uiso   1.00
C511   C     0.68221   0.95764   0.97668   0.00000  Uiso   1.00
C512   C     0.82744   0.83292   0.19614   0.00000  Uiso   1.00
C513   C     0.90392   0.82239   0.20015   0.00000  Uiso   1.00
C514   C     0.92128   0.79169   0.16793   0.00000  Uiso   1.00
C515   C     0.97922   0.74388   0.12438   0.00000  Uiso   1.00
C516   C     0.73036   0.85598   0.28135   0.00000  Uiso   1.00
C517   C     0.72523   0.86483   0.35702   0.00000  Uiso   1.00
C518   C     0.66087   0.85354   0.39654   0.00000  Uiso   1.00
C519   C     0.56809   0.84155   0.48529   0.00000  Uiso   1.00
C520   C     0.69056   0.82981   0.16328   0.00000  Uiso   1.00
C521   C     0.70019   0.86395   0.12633   0.00000  Uiso   1.00
C522   C     0.65848   0.87569   0.06478   0.00000  Uiso   1.00
C523   C     0.67593   0.90761   0.03939   0.00000  Uiso   1.00
C524   C     0.77033   0.81348   0.16119   0.00000  Uiso   1.00
C525   C     0.78758   0.78279   0.12896   0.00000  Uiso   1.00
C526   C     0.86407   0.77221   0.13292   0.00000  Uiso   1.00
C527   C     0.67325   0.83654   0.24640   0.00000  Uiso   1.00
C528   C     0.60889   0.82523   0.28582   0.00000  Uiso   1.00
C529   C     0.60366   0.83407   0.36153   0.00000  Uiso   1.00
H530   H     0.84019   0.88074   0.25483   0.00000  Uiso   1.00
H531   H     0.81903   0.93033   0.16303   0.00000  Uiso   1.00
H532   H     0.94811   0.83743   0.22721   0.00000  Uiso   1.00
H533   H     0.76944   0.87987   0.38404   0.00000  Uiso   1.00
H534   H     0.77040   0.97672   0.04582   0.00000  Uiso   1.00
H535   H     0.04256   0.78085   0.18116   0.00000  Uiso   1.00
H536   H     0.66582   0.87035   0.51188   0.00000  Uiso   1.00
H537   H     0.64610   0.81468   0.13607   0.00000  Uiso   1.00
H538   H     0.61428   0.86064   0.03775   0.00000  Uiso   1.00
H539   H     0.74336   0.76775   0.10192   0.00000  Uiso   1.00
H540   H     0.56470   0.81019   0.25876   0.00000  Uiso   1.00
H541   H     0.60422   0.92017   0.94414   0.00000  Uiso   1.00
H542   H     0.87638   0.72429   0.07948   0.00000  Uiso   1.00
H543   H     0.49964   0.81379   0.41020   0.00000  Uiso   1.00
O544   O     0.66990   0.97987   0.93243   0.00000  Uiso   1.00
O545   O     0.02696   0.72289   0.11000   0.00000  Uiso   1.00
O546   O     0.53269   0.84031   0.54390   0.00000  Uiso   1.00
N547   N     0.73564   0.95711   0.03539   0.00000  Uiso   1.00
N548   N     0.99010   0.77398   0.16192   0.00000  Uiso   1.00
N549   N     0.63789   0.85764   0.47112   0.00000  Uiso   1.00
N550   N     0.64622   0.92667   0.98068   0.00000  Uiso   1.00
N551   N     0.90068   0.74355   0.10720   0.00000  Uiso   1.00
N552   N     0.54847   0.82721   0.41640   0.00000  Uiso   1.00
C553   C     0.79713   0.62648   0.76941   0.00000  Uiso   1.00
C554   C     0.75933   0.60828   0.83552   0.00000  Uiso   1.00
C555   C     0.77751   0.57633   0.86003   0.00000  Uiso   1.00
C556   C     0.73633   0.56413   0.92151   0.00000  Uiso   1.00
C557   C     0.68638   0.53298   0.01875   0.00000  Uiso   1.00
C558   C     0.82842   0.65913   0.80150   0.00000  Uiso   1.00
C559   C     0.90470   0.66993   0.79739   0.00000  Uiso   1.00
C560   C     0.92168   0.70054   0.83023   0.00000  Uiso   1.00
C561   C     0.97899   0.74833   0.87461   0.00000  Uiso   1.00
C562   C     0.73136   0.63613   0.71619   0.00000  Uiso   1.00
C563   C     0.72603   0.62759   0.64035   0.00000  Uiso   1.00
C564   C     0.66130   0.63885   0.60136   0.00000  Uiso   1.00
C565   C     0.56790   0.65093   0.51329   0.00000  Uiso   1.00
C566   C     0.69165   0.66165   0.83502   0.00000  Uiso   1.00
C567   C     0.70204   0.62739   0.87115   0.00000  Uiso   1.00
C568   C     0.66082   0.61524   0.93261   0.00000  Uiso   1.00
C569   C     0.67894   0.58327   0.95721   0.00000  Uiso   1.00
C570   C     0.77114   0.67823   0.83713   0.00000  Uiso   1.00
C571   C     0.78800   0.70883   0.86998   0.00000  Uiso   1.00
C572   C     0.86429   0.71967   0.86593   0.00000  Uiso   1.00
C573   C     0.67407   0.65523   0.75182   0.00000  Uiso   1.00
C574   C     0.60933   0.66650   0.71294   0.00000  Uiso   1.00
C575   C     0.60390   0.65798   0.63706   0.00000  Uiso   1.00
H576   H     0.84173   0.61161   0.74167   0.00000  Uiso   1.00
H577   H     0.82186   0.56156   0.83244   0.00000  Uiso   1.00
H578   H     0.94902   0.65514   0.76981   0.00000  Uiso   1.00
H579   H     0.77038   0.61281   0.61280   0.00000  Uiso   1.00
H580   H     0.77458   0.51449   0.94880   0.00000  Uiso   1.00
H581   H     0.04270   0.71182   0.81672   0.00000  Uiso   1.00
H582   H     0.66600   0.62257   0.48563   0.00000  Uiso   1.00
H583   H     0.64705   0.67652   0.86276   0.00000  Uiso   1.00
H584   H     0.61649   0.63002   0.96017   0.00000  Uiso   1.00
H585   H     0.74365   0.72361   0.89754   0.00000  Uiso   1.00
H586   H     0.56501   0.68128   0.74053   0.00000  Uiso   1.00
H587   H     0.60789   0.57006   0.05248   0.00000  Uiso   1.00
H588   H     0.87602   0.76739   0.92039   0.00000  Uiso   1.00
H589   H     0.49931   0.67814   0.58930   0.00000  Uiso   1.00
O590   O     0.67466   0.51052   0.06255   0.00000  Uiso   1.00
O591   O     0.02643   0.76942   0.88925   0.00000  Uiso   1.00
O592   O     0.53220   0.65231   0.45487   0.00000  Uiso   1.00
N593   N     0.73953   0.53395   0.95983   0.00000  Uiso   1.00
N594   N     0.99022   0.71844   0.83635   0.00000  Uiso   1.00
N595   N     0.63804   0.63500   0.52680   0.00000  Uiso   1.00
N596   N     0.64984   0.56385   0.01561   0.00000  Uiso   1.00
N597   N     0.90052   0.74834   0.89213   0.00000  Uiso   1.00
N598   N     0.54835   0.66490   0.58258   0.00000  Uiso   1.00
C599   C     0.20428   0.63440   0.72762   0.00000  Uiso   1.00
C600   C     0.24270   0.61661   0.66128   0.00000  Uiso   1.00
C601   C     0.22518   0.58471   0.63597   0.00000  Uiso   1.00
C602   C     0.26685   0.57292   0.57440   0.00000  Uiso   1.00
C603   C     0.31779   0.54236   0.47668   0.00000  Uiso   1.00
C604   C     0.17256   0.66708   0.69614   0.00000  Uiso   1.00
C605   C     0.09608   0.67761   0.70015   0.00000  Uiso   1.00
C606   C     0.07872   0.70831   0.66793   0.00000  Uiso   1.00
C607   C     0.02078   0.75612   0.62438   0.00000  Uiso   1.00
C608   C     0.26964   0.64402   0.78135   0.00000  Uiso   1.00
C609   C     0.27477   0.63517   0.85702   0.00000  Uiso   1.00
C610   C     0.33913   0.64646   0.89654   0.00000  Uiso   1.00
C611   C     0.43191   0.65845   0.98529   0.00000  Uiso   1.00
C612   C     0.30944   0.67019   0.66328   0.00000  Uiso   1.00
C613   C     0.29981   0.63605   0.62633   0.00000  Uiso   1.00
C614   C     0.34152   0.62431   0.56478   0.00000  Uiso   1.00
C615   C     0.32407   0.59239   0.53939   0.00000  Uiso   1.00
C616   C     0.22967   0.68652   0.66119   0.00000  Uiso   1.00
C617   C     0.21242   0.71721   0.62896   0.00000  Uiso   1.00
C618   C     0.13593   0.72779   0.63292   0.00000  Uiso   1.00
C619   C     0.32675   0.66346   0.74640   0.00000  Uiso   1.00
C620   C     0.39111   0.67477   0.78582   0.00000  Uiso   1.00
C621   C     0.39634   0.66593   0.86153   0.00000  Uiso   1.00
H622   H     0.15981   0.61926   0.75483   0.00000  Uiso   1.00
H623   H     0.18097   0.56967   0.66303   0.00000  Uiso   1.00
H624   H     0.05189   0.66257   0.72721   0.00000  Uiso   1.00
H625   H     0.23056   0.62013   0.88404   0.00000  Uiso   1.00
H626   H     0.22960   0.52328   0.54582   0.00000  Uiso   1.00
H627   H     0.95744   0.71915   0.68116   0.00000  Uiso   1.00
H628   H     0.33418   0.62965   0.01188   0.00000  Uiso   1.00
H629   H     0.35390   0.68532   0.63607   0.00000  Uiso   1.00
H630   H     0.38572   0.63936   0.53775   0.00000  Uiso   1.00
H631   H     0.25664   0.73225   0.60192   0.00000  Uiso   1.00
H632   H     0.43530   0.68981   0.75876   0.00000  Uiso   1.00
H633   H     0.39578   0.57983   0.44414   0.00000  Uiso   1.00
H634   H     0.12362   0.77571   0.57948   0.00000  Uiso   1.00
H635   H     0.50036   0.68621   0.91020   0.00000  Uiso   1.00
O636   O     0.33010   0.52013   0.43243   0.00000  Uiso   1.00
O637   O     0.97304   0.77711   0.61000   0.00000  Uiso   1.00
O638   O     0.46731   0.65969   0.04390   0.00000  Uiso   1.00
N639   N     0.26436   0.54289   0.53539   0.00000  Uiso   1.00
N640   N     0.00990   0.72602   0.66192   0.00000  Uiso   1.00
N641   N     0.36211   0.64236   0.97112   0.00000  Uiso   1.00
N642   N     0.35378   0.57333   0.48068   0.00000  Uiso   1.00
N643   N     0.09932   0.75645   0.60720   0.00000  Uiso   1.00
N644   N     0.45153   0.67279   0.91640   0.00000  Uiso   1.00
C645   C     0.79713   0.12648   0.26941   0.00000  Uiso   1.00
C646   C     0.75933   0.10828   0.33552   0.00000  Uiso   1.00
C647   C     0.77751   0.07633   0.36003   0.00000  Uiso   1.00
C648   C     0.73633   0.06413   0.42151   0.00000  Uiso   1.00
C649   C     0.68638   0.03298   0.51875   0.00000  Uiso   1.00
C650   C     0.82842   0.15913   0.30150   0.00000  Uiso   1.00
C651   C     0.90470   0.16993   0.29739   0.00000  Uiso   1.00
C652   C     0.92168   0.20054   0.33023   0.00000  Uiso   1.00
C653   C     0.97899   0.24833   0.37461   0.00000  Uiso   1.00
C654   C     0.73136   0.13613   0.21619   0.00000  Uiso   1.00
C655   C     0.72603   0.12759   0.14035   0.00000  Uiso   1.00
C656   C     0.66130   0.13885   0.10136   0.00000  Uiso   1.00
C657   C     0.56790   0.15093   0.01329   0.00000  Uiso   1.00
C658   C     0.69165   0.16165   0.33502   0.00000  Uiso   1.00
C659   C     0.70204   0.12739   0.37115   0.00000  Uiso   1.00
C660   C     0.66082   0.11524   0.43261   0.00000  Uiso   1.00
C661   C     0.67894   0.08327   0.45721   0.00000  Uiso   1.00
C662   C     0.77114   0.17823   0.33713   0.00000  Uiso   1.00
C663   C     0.78800   0.20883   0.36998   0.00000  Uiso   1.00
C664   C     0.86429   0.21967   0.36593   0.00000  Uiso   1.00
C665   C     0.67407   0.15523   0.25182   0.00000  Uiso   1.00
C666   C     0.60933   0.16650   0.21294   0.00000  Uiso   1.00
C667   C     0.60390   0.15798   0.13706   0.00000  Uiso   1.00
H668   H     0.84173   0.11161   0.24167   0.00000  Uiso   1.00
H669   H     0.82186   0.06156   0.33244   0.00000  Uiso   1.00
H670   H     0.94902   0.15514   0.26981   0.00000  Uiso   1.00
H671   H     0.77038   0.11281   0.11280   0.00000  Uiso   1.00
H672   H     0.77458   0.01449   0.44880   0.00000  Uiso   1.00
H673   H     0.04270   0.21182   0.31672   0.00000  Uiso   1.00
H674   H     0.66600   0.12257   0.98563   0.00000  Uiso   1.00
H675   H     0.64705   0.17652   0.36276   0.00000  Uiso   1.00
H676   H     0.61649   0.13002   0.46017   0.00000  Uiso   1.00
H677   H     0.74365   0.22361   0.39754   0.00000  Uiso   1.00
H678   H     0.56501   0.18128   0.24053   0.00000  Uiso   1.00
H679   H     0.60789   0.07006   0.55248   0.00000  Uiso   1.00
H680   H     0.87602   0.26739   0.42039   0.00000  Uiso   1.00
H681   H     0.49931   0.17814   0.08930   0.00000  Uiso   1.00
O682   O     0.67466   0.01052   0.56255   0.00000  Uiso   1.00
O683   O     0.02643   0.26942   0.38925   0.00000  Uiso   1.00
O684   O     0.53220   0.15231   0.95487   0.00000  Uiso   1.00
N685   N     0.73953   0.03395   0.45983   0.00000  Uiso   1.00
N686   N     0.99022   0.21844   0.33635   0.00000  Uiso   1.00
N687   N     0.63804   0.13500   0.02680   0.00000  Uiso   1.00
N688   N     0.64984   0.06385   0.51561   0.00000  Uiso   1.00
N689   N     0.90052   0.24834   0.39213   0.00000  Uiso   1.00
N690   N     0.54835   0.16490   0.08258   0.00000  Uiso   1.00
C691   C     0.20428   0.13440   0.22762   0.00000  Uiso   1.00
C692   C     0.24270   0.11661   0.16128   0.00000  Uiso   1.00
C693   C     0.22518   0.08471   0.13597   0.00000  Uiso   1.00
C694   C     0.26685   0.07292   0.07440   0.00000  Uiso   1.00
C695   C     0.31779   0.04236   0.97668   0.00000  Uiso   1.00
C696   C     0.17256   0.16708   0.19614   0.00000  Uiso   1.00
C697   C     0.09608   0.17761   0.20015   0.00000  Uiso   1.00
C698   C     0.07872   0.20831   0.16793   0.00000  Uiso   1.00
C699   C     0.02078   0.25612   0.12438   0.00000  Uiso   1.00
C700   C     0.26964   0.14402   0.28135   0.00000  Uiso   1.00
C701   C     0.27477   0.13517   0.35702   0.00000  Uiso   1.00
C702   C     0.33913   0.14646   0.39654   0.00000  Uiso   1.00
C703   C     0.43191   0.15845   0.48529   0.00000  Uiso   1.00
C704   C     0.30944   0.17019   0.16328   0.00000  Uiso   1.00
C705   C     0.29981   0.13605   0.12633   0.00000  Uiso   1.00
C706   C     0.34152   0.12431   0.06478   0.00000  Uiso   1.00
C707   C     0.32407   0.09239   0.03939   0.00000  Uiso   1.00
C708   C     0.22967   0.18652   0.16119   0.00000  Uiso   1.00
C709   C     0.21242   0.21721   0.12896   0.00000  Uiso   1.00
C710   C     0.13593   0.22779   0.13292   0.00000  Uiso   1.00
C711   C     0.32675   0.16346   0.24640   0.00000  Uiso   1.00
C712   C     0.39111   0.17477   0.28582   0.00000  Uiso   1.00
C713   C     0.39634   0.16593   0.36153   0.00000  Uiso   1.00
H714   H     0.15981   0.11926   0.25483   0.00000  Uiso   1.00
H715   H     0.18097   0.06967   0.16303   0.00000  Uiso   1.00
H716   H     0.05189   0.16257   0.22721   0.00000  Uiso   1.00
H717   H     0.23056   0.12013   0.38404   0.00000  Uiso   1.00
H718   H     0.22960   0.02328   0.04582   0.00000  Uiso   1.00
H719   H     0.95744   0.21915   0.18116   0.00000  Uiso   1.00
H720   H     0.33418   0.12965   0.51188   0.00000  Uiso   1.00
H721   H     0.35390   0.18532   0.13607   0.00000  Uiso   1.00
H722   H     0.38572   0.13936   0.03775   0.00000  Uiso   1.00
H723   H     0.25664   0.23225   0.10192   0.00000  Uiso   1.00
H724   H     0.43530   0.18981   0.25876   0.00000  Uiso   1.00
H725   H     0.39578   0.07983   0.94414   0.00000  Uiso   1.00
H726   H     0.12362   0.27571   0.07948   0.00000  Uiso   1.00
H727   H     0.50036   0.18621   0.41020   0.00000  Uiso   1.00
O728   O     0.33010   0.02013   0.93243   0.00000  Uiso   1.00
O729   O     0.97304   0.27711   0.11000   0.00000  Uiso   1.00
O730   O     0.46731   0.15969   0.54390   0.00000  Uiso   1.00
N731   N     0.26436   0.04289   0.03539   0.00000  Uiso   1.00
N732   N     0.00990   0.22602   0.16192   0.00000  Uiso   1.00
N733   N     0.36211   0.14236   0.47112   0.00000  Uiso   1.00
N734   N     0.35378   0.07333   0.98068   0.00000  Uiso   1.00
N735   N     0.09932   0.25645   0.10720   0.00000  Uiso   1.00
N736   N     0.45153   0.17279   0.41640   0.00000  Uiso   1.00
