data_job_05579
_audit_creation_date              2018-12-19
_audit_creation_method            'Materials Studio'
_symmetry_space_group_name_H-M    'P1'
_symmetry_Int_Tables_number       1
_symmetry_cell_setting            triclinic
loop_
_symmetry_equiv_pos_as_xyz
  x,y,z
_cell_length_a                    20.8747
_cell_length_b                    20.8747
_cell_length_c                    30.0557
_cell_angle_alpha                 90.0000
_cell_angle_beta                  90.0000
_cell_angle_gamma                 90.0000
loop_
_atom_site_label
_atom_site_type_symbol
_atom_site_fract_x
_atom_site_fract_y
_atom_site_fract_z
_atom_site_U_iso_or_equiv
_atom_site_adp_type
_atom_site_occupancy
C1     C     0.15647   0.22954   0.42583   0.00000  Uiso   1.00
C2     C     0.22950   0.22804   0.42616   0.00000  Uiso   1.00
C3     C     0.26724   0.17349   0.42308   0.00000  Uiso   1.00
C4     C     0.33316   0.18221   0.42400   0.00000  Uiso   1.00
C5     C     0.44244   0.17058   0.42394   0.00000  Uiso   1.00
C6     C     0.13659   0.26378   0.46847   0.00000  Uiso   1.00
C7     C     0.09621   0.23928   0.50097   0.00000  Uiso   1.00
C8     C     0.08391   0.27810   0.53750   0.00000  Uiso   1.00
C9     C     0.04891   0.32197   0.60312   0.00000  Uiso   1.00
C10    C     0.13754   0.27389   0.38772   0.00000  Uiso   1.00
C11    C     0.09794   0.25791   0.35233   0.00000  Uiso   1.00
C12    C     0.08644   0.30525   0.32088   0.00000  Uiso   1.00
C13    C     0.05291   0.36483   0.26112   0.00000  Uiso   1.00
C14    C     0.20642   0.34204   0.43291   0.00000  Uiso   1.00
C15    C     0.25663   0.28914   0.43001   0.00000  Uiso   1.00
C16    C     0.32252   0.29795   0.43092   0.00000  Uiso   1.00
C17    C     0.36035   0.24343   0.42785   0.00000  Uiso   1.00
C18    C     0.16372   0.32488   0.47232   0.00000  Uiso   1.00
C19    C     0.15148   0.36374   0.50881   0.00000  Uiso   1.00
C20    C     0.11110   0.33931   0.54135   0.00000  Uiso   1.00
C21    C     0.16468   0.33500   0.39157   0.00000  Uiso   1.00
C22    C     0.15322   0.38237   0.36017   0.00000  Uiso   1.00
C23    C     0.11362   0.36646   0.32473   0.00000  Uiso   1.00
H24    H     0.13534   0.18197   0.42284   0.00000  Uiso   1.00
H25    H     0.24622   0.12621   0.42011   0.00000  Uiso   1.00
H26    H     0.07521   0.19199   0.49798   0.00000  Uiso   1.00
H27    H     0.07695   0.21062   0.34936   0.00000  Uiso   1.00
H28    H     0.38113   0.09133   0.41880   0.00000  Uiso   1.00
H29    H     0.02053   0.23005   0.58298   0.00000  Uiso   1.00
H30    H     0.02419   0.26933   0.26960   0.00000  Uiso   1.00
H31    H     0.22755   0.38961   0.43591   0.00000  Uiso   1.00
H32    H     0.34350   0.34524   0.43390   0.00000  Uiso   1.00
H33    H     0.17249   0.41103   0.51177   0.00000  Uiso   1.00
H34    H     0.17423   0.42965   0.36315   0.00000  Uiso   1.00
H35    H     0.46008   0.26911   0.43000   0.00000  Uiso   1.00
H36    H     0.09947   0.40783   0.59418   0.00000  Uiso   1.00
H37    H     0.10315   0.44711   0.28079   0.00000  Uiso   1.00
O38    O     0.49522   0.14729   0.42286   0.00000  Uiso   1.00
O39    O     0.02211   0.32929   0.63825   0.00000  Uiso   1.00
O40    O     0.02693   0.38081   0.22710   0.00000  Uiso   1.00
N41    N     0.38380   0.13926   0.42170   0.00000  Uiso   1.00
N42    N     0.04666   0.26895   0.57521   0.00000  Uiso   1.00
N43    N     0.05008   0.30568   0.28223   0.00000  Uiso   1.00
N44    N     0.42628   0.23492   0.42773   0.00000  Uiso   1.00
N45    N     0.08915   0.36461   0.58123   0.00000  Uiso   1.00
N46    N     0.09256   0.40134   0.28825   0.00000  Uiso   1.00
C47    C     0.65647   0.72954   0.92583   0.00000  Uiso   1.00
C48    C     0.72950   0.72804   0.92616   0.00000  Uiso   1.00
C49    C     0.76724   0.67349   0.92308   0.00000  Uiso   1.00
C50    C     0.83316   0.68221   0.92400   0.00000  Uiso   1.00
C51    C     0.94244   0.67058   0.92394   0.00000  Uiso   1.00
C52    C     0.63659   0.76378   0.96847   0.00000  Uiso   1.00
C53    C     0.59621   0.73928   0.00097   0.00000  Uiso   1.00
C54    C     0.58391   0.77810   0.03750   0.00000  Uiso   1.00
C55    C     0.54891   0.82197   0.10312   0.00000  Uiso   1.00
C56    C     0.63754   0.77389   0.88772   0.00000  Uiso   1.00
C57    C     0.59794   0.75791   0.85233   0.00000  Uiso   1.00
C58    C     0.58644   0.80525   0.82088   0.00000  Uiso   1.00
C59    C     0.55291   0.86483   0.76112   0.00000  Uiso   1.00
C60    C     0.70642   0.84204   0.93291   0.00000  Uiso   1.00
C61    C     0.75663   0.78914   0.93001   0.00000  Uiso   1.00
C62    C     0.82252   0.79795   0.93092   0.00000  Uiso   1.00
C63    C     0.86035   0.74343   0.92785   0.00000  Uiso   1.00
C64    C     0.66372   0.82488   0.97232   0.00000  Uiso   1.00
C65    C     0.65148   0.86374   0.00881   0.00000  Uiso   1.00
C66    C     0.61110   0.83931   0.04135   0.00000  Uiso   1.00
C67    C     0.66468   0.83500   0.89157   0.00000  Uiso   1.00
C68    C     0.65322   0.88237   0.86017   0.00000  Uiso   1.00
C69    C     0.61362   0.86646   0.82473   0.00000  Uiso   1.00
H70    H     0.63534   0.68197   0.92284   0.00000  Uiso   1.00
H71    H     0.74622   0.62621   0.92011   0.00000  Uiso   1.00
H72    H     0.57521   0.69199   0.99798   0.00000  Uiso   1.00
H73    H     0.57695   0.71062   0.84936   0.00000  Uiso   1.00
H74    H     0.88113   0.59133   0.91880   0.00000  Uiso   1.00
H75    H     0.52053   0.73005   0.08298   0.00000  Uiso   1.00
H76    H     0.52419   0.76933   0.76960   0.00000  Uiso   1.00
H77    H     0.72755   0.88961   0.93591   0.00000  Uiso   1.00
H78    H     0.84350   0.84524   0.93390   0.00000  Uiso   1.00
H79    H     0.67249   0.91103   0.01177   0.00000  Uiso   1.00
H80    H     0.67423   0.92965   0.86315   0.00000  Uiso   1.00
H81    H     0.96008   0.76911   0.93000   0.00000  Uiso   1.00
H82    H     0.59947   0.90783   0.09418   0.00000  Uiso   1.00
H83    H     0.60315   0.94711   0.78079   0.00000  Uiso   1.00
O84    O     0.99522   0.64729   0.92286   0.00000  Uiso   1.00
O85    O     0.52211   0.82929   0.13825   0.00000  Uiso   1.00
O86    O     0.52693   0.88081   0.72710   0.00000  Uiso   1.00
N87    N     0.88380   0.63926   0.92170   0.00000  Uiso   1.00
N88    N     0.54666   0.76895   0.07521   0.00000  Uiso   1.00
N89    N     0.55008   0.80568   0.78223   0.00000  Uiso   1.00
N90    N     0.92628   0.73492   0.92773   0.00000  Uiso   1.00
N91    N     0.58915   0.86461   0.08123   0.00000  Uiso   1.00
N92    N     0.59256   0.90134   0.78825   0.00000  Uiso   1.00
C93    C     0.34353   0.27046   0.92583   0.00000  Uiso   1.00
C94    C     0.27050   0.27196   0.92616   0.00000  Uiso   1.00
C95    C     0.23276   0.32651   0.92308   0.00000  Uiso   1.00
C96    C     0.16684   0.31779   0.92400   0.00000  Uiso   1.00
C97    C     0.05756   0.32942   0.92394   0.00000  Uiso   1.00
C98    C     0.36341   0.23622   0.96847   0.00000  Uiso   1.00
C99    C     0.40379   0.26072   0.00097   0.00000  Uiso   1.00
C100   C     0.41609   0.22190   0.03750   0.00000  Uiso   1.00
C101   C     0.45109   0.17803   0.10312   0.00000  Uiso   1.00
C102   C     0.36246   0.22611   0.88772   0.00000  Uiso   1.00
C103   C     0.40206   0.24209   0.85233   0.00000  Uiso   1.00
C104   C     0.41356   0.19475   0.82088   0.00000  Uiso   1.00
C105   C     0.44709   0.13517   0.76112   0.00000  Uiso   1.00
C106   C     0.29358   0.15796   0.93291   0.00000  Uiso   1.00
C107   C     0.24337   0.21086   0.93001   0.00000  Uiso   1.00
C108   C     0.17748   0.20205   0.93092   0.00000  Uiso   1.00
C109   C     0.13965   0.25657   0.92785   0.00000  Uiso   1.00
C110   C     0.33628   0.17512   0.97232   0.00000  Uiso   1.00
C111   C     0.34852   0.13626   0.00881   0.00000  Uiso   1.00
C112   C     0.38890   0.16069   0.04135   0.00000  Uiso   1.00
C113   C     0.33532   0.16500   0.89157   0.00000  Uiso   1.00
C114   C     0.34678   0.11763   0.86017   0.00000  Uiso   1.00
C115   C     0.38638   0.13354   0.82473   0.00000  Uiso   1.00
H116   H     0.36466   0.31803   0.92284   0.00000  Uiso   1.00
H117   H     0.25378   0.37379   0.92011   0.00000  Uiso   1.00
H118   H     0.42479   0.30801   0.99798   0.00000  Uiso   1.00
H119   H     0.42305   0.28938   0.84936   0.00000  Uiso   1.00
H120   H     0.11887   0.40867   0.91880   0.00000  Uiso   1.00
H121   H     0.47947   0.26995   0.08298   0.00000  Uiso   1.00
H122   H     0.47581   0.23067   0.76960   0.00000  Uiso   1.00
H123   H     0.27245   0.11039   0.93591   0.00000  Uiso   1.00
H124   H     0.15650   0.15476   0.93390   0.00000  Uiso   1.00
H125   H     0.32751   0.08897   0.01177   0.00000  Uiso   1.00
H126   H     0.32577   0.07035   0.86315   0.00000  Uiso   1.00
H127   H     0.03992   0.23089   0.93000   0.00000  Uiso   1.00
H128   H     0.40053   0.09217   0.09418   0.00000  Uiso   1.00
H129   H     0.39685   0.05289   0.78079   0.00000  Uiso   1.00
O130   O     0.00478   0.35271   0.92286   0.00000  Uiso   1.00
O131   O     0.47789   0.17071   0.13825   0.00000  Uiso   1.00
O132   O     0.47307   0.11919   0.72710   0.00000  Uiso   1.00
N133   N     0.11620   0.36074   0.92170   0.00000  Uiso   1.00
N134   N     0.45334   0.23105   0.07521   0.00000  Uiso   1.00
N135   N     0.44992   0.19432   0.78223   0.00000  Uiso   1.00
N136   N     0.07372   0.26508   0.92773   0.00000  Uiso   1.00
N137   N     0.41085   0.13539   0.08123   0.00000  Uiso   1.00
N138   N     0.40744   0.09866   0.78825   0.00000  Uiso   1.00
C139   C     0.84353   0.77046   0.42583   0.00000  Uiso   1.00
C140   C     0.77050   0.77196   0.42616   0.00000  Uiso   1.00
C141   C     0.73276   0.82651   0.42308   0.00000  Uiso   1.00
C142   C     0.66684   0.81779   0.42400   0.00000  Uiso   1.00
C143   C     0.55756   0.82942   0.42394   0.00000  Uiso   1.00
C144   C     0.86341   0.73622   0.46847   0.00000  Uiso   1.00
C145   C     0.90379   0.76072   0.50097   0.00000  Uiso   1.00
C146   C     0.91609   0.72190   0.53750   0.00000  Uiso   1.00
C147   C     0.95109   0.67803   0.60312   0.00000  Uiso   1.00
C148   C     0.86246   0.72611   0.38772   0.00000  Uiso   1.00
C149   C     0.90206   0.74209   0.35233   0.00000  Uiso   1.00
C150   C     0.91356   0.69475   0.32088   0.00000  Uiso   1.00
C151   C     0.94709   0.63517   0.26112   0.00000  Uiso   1.00
C152   C     0.79358   0.65796   0.43291   0.00000  Uiso   1.00
C153   C     0.74337   0.71086   0.43001   0.00000  Uiso   1.00
C154   C     0.67748   0.70205   0.43092   0.00000  Uiso   1.00
C155   C     0.63965   0.75657   0.42785   0.00000  Uiso   1.00
C156   C     0.83628   0.67512   0.47232   0.00000  Uiso   1.00
C157   C     0.84852   0.63626   0.50881   0.00000  Uiso   1.00
C158   C     0.88890   0.66069   0.54135   0.00000  Uiso   1.00
C159   C     0.83532   0.66500   0.39157   0.00000  Uiso   1.00
C160   C     0.84678   0.61763   0.36017   0.00000  Uiso   1.00
C161   C     0.88638   0.63354   0.32473   0.00000  Uiso   1.00
H162   H     0.86466   0.81803   0.42284   0.00000  Uiso   1.00
H163   H     0.75378   0.87379   0.42011   0.00000  Uiso   1.00
H164   H     0.92479   0.80801   0.49798   0.00000  Uiso   1.00
H165   H     0.92305   0.78938   0.34936   0.00000  Uiso   1.00
H166   H     0.61887   0.90867   0.41880   0.00000  Uiso   1.00
H167   H     0.97947   0.76995   0.58298   0.00000  Uiso   1.00
H168   H     0.97581   0.73067   0.26960   0.00000  Uiso   1.00
H169   H     0.77245   0.61039   0.43591   0.00000  Uiso   1.00
H170   H     0.65650   0.65476   0.43390   0.00000  Uiso   1.00
H171   H     0.82751   0.58897   0.51177   0.00000  Uiso   1.00
H172   H     0.82577   0.57035   0.36315   0.00000  Uiso   1.00
H173   H     0.53992   0.73089   0.43000   0.00000  Uiso   1.00
H174   H     0.90053   0.59217   0.59418   0.00000  Uiso   1.00
H175   H     0.89685   0.55289   0.28079   0.00000  Uiso   1.00
O176   O     0.50478   0.85271   0.42286   0.00000  Uiso   1.00
O177   O     0.97789   0.67071   0.63825   0.00000  Uiso   1.00
O178   O     0.97307   0.61919   0.22710   0.00000  Uiso   1.00
N179   N     0.61620   0.86074   0.42170   0.00000  Uiso   1.00
N180   N     0.95334   0.73105   0.57521   0.00000  Uiso   1.00
N181   N     0.94992   0.69432   0.28223   0.00000  Uiso   1.00
N182   N     0.57372   0.76508   0.42773   0.00000  Uiso   1.00
N183   N     0.91085   0.63539   0.58123   0.00000  Uiso   1.00
N184   N     0.90744   0.59866   0.28825   0.00000  Uiso   1.00
C185   C     0.77046   0.65647   0.67583   0.00000  Uiso   1.00
C186   C     0.77196   0.72950   0.67616   0.00000  Uiso   1.00
C187   C     0.82651   0.76724   0.67308   0.00000  Uiso   1.00
C188   C     0.81779   0.83316   0.67400   0.00000  Uiso   1.00
C189   C     0.82942   0.94244   0.67394   0.00000  Uiso   1.00
C190   C     0.73622   0.63659   0.71847   0.00000  Uiso   1.00
C191   C     0.76072   0.59621   0.75097   0.00000  Uiso   1.00
C192   C     0.72190   0.58391   0.78750   0.00000  Uiso   1.00
C193   C     0.67803   0.54891   0.85312   0.00000  Uiso   1.00
C194   C     0.72611   0.63754   0.63772   0.00000  Uiso   1.00
C195   C     0.74209   0.59794   0.60233   0.00000  Uiso   1.00
C196   C     0.69475   0.58644   0.57088   0.00000  Uiso   1.00
C197   C     0.63517   0.55291   0.51112   0.00000  Uiso   1.00
C198   C     0.65796   0.70642   0.68291   0.00000  Uiso   1.00
C199   C     0.71086   0.75663   0.68001   0.00000  Uiso   1.00
C200   C     0.70205   0.82252   0.68092   0.00000  Uiso   1.00
C201   C     0.75657   0.86035   0.67785   0.00000  Uiso   1.00
C202   C     0.67512   0.66372   0.72232   0.00000  Uiso   1.00
C203   C     0.63626   0.65148   0.75881   0.00000  Uiso   1.00
C204   C     0.66069   0.61110   0.79135   0.00000  Uiso   1.00
C205   C     0.66500   0.66468   0.64157   0.00000  Uiso   1.00
C206   C     0.61763   0.65322   0.61017   0.00000  Uiso   1.00
C207   C     0.63354   0.61362   0.57473   0.00000  Uiso   1.00
H208   H     0.81803   0.63534   0.67284   0.00000  Uiso   1.00
H209   H     0.87379   0.74622   0.67011   0.00000  Uiso   1.00
H210   H     0.80801   0.57521   0.74798   0.00000  Uiso   1.00
H211   H     0.78938   0.57695   0.59936   0.00000  Uiso   1.00
H212   H     0.90867   0.88113   0.66880   0.00000  Uiso   1.00
H213   H     0.76995   0.52053   0.83298   0.00000  Uiso   1.00
H214   H     0.73067   0.52419   0.51960   0.00000  Uiso   1.00
H215   H     0.61039   0.72755   0.68591   0.00000  Uiso   1.00
H216   H     0.65476   0.84350   0.68390   0.00000  Uiso   1.00
H217   H     0.58897   0.67249   0.76177   0.00000  Uiso   1.00
H218   H     0.57035   0.67423   0.61315   0.00000  Uiso   1.00
H219   H     0.73089   0.96008   0.68000   0.00000  Uiso   1.00
H220   H     0.59217   0.59947   0.84418   0.00000  Uiso   1.00
H221   H     0.55289   0.60315   0.53079   0.00000  Uiso   1.00
O222   O     0.85271   0.99522   0.67286   0.00000  Uiso   1.00
O223   O     0.67071   0.52211   0.88825   0.00000  Uiso   1.00
O224   O     0.61919   0.52693   0.47710   0.00000  Uiso   1.00
N225   N     0.86074   0.88380   0.67170   0.00000  Uiso   1.00
N226   N     0.73105   0.54666   0.82521   0.00000  Uiso   1.00
N227   N     0.69432   0.55008   0.53223   0.00000  Uiso   1.00
N228   N     0.76508   0.92628   0.67773   0.00000  Uiso   1.00
N229   N     0.63539   0.58915   0.83123   0.00000  Uiso   1.00
N230   N     0.59866   0.59256   0.53825   0.00000  Uiso   1.00
C231   C     0.27046   0.15647   0.17583   0.00000  Uiso   1.00
C232   C     0.27196   0.22950   0.17616   0.00000  Uiso   1.00
C233   C     0.32651   0.26724   0.17308   0.00000  Uiso   1.00
C234   C     0.31779   0.33316   0.17400   0.00000  Uiso   1.00
C235   C     0.32942   0.44244   0.17394   0.00000  Uiso   1.00
C236   C     0.23622   0.13659   0.21847   0.00000  Uiso   1.00
C237   C     0.26072   0.09621   0.25097   0.00000  Uiso   1.00
C238   C     0.22190   0.08391   0.28750   0.00000  Uiso   1.00
C239   C     0.17803   0.04891   0.35312   0.00000  Uiso   1.00
C240   C     0.22611   0.13754   0.13772   0.00000  Uiso   1.00
C241   C     0.24209   0.09794   0.10233   0.00000  Uiso   1.00
C242   C     0.19475   0.08644   0.07088   0.00000  Uiso   1.00
C243   C     0.13517   0.05291   0.01112   0.00000  Uiso   1.00
C244   C     0.15796   0.20642   0.18291   0.00000  Uiso   1.00
C245   C     0.21086   0.25663   0.18001   0.00000  Uiso   1.00
C246   C     0.20205   0.32252   0.18092   0.00000  Uiso   1.00
C247   C     0.25657   0.36035   0.17785   0.00000  Uiso   1.00
C248   C     0.17512   0.16372   0.22232   0.00000  Uiso   1.00
C249   C     0.13626   0.15148   0.25881   0.00000  Uiso   1.00
C250   C     0.16069   0.11110   0.29135   0.00000  Uiso   1.00
C251   C     0.16500   0.16468   0.14157   0.00000  Uiso   1.00
C252   C     0.11763   0.15322   0.11017   0.00000  Uiso   1.00
C253   C     0.13354   0.11362   0.07473   0.00000  Uiso   1.00
H254   H     0.31803   0.13534   0.17284   0.00000  Uiso   1.00
H255   H     0.37379   0.24622   0.17011   0.00000  Uiso   1.00
H256   H     0.30801   0.07521   0.24798   0.00000  Uiso   1.00
H257   H     0.28938   0.07695   0.09936   0.00000  Uiso   1.00
H258   H     0.40867   0.38113   0.16880   0.00000  Uiso   1.00
H259   H     0.26995   0.02053   0.33298   0.00000  Uiso   1.00
H260   H     0.23067   0.02419   0.01960   0.00000  Uiso   1.00
H261   H     0.11039   0.22755   0.18591   0.00000  Uiso   1.00
H262   H     0.15476   0.34350   0.18390   0.00000  Uiso   1.00
H263   H     0.08897   0.17249   0.26177   0.00000  Uiso   1.00
H264   H     0.07035   0.17423   0.11315   0.00000  Uiso   1.00
H265   H     0.23089   0.46008   0.18000   0.00000  Uiso   1.00
H266   H     0.09217   0.09947   0.34418   0.00000  Uiso   1.00
H267   H     0.05289   0.10315   0.03079   0.00000  Uiso   1.00
O268   O     0.35271   0.49522   0.17286   0.00000  Uiso   1.00
O269   O     0.17071   0.02211   0.38825   0.00000  Uiso   1.00
O270   O     0.11919   0.02693   0.97710   0.00000  Uiso   1.00
N271   N     0.36074   0.38380   0.17170   0.00000  Uiso   1.00
N272   N     0.23105   0.04666   0.32521   0.00000  Uiso   1.00
N273   N     0.19432   0.05008   0.03223   0.00000  Uiso   1.00
N274   N     0.26508   0.42628   0.17773   0.00000  Uiso   1.00
N275   N     0.13539   0.08915   0.33123   0.00000  Uiso   1.00
N276   N     0.09866   0.09256   0.03825   0.00000  Uiso   1.00
C277   C     0.72954   0.84353   0.17583   0.00000  Uiso   1.00
C278   C     0.72804   0.77050   0.17616   0.00000  Uiso   1.00
C279   C     0.67349   0.73276   0.17308   0.00000  Uiso   1.00
C280   C     0.68221   0.66684   0.17400   0.00000  Uiso   1.00
C281   C     0.67058   0.55756   0.17394   0.00000  Uiso   1.00
C282   C     0.76378   0.86341   0.21847   0.00000  Uiso   1.00
C283   C     0.73928   0.90379   0.25097   0.00000  Uiso   1.00
C284   C     0.77810   0.91609   0.28750   0.00000  Uiso   1.00
C285   C     0.82197   0.95109   0.35312   0.00000  Uiso   1.00
C286   C     0.77389   0.86246   0.13772   0.00000  Uiso   1.00
C287   C     0.75791   0.90206   0.10233   0.00000  Uiso   1.00
C288   C     0.80525   0.91356   0.07088   0.00000  Uiso   1.00
C289   C     0.86483   0.94709   0.01112   0.00000  Uiso   1.00
C290   C     0.84204   0.79358   0.18291   0.00000  Uiso   1.00
C291   C     0.78914   0.74337   0.18001   0.00000  Uiso   1.00
C292   C     0.79795   0.67748   0.18092   0.00000  Uiso   1.00
C293   C     0.74343   0.63965   0.17785   0.00000  Uiso   1.00
C294   C     0.82488   0.83628   0.22232   0.00000  Uiso   1.00
C295   C     0.86374   0.84852   0.25881   0.00000  Uiso   1.00
C296   C     0.83931   0.88890   0.29135   0.00000  Uiso   1.00
C297   C     0.83500   0.83532   0.14157   0.00000  Uiso   1.00
C298   C     0.88237   0.84678   0.11017   0.00000  Uiso   1.00
C299   C     0.86646   0.88638   0.07473   0.00000  Uiso   1.00
H300   H     0.68197   0.86466   0.17284   0.00000  Uiso   1.00
H301   H     0.62621   0.75378   0.17011   0.00000  Uiso   1.00
H302   H     0.69199   0.92479   0.24798   0.00000  Uiso   1.00
H303   H     0.71062   0.92305   0.09936   0.00000  Uiso   1.00
H304   H     0.59133   0.61887   0.16880   0.00000  Uiso   1.00
H305   H     0.73005   0.97947   0.33298   0.00000  Uiso   1.00
H306   H     0.76933   0.97581   0.01960   0.00000  Uiso   1.00
H307   H     0.88961   0.77245   0.18591   0.00000  Uiso   1.00
H308   H     0.84524   0.65650   0.18390   0.00000  Uiso   1.00
H309   H     0.91103   0.82751   0.26177   0.00000  Uiso   1.00
H310   H     0.92965   0.82577   0.11315   0.00000  Uiso   1.00
H311   H     0.76911   0.53992   0.18000   0.00000  Uiso   1.00
H312   H     0.90783   0.90053   0.34418   0.00000  Uiso   1.00
H313   H     0.94711   0.89685   0.03079   0.00000  Uiso   1.00
O314   O     0.64729   0.50478   0.17286   0.00000  Uiso   1.00
O315   O     0.82929   0.97789   0.38825   0.00000  Uiso   1.00
O316   O     0.88081   0.97307   0.97710   0.00000  Uiso   1.00
N317   N     0.63926   0.61620   0.17170   0.00000  Uiso   1.00
N318   N     0.76895   0.95334   0.32521   0.00000  Uiso   1.00
N319   N     0.80568   0.94992   0.03223   0.00000  Uiso   1.00
N320   N     0.73492   0.57372   0.17773   0.00000  Uiso   1.00
N321   N     0.86461   0.91085   0.33123   0.00000  Uiso   1.00
N322   N     0.90134   0.90744   0.03825   0.00000  Uiso   1.00
C323   C     0.22954   0.34353   0.67583   0.00000  Uiso   1.00
C324   C     0.22804   0.27050   0.67616   0.00000  Uiso   1.00
C325   C     0.17349   0.23276   0.67308   0.00000  Uiso   1.00
C326   C     0.18221   0.16684   0.67400   0.00000  Uiso   1.00
C327   C     0.17058   0.05756   0.67394   0.00000  Uiso   1.00
C328   C     0.26378   0.36341   0.71847   0.00000  Uiso   1.00
C329   C     0.23928   0.40379   0.75097   0.00000  Uiso   1.00
C330   C     0.27810   0.41609   0.78750   0.00000  Uiso   1.00
C331   C     0.32197   0.45109   0.85312   0.00000  Uiso   1.00
C332   C     0.27389   0.36246   0.63772   0.00000  Uiso   1.00
C333   C     0.25791   0.40206   0.60233   0.00000  Uiso   1.00
C334   C     0.30525   0.41356   0.57088   0.00000  Uiso   1.00
C335   C     0.36483   0.44709   0.51112   0.00000  Uiso   1.00
C336   C     0.34204   0.29358   0.68291   0.00000  Uiso   1.00
C337   C     0.28914   0.24337   0.68001   0.00000  Uiso   1.00
C338   C     0.29795   0.17748   0.68092   0.00000  Uiso   1.00
C339   C     0.24343   0.13965   0.67785   0.00000  Uiso   1.00
C340   C     0.32488   0.33628   0.72232   0.00000  Uiso   1.00
C341   C     0.36374   0.34852   0.75881   0.00000  Uiso   1.00
C342   C     0.33931   0.38890   0.79135   0.00000  Uiso   1.00
C343   C     0.33500   0.33532   0.64157   0.00000  Uiso   1.00
C344   C     0.38237   0.34678   0.61017   0.00000  Uiso   1.00
C345   C     0.36646   0.38638   0.57473   0.00000  Uiso   1.00
H346   H     0.18197   0.36466   0.67284   0.00000  Uiso   1.00
H347   H     0.12621   0.25378   0.67011   0.00000  Uiso   1.00
H348   H     0.19199   0.42479   0.74798   0.00000  Uiso   1.00
H349   H     0.21062   0.42305   0.59936   0.00000  Uiso   1.00
H350   H     0.09133   0.11887   0.66880   0.00000  Uiso   1.00
H351   H     0.23005   0.47947   0.83298   0.00000  Uiso   1.00
H352   H     0.26933   0.47581   0.51960   0.00000  Uiso   1.00
H353   H     0.38961   0.27245   0.68591   0.00000  Uiso   1.00
H354   H     0.34524   0.15650   0.68390   0.00000  Uiso   1.00
H355   H     0.41103   0.32751   0.76177   0.00000  Uiso   1.00
H356   H     0.42965   0.32577   0.61315   0.00000  Uiso   1.00
H357   H     0.26911   0.03992   0.68000   0.00000  Uiso   1.00
H358   H     0.40783   0.40053   0.84418   0.00000  Uiso   1.00
H359   H     0.44711   0.39685   0.53079   0.00000  Uiso   1.00
O360   O     0.14729   0.00478   0.67286   0.00000  Uiso   1.00
O361   O     0.32929   0.47789   0.88825   0.00000  Uiso   1.00
O362   O     0.38081   0.47307   0.47710   0.00000  Uiso   1.00
N363   N     0.13926   0.11620   0.67170   0.00000  Uiso   1.00
N364   N     0.26895   0.45334   0.82521   0.00000  Uiso   1.00
N365   N     0.30568   0.44992   0.53223   0.00000  Uiso   1.00
N366   N     0.23492   0.07372   0.67773   0.00000  Uiso   1.00
N367   N     0.36461   0.41085   0.83123   0.00000  Uiso   1.00
N368   N     0.40134   0.40744   0.53825   0.00000  Uiso   1.00
C369   C     0.84353   0.27046   0.82417   0.00000  Uiso   1.00
C370   C     0.77050   0.27196   0.82384   0.00000  Uiso   1.00
C371   C     0.73276   0.32651   0.82692   0.00000  Uiso   1.00
C372   C     0.66684   0.31779   0.82600   0.00000  Uiso   1.00
C373   C     0.55756   0.32942   0.82606   0.00000  Uiso   1.00
C374   C     0.86341   0.23622   0.78153   0.00000  Uiso   1.00
C375   C     0.90379   0.26072   0.74903   0.00000  Uiso   1.00
C376   C     0.91609   0.22190   0.71250   0.00000  Uiso   1.00
C377   C     0.95109   0.17803   0.64688   0.00000  Uiso   1.00
C378   C     0.86246   0.22611   0.86228   0.00000  Uiso   1.00
C379   C     0.90206   0.24209   0.89767   0.00000  Uiso   1.00
C380   C     0.91356   0.19475   0.92912   0.00000  Uiso   1.00
C381   C     0.94709   0.13517   0.98888   0.00000  Uiso   1.00
C382   C     0.79358   0.15796   0.81709   0.00000  Uiso   1.00
C383   C     0.74337   0.21086   0.81999   0.00000  Uiso   1.00
C384   C     0.67748   0.20205   0.81908   0.00000  Uiso   1.00
C385   C     0.63965   0.25657   0.82215   0.00000  Uiso   1.00
C386   C     0.83628   0.17512   0.77768   0.00000  Uiso   1.00
C387   C     0.84852   0.13626   0.74119   0.00000  Uiso   1.00
C388   C     0.88890   0.16069   0.70865   0.00000  Uiso   1.00
C389   C     0.83532   0.16500   0.85843   0.00000  Uiso   1.00
C390   C     0.84678   0.11763   0.88983   0.00000  Uiso   1.00
C391   C     0.88638   0.13354   0.92527   0.00000  Uiso   1.00
H392   H     0.86466   0.31803   0.82716   0.00000  Uiso   1.00
H393   H     0.75378   0.37379   0.82989   0.00000  Uiso   1.00
H394   H     0.92479   0.30801   0.75202   0.00000  Uiso   1.00
H395   H     0.92305   0.28938   0.90064   0.00000  Uiso   1.00
H396   H     0.61887   0.40867   0.83120   0.00000  Uiso   1.00
H397   H     0.97947   0.26995   0.66702   0.00000  Uiso   1.00
H398   H     0.97581   0.23067   0.98040   0.00000  Uiso   1.00
H399   H     0.77245   0.11039   0.81409   0.00000  Uiso   1.00
H400   H     0.65650   0.15476   0.81610   0.00000  Uiso   1.00
H401   H     0.82751   0.08897   0.73823   0.00000  Uiso   1.00
H402   H     0.82577   0.07035   0.88685   0.00000  Uiso   1.00
H403   H     0.53992   0.23089   0.82000   0.00000  Uiso   1.00
H404   H     0.90053   0.09217   0.65582   0.00000  Uiso   1.00
H405   H     0.89685   0.05289   0.96921   0.00000  Uiso   1.00
O406   O     0.50478   0.35271   0.82714   0.00000  Uiso   1.00
O407   O     0.97789   0.17071   0.61175   0.00000  Uiso   1.00
O408   O     0.97307   0.11919   0.02290   0.00000  Uiso   1.00
N409   N     0.61620   0.36074   0.82830   0.00000  Uiso   1.00
N410   N     0.95334   0.23105   0.67479   0.00000  Uiso   1.00
N411   N     0.94992   0.19432   0.96777   0.00000  Uiso   1.00
N412   N     0.57372   0.26508   0.82227   0.00000  Uiso   1.00
N413   N     0.91085   0.13539   0.66877   0.00000  Uiso   1.00
N414   N     0.90744   0.09866   0.96175   0.00000  Uiso   1.00
C415   C     0.34353   0.77046   0.32417   0.00000  Uiso   1.00
C416   C     0.27050   0.77196   0.32384   0.00000  Uiso   1.00
C417   C     0.23276   0.82651   0.32692   0.00000  Uiso   1.00
C418   C     0.16684   0.81779   0.32600   0.00000  Uiso   1.00
C419   C     0.05756   0.82942   0.32606   0.00000  Uiso   1.00
C420   C     0.36341   0.73622   0.28153   0.00000  Uiso   1.00
C421   C     0.40379   0.76072   0.24903   0.00000  Uiso   1.00
C422   C     0.41609   0.72190   0.21250   0.00000  Uiso   1.00
C423   C     0.45109   0.67803   0.14688   0.00000  Uiso   1.00
C424   C     0.36246   0.72611   0.36228   0.00000  Uiso   1.00
C425   C     0.40206   0.74209   0.39767   0.00000  Uiso   1.00
C426   C     0.41356   0.69475   0.42912   0.00000  Uiso   1.00
C427   C     0.44709   0.63517   0.48888   0.00000  Uiso   1.00
C428   C     0.29358   0.65796   0.31709   0.00000  Uiso   1.00
C429   C     0.24337   0.71086   0.31999   0.00000  Uiso   1.00
C430   C     0.17748   0.70205   0.31908   0.00000  Uiso   1.00
C431   C     0.13965   0.75657   0.32215   0.00000  Uiso   1.00
C432   C     0.33628   0.67512   0.27768   0.00000  Uiso   1.00
C433   C     0.34852   0.63626   0.24119   0.00000  Uiso   1.00
C434   C     0.38890   0.66069   0.20865   0.00000  Uiso   1.00
C435   C     0.33532   0.66500   0.35843   0.00000  Uiso   1.00
C436   C     0.34678   0.61763   0.38983   0.00000  Uiso   1.00
C437   C     0.38638   0.63354   0.42527   0.00000  Uiso   1.00
H438   H     0.36466   0.81803   0.32716   0.00000  Uiso   1.00
H439   H     0.25378   0.87379   0.32989   0.00000  Uiso   1.00
H440   H     0.42479   0.80801   0.25202   0.00000  Uiso   1.00
H441   H     0.42305   0.78938   0.40064   0.00000  Uiso   1.00
H442   H     0.11887   0.90867   0.33120   0.00000  Uiso   1.00
H443   H     0.47947   0.76995   0.16702   0.00000  Uiso   1.00
H444   H     0.47581   0.73067   0.48040   0.00000  Uiso   1.00
H445   H     0.27245   0.61039   0.31409   0.00000  Uiso   1.00
H446   H     0.15650   0.65476   0.31610   0.00000  Uiso   1.00
H447   H     0.32751   0.58897   0.23823   0.00000  Uiso   1.00
H448   H     0.32577   0.57035   0.38685   0.00000  Uiso   1.00
H449   H     0.03992   0.73089   0.32000   0.00000  Uiso   1.00
H450   H     0.40053   0.59217   0.15582   0.00000  Uiso   1.00
H451   H     0.39685   0.55289   0.46921   0.00000  Uiso   1.00
O452   O     0.00478   0.85271   0.32714   0.00000  Uiso   1.00
O453   O     0.47789   0.67071   0.11175   0.00000  Uiso   1.00
O454   O     0.47307   0.61919   0.52290   0.00000  Uiso   1.00
N455   N     0.11620   0.86074   0.32830   0.00000  Uiso   1.00
N456   N     0.45334   0.73105   0.17479   0.00000  Uiso   1.00
N457   N     0.44992   0.69432   0.46777   0.00000  Uiso   1.00
N458   N     0.07372   0.76508   0.32227   0.00000  Uiso   1.00
N459   N     0.41085   0.63539   0.16877   0.00000  Uiso   1.00
N460   N     0.40744   0.59866   0.46175   0.00000  Uiso   1.00
C461   C     0.65647   0.22954   0.32417   0.00000  Uiso   1.00
C462   C     0.72950   0.22804   0.32384   0.00000  Uiso   1.00
C463   C     0.76724   0.17349   0.32692   0.00000  Uiso   1.00
C464   C     0.83316   0.18221   0.32600   0.00000  Uiso   1.00
C465   C     0.94244   0.17058   0.32606   0.00000  Uiso   1.00
C466   C     0.63659   0.26378   0.28153   0.00000  Uiso   1.00
C467   C     0.59621   0.23928   0.24903   0.00000  Uiso   1.00
C468   C     0.58391   0.27810   0.21250   0.00000  Uiso   1.00
C469   C     0.54891   0.32197   0.14688   0.00000  Uiso   1.00
C470   C     0.63754   0.27389   0.36228   0.00000  Uiso   1.00
C471   C     0.59794   0.25791   0.39767   0.00000  Uiso   1.00
C472   C     0.58644   0.30525   0.42912   0.00000  Uiso   1.00
C473   C     0.55291   0.36483   0.48888   0.00000  Uiso   1.00
C474   C     0.70642   0.34204   0.31709   0.00000  Uiso   1.00
C475   C     0.75663   0.28914   0.31999   0.00000  Uiso   1.00
C476   C     0.82252   0.29795   0.31908   0.00000  Uiso   1.00
C477   C     0.86035   0.24343   0.32215   0.00000  Uiso   1.00
C478   C     0.66372   0.32488   0.27768   0.00000  Uiso   1.00
C479   C     0.65148   0.36374   0.24119   0.00000  Uiso   1.00
C480   C     0.61110   0.33931   0.20865   0.00000  Uiso   1.00
C481   C     0.66468   0.33500   0.35843   0.00000  Uiso   1.00
C482   C     0.65322   0.38237   0.38983   0.00000  Uiso   1.00
C483   C     0.61362   0.36646   0.42527   0.00000  Uiso   1.00
H484   H     0.63534   0.18197   0.32716   0.00000  Uiso   1.00
H485   H     0.74622   0.12621   0.32989   0.00000  Uiso   1.00
H486   H     0.57521   0.19199   0.25202   0.00000  Uiso   1.00
H487   H     0.57695   0.21062   0.40064   0.00000  Uiso   1.00
H488   H     0.88113   0.09133   0.33120   0.00000  Uiso   1.00
H489   H     0.52053   0.23005   0.16702   0.00000  Uiso   1.00
H490   H     0.52419   0.26933   0.48040   0.00000  Uiso   1.00
H491   H     0.72755   0.38961   0.31409   0.00000  Uiso   1.00
H492   H     0.84350   0.34524   0.31610   0.00000  Uiso   1.00
H493   H     0.67249   0.41103   0.23823   0.00000  Uiso   1.00
H494   H     0.67423   0.42965   0.38685   0.00000  Uiso   1.00
H495   H     0.96008   0.26911   0.32000   0.00000  Uiso   1.00
H496   H     0.59947   0.40783   0.15582   0.00000  Uiso   1.00
H497   H     0.60315   0.44711   0.46921   0.00000  Uiso   1.00
O498   O     0.99522   0.14729   0.32714   0.00000  Uiso   1.00
O499   O     0.52211   0.32929   0.11175   0.00000  Uiso   1.00
O500   O     0.52693   0.38081   0.52290   0.00000  Uiso   1.00
N501   N     0.88380   0.13926   0.32830   0.00000  Uiso   1.00
N502   N     0.54666   0.26895   0.17479   0.00000  Uiso   1.00
N503   N     0.55008   0.30568   0.46777   0.00000  Uiso   1.00
N504   N     0.92628   0.23492   0.32227   0.00000  Uiso   1.00
N505   N     0.58915   0.36461   0.16877   0.00000  Uiso   1.00
N506   N     0.59256   0.40134   0.46175   0.00000  Uiso   1.00
C507   C     0.15647   0.72954   0.82417   0.00000  Uiso   1.00
C508   C     0.22950   0.72804   0.82384   0.00000  Uiso   1.00
C509   C     0.26724   0.67349   0.82692   0.00000  Uiso   1.00
C510   C     0.33316   0.68221   0.82600   0.00000  Uiso   1.00
C511   C     0.44244   0.67058   0.82606   0.00000  Uiso   1.00
C512   C     0.13659   0.76378   0.78153   0.00000  Uiso   1.00
C513   C     0.09621   0.73928   0.74903   0.00000  Uiso   1.00
C514   C     0.08391   0.77810   0.71250   0.00000  Uiso   1.00
C515   C     0.04891   0.82197   0.64688   0.00000  Uiso   1.00
C516   C     0.13754   0.77389   0.86228   0.00000  Uiso   1.00
C517   C     0.09794   0.75791   0.89767   0.00000  Uiso   1.00
C518   C     0.08644   0.80525   0.92912   0.00000  Uiso   1.00
C519   C     0.05291   0.86483   0.98888   0.00000  Uiso   1.00
C520   C     0.20642   0.84204   0.81709   0.00000  Uiso   1.00
C521   C     0.25663   0.78914   0.81999   0.00000  Uiso   1.00
C522   C     0.32252   0.79795   0.81908   0.00000  Uiso   1.00
C523   C     0.36035   0.74343   0.82215   0.00000  Uiso   1.00
C524   C     0.16372   0.82488   0.77768   0.00000  Uiso   1.00
C525   C     0.15148   0.86374   0.74119   0.00000  Uiso   1.00
C526   C     0.11110   0.83931   0.70865   0.00000  Uiso   1.00
C527   C     0.16468   0.83500   0.85843   0.00000  Uiso   1.00
C528   C     0.15322   0.88237   0.88983   0.00000  Uiso   1.00
C529   C     0.11362   0.86646   0.92527   0.00000  Uiso   1.00
H530   H     0.13534   0.68197   0.82716   0.00000  Uiso   1.00
H531   H     0.24622   0.62621   0.82989   0.00000  Uiso   1.00
H532   H     0.07521   0.69199   0.75202   0.00000  Uiso   1.00
H533   H     0.07695   0.71062   0.90064   0.00000  Uiso   1.00
H534   H     0.38113   0.59133   0.83120   0.00000  Uiso   1.00
H535   H     0.02053   0.73005   0.66702   0.00000  Uiso   1.00
H536   H     0.02419   0.76933   0.98040   0.00000  Uiso   1.00
H537   H     0.22755   0.88961   0.81409   0.00000  Uiso   1.00
H538   H     0.34350   0.84524   0.81610   0.00000  Uiso   1.00
H539   H     0.17249   0.91103   0.73823   0.00000  Uiso   1.00
H540   H     0.17423   0.92965   0.88685   0.00000  Uiso   1.00
H541   H     0.46008   0.76911   0.82000   0.00000  Uiso   1.00
H542   H     0.09947   0.90783   0.65582   0.00000  Uiso   1.00
H543   H     0.10315   0.94711   0.96921   0.00000  Uiso   1.00
O544   O     0.49522   0.64729   0.82714   0.00000  Uiso   1.00
O545   O     0.02211   0.82929   0.61175   0.00000  Uiso   1.00
O546   O     0.02693   0.88081   0.02290   0.00000  Uiso   1.00
N547   N     0.38380   0.63926   0.82830   0.00000  Uiso   1.00
N548   N     0.04666   0.76895   0.67479   0.00000  Uiso   1.00
N549   N     0.05008   0.80568   0.96777   0.00000  Uiso   1.00
N550   N     0.42628   0.73492   0.82227   0.00000  Uiso   1.00
N551   N     0.08915   0.86461   0.66877   0.00000  Uiso   1.00
N552   N     0.09256   0.90134   0.96175   0.00000  Uiso   1.00
C553   C     0.22954   0.84353   0.57417   0.00000  Uiso   1.00
C554   C     0.22804   0.77050   0.57384   0.00000  Uiso   1.00
C555   C     0.17349   0.73276   0.57692   0.00000  Uiso   1.00
C556   C     0.18221   0.66684   0.57600   0.00000  Uiso   1.00
C557   C     0.17058   0.55756   0.57606   0.00000  Uiso   1.00
C558   C     0.26378   0.86341   0.53153   0.00000  Uiso   1.00
C559   C     0.23928   0.90379   0.49903   0.00000  Uiso   1.00
C560   C     0.27810   0.91609   0.46250   0.00000  Uiso   1.00
C561   C     0.32197   0.95109   0.39688   0.00000  Uiso   1.00
C562   C     0.27389   0.86246   0.61228   0.00000  Uiso   1.00
C563   C     0.25791   0.90206   0.64767   0.00000  Uiso   1.00
C564   C     0.30525   0.91356   0.67912   0.00000  Uiso   1.00
C565   C     0.36483   0.94709   0.73888   0.00000  Uiso   1.00
C566   C     0.34204   0.79358   0.56709   0.00000  Uiso   1.00
C567   C     0.28914   0.74337   0.56999   0.00000  Uiso   1.00
C568   C     0.29795   0.67748   0.56908   0.00000  Uiso   1.00
C569   C     0.24343   0.63965   0.57215   0.00000  Uiso   1.00
C570   C     0.32488   0.83628   0.52768   0.00000  Uiso   1.00
C571   C     0.36374   0.84852   0.49119   0.00000  Uiso   1.00
C572   C     0.33931   0.88890   0.45865   0.00000  Uiso   1.00
C573   C     0.33500   0.83532   0.60843   0.00000  Uiso   1.00
C574   C     0.38237   0.84678   0.63983   0.00000  Uiso   1.00
C575   C     0.36646   0.88638   0.67527   0.00000  Uiso   1.00
H576   H     0.18197   0.86466   0.57716   0.00000  Uiso   1.00
H577   H     0.12621   0.75378   0.57989   0.00000  Uiso   1.00
H578   H     0.19199   0.92479   0.50202   0.00000  Uiso   1.00
H579   H     0.21062   0.92305   0.65064   0.00000  Uiso   1.00
H580   H     0.09133   0.61887   0.58120   0.00000  Uiso   1.00
H581   H     0.23005   0.97947   0.41702   0.00000  Uiso   1.00
H582   H     0.26933   0.97581   0.73040   0.00000  Uiso   1.00
H583   H     0.38961   0.77245   0.56409   0.00000  Uiso   1.00
H584   H     0.34524   0.65650   0.56610   0.00000  Uiso   1.00
H585   H     0.41103   0.82751   0.48823   0.00000  Uiso   1.00
H586   H     0.42965   0.82577   0.63685   0.00000  Uiso   1.00
H587   H     0.26911   0.53992   0.57000   0.00000  Uiso   1.00
H588   H     0.40783   0.90053   0.40582   0.00000  Uiso   1.00
H589   H     0.44711   0.89685   0.71921   0.00000  Uiso   1.00
O590   O     0.14729   0.50478   0.57714   0.00000  Uiso   1.00
O591   O     0.32929   0.97789   0.36175   0.00000  Uiso   1.00
O592   O     0.38081   0.97307   0.77290   0.00000  Uiso   1.00
N593   N     0.13926   0.61620   0.57830   0.00000  Uiso   1.00
N594   N     0.26895   0.95334   0.42479   0.00000  Uiso   1.00
N595   N     0.30568   0.94992   0.71777   0.00000  Uiso   1.00
N596   N     0.23492   0.57372   0.57227   0.00000  Uiso   1.00
N597   N     0.36461   0.91085   0.41877   0.00000  Uiso   1.00
N598   N     0.40134   0.90744   0.71175   0.00000  Uiso   1.00
C599   C     0.72954   0.34353   0.07417   0.00000  Uiso   1.00
C600   C     0.72804   0.27050   0.07384   0.00000  Uiso   1.00
C601   C     0.67349   0.23276   0.07692   0.00000  Uiso   1.00
C602   C     0.68221   0.16684   0.07600   0.00000  Uiso   1.00
C603   C     0.67058   0.05756   0.07606   0.00000  Uiso   1.00
C604   C     0.76378   0.36341   0.03153   0.00000  Uiso   1.00
C605   C     0.73928   0.40379   0.99903   0.00000  Uiso   1.00
C606   C     0.77810   0.41609   0.96250   0.00000  Uiso   1.00
C607   C     0.82197   0.45109   0.89688   0.00000  Uiso   1.00
C608   C     0.77389   0.36246   0.11228   0.00000  Uiso   1.00
C609   C     0.75791   0.40206   0.14767   0.00000  Uiso   1.00
C610   C     0.80525   0.41356   0.17912   0.00000  Uiso   1.00
C611   C     0.86483   0.44709   0.23888   0.00000  Uiso   1.00
C612   C     0.84204   0.29358   0.06709   0.00000  Uiso   1.00
C613   C     0.78914   0.24337   0.06999   0.00000  Uiso   1.00
C614   C     0.79795   0.17748   0.06908   0.00000  Uiso   1.00
C615   C     0.74343   0.13965   0.07215   0.00000  Uiso   1.00
C616   C     0.82488   0.33628   0.02768   0.00000  Uiso   1.00
C617   C     0.86374   0.34852   0.99119   0.00000  Uiso   1.00
C618   C     0.83931   0.38890   0.95865   0.00000  Uiso   1.00
C619   C     0.83500   0.33532   0.10843   0.00000  Uiso   1.00
C620   C     0.88237   0.34678   0.13983   0.00000  Uiso   1.00
C621   C     0.86646   0.38638   0.17527   0.00000  Uiso   1.00
H622   H     0.68197   0.36466   0.07716   0.00000  Uiso   1.00
H623   H     0.62621   0.25378   0.07989   0.00000  Uiso   1.00
H624   H     0.69199   0.42479   0.00202   0.00000  Uiso   1.00
H625   H     0.71062   0.42305   0.15064   0.00000  Uiso   1.00
H626   H     0.59133   0.11887   0.08120   0.00000  Uiso   1.00
H627   H     0.73005   0.47947   0.91702   0.00000  Uiso   1.00
H628   H     0.76933   0.47581   0.23040   0.00000  Uiso   1.00
H629   H     0.88961   0.27245   0.06409   0.00000  Uiso   1.00
H630   H     0.84524   0.15650   0.06610   0.00000  Uiso   1.00
H631   H     0.91103   0.32751   0.98823   0.00000  Uiso   1.00
H632   H     0.92965   0.32577   0.13685   0.00000  Uiso   1.00
H633   H     0.76911   0.03992   0.07000   0.00000  Uiso   1.00
H634   H     0.90783   0.40053   0.90582   0.00000  Uiso   1.00
H635   H     0.94711   0.39685   0.21921   0.00000  Uiso   1.00
O636   O     0.64729   0.00478   0.07714   0.00000  Uiso   1.00
O637   O     0.82929   0.47789   0.86175   0.00000  Uiso   1.00
O638   O     0.88081   0.47307   0.27290   0.00000  Uiso   1.00
N639   N     0.63926   0.11620   0.07830   0.00000  Uiso   1.00
N640   N     0.76895   0.45334   0.92479   0.00000  Uiso   1.00
N641   N     0.80568   0.44992   0.21777   0.00000  Uiso   1.00
N642   N     0.73492   0.07372   0.07227   0.00000  Uiso   1.00
N643   N     0.86461   0.41085   0.91877   0.00000  Uiso   1.00
N644   N     0.90134   0.40744   0.21175   0.00000  Uiso   1.00
C645   C     0.27046   0.65647   0.07417   0.00000  Uiso   1.00
C646   C     0.27196   0.72950   0.07384   0.00000  Uiso   1.00
C647   C     0.32651   0.76724   0.07692   0.00000  Uiso   1.00
C648   C     0.31779   0.83316   0.07600   0.00000  Uiso   1.00
C649   C     0.32942   0.94244   0.07606   0.00000  Uiso   1.00
C650   C     0.23622   0.63659   0.03153   0.00000  Uiso   1.00
C651   C     0.26072   0.59621   0.99903   0.00000  Uiso   1.00
C652   C     0.22190   0.58391   0.96250   0.00000  Uiso   1.00
C653   C     0.17803   0.54891   0.89688   0.00000  Uiso   1.00
C654   C     0.22611   0.63754   0.11228   0.00000  Uiso   1.00
C655   C     0.24209   0.59794   0.14767   0.00000  Uiso   1.00
C656   C     0.19475   0.58644   0.17912   0.00000  Uiso   1.00
C657   C     0.13517   0.55291   0.23888   0.00000  Uiso   1.00
C658   C     0.15796   0.70642   0.06709   0.00000  Uiso   1.00
C659   C     0.21086   0.75663   0.06999   0.00000  Uiso   1.00
C660   C     0.20205   0.82252   0.06908   0.00000  Uiso   1.00
C661   C     0.25657   0.86035   0.07215   0.00000  Uiso   1.00
C662   C     0.17512   0.66372   0.02768   0.00000  Uiso   1.00
C663   C     0.13626   0.65148   0.99119   0.00000  Uiso   1.00
C664   C     0.16069   0.61110   0.95865   0.00000  Uiso   1.00
C665   C     0.16500   0.66468   0.10843   0.00000  Uiso   1.00
C666   C     0.11763   0.65322   0.13983   0.00000  Uiso   1.00
C667   C     0.13354   0.61362   0.17527   0.00000  Uiso   1.00
H668   H     0.31803   0.63534   0.07716   0.00000  Uiso   1.00
H669   H     0.37379   0.74622   0.07989   0.00000  Uiso   1.00
H670   H     0.30801   0.57521   0.00202   0.00000  Uiso   1.00
H671   H     0.28938   0.57695   0.15064   0.00000  Uiso   1.00
H672   H     0.40867   0.88113   0.08120   0.00000  Uiso   1.00
H673   H     0.26995   0.52053   0.91702   0.00000  Uiso   1.00
H674   H     0.23067   0.52419   0.23040   0.00000  Uiso   1.00
H675   H     0.11039   0.72755   0.06409   0.00000  Uiso   1.00
H676   H     0.15476   0.84350   0.06610   0.00000  Uiso   1.00
H677   H     0.08897   0.67249   0.98823   0.00000  Uiso   1.00
H678   H     0.07035   0.67423   0.13685   0.00000  Uiso   1.00
H679   H     0.23089   0.96008   0.07000   0.00000  Uiso   1.00
H680   H     0.09217   0.59947   0.90582   0.00000  Uiso   1.00
H681   H     0.05289   0.60315   0.21921   0.00000  Uiso   1.00
O682   O     0.35271   0.99522   0.07714   0.00000  Uiso   1.00
O683   O     0.17071   0.52211   0.86175   0.00000  Uiso   1.00
O684   O     0.11919   0.52693   0.27290   0.00000  Uiso   1.00
N685   N     0.36074   0.88380   0.07830   0.00000  Uiso   1.00
N686   N     0.23105   0.54666   0.92479   0.00000  Uiso   1.00
N687   N     0.19432   0.55008   0.21777   0.00000  Uiso   1.00
N688   N     0.26508   0.92628   0.07227   0.00000  Uiso   1.00
N689   N     0.13539   0.58915   0.91877   0.00000  Uiso   1.00
N690   N     0.09866   0.59256   0.21175   0.00000  Uiso   1.00
C691   C     0.77046   0.15647   0.57417   0.00000  Uiso   1.00
C692   C     0.77196   0.22950   0.57384   0.00000  Uiso   1.00
C693   C     0.82651   0.26724   0.57692   0.00000  Uiso   1.00
C694   C     0.81779   0.33316   0.57600   0.00000  Uiso   1.00
C695   C     0.82942   0.44244   0.57606   0.00000  Uiso   1.00
C696   C     0.73622   0.13659   0.53153   0.00000  Uiso   1.00
C697   C     0.76072   0.09621   0.49903   0.00000  Uiso   1.00
C698   C     0.72190   0.08391   0.46250   0.00000  Uiso   1.00
C699   C     0.67803   0.04891   0.39688   0.00000  Uiso   1.00
C700   C     0.72611   0.13754   0.61228   0.00000  Uiso   1.00
C701   C     0.74209   0.09794   0.64767   0.00000  Uiso   1.00
C702   C     0.69475   0.08644   0.67912   0.00000  Uiso   1.00
C703   C     0.63517   0.05291   0.73888   0.00000  Uiso   1.00
C704   C     0.65796   0.20642   0.56709   0.00000  Uiso   1.00
C705   C     0.71086   0.25663   0.56999   0.00000  Uiso   1.00
C706   C     0.70205   0.32252   0.56908   0.00000  Uiso   1.00
C707   C     0.75657   0.36035   0.57215   0.00000  Uiso   1.00
C708   C     0.67512   0.16372   0.52768   0.00000  Uiso   1.00
C709   C     0.63626   0.15148   0.49119   0.00000  Uiso   1.00
C710   C     0.66069   0.11110   0.45865   0.00000  Uiso   1.00
C711   C     0.66500   0.16468   0.60843   0.00000  Uiso   1.00
C712   C     0.61763   0.15322   0.63983   0.00000  Uiso   1.00
C713   C     0.63354   0.11362   0.67527   0.00000  Uiso   1.00
H714   H     0.81803   0.13534   0.57716   0.00000  Uiso   1.00
H715   H     0.87379   0.24622   0.57989   0.00000  Uiso   1.00
H716   H     0.80801   0.07521   0.50202   0.00000  Uiso   1.00
H717   H     0.78938   0.07695   0.65064   0.00000  Uiso   1.00
H718   H     0.90867   0.38113   0.58120   0.00000  Uiso   1.00
H719   H     0.76995   0.02053   0.41702   0.00000  Uiso   1.00
H720   H     0.73067   0.02419   0.73040   0.00000  Uiso   1.00
H721   H     0.61039   0.22755   0.56409   0.00000  Uiso   1.00
H722   H     0.65476   0.34350   0.56610   0.00000  Uiso   1.00
H723   H     0.58897   0.17249   0.48823   0.00000  Uiso   1.00
H724   H     0.57035   0.17423   0.63685   0.00000  Uiso   1.00
H725   H     0.73089   0.46008   0.57000   0.00000  Uiso   1.00
H726   H     0.59217   0.09947   0.40582   0.00000  Uiso   1.00
H727   H     0.55289   0.10315   0.71921   0.00000  Uiso   1.00
O728   O     0.85271   0.49522   0.57714   0.00000  Uiso   1.00
O729   O     0.67071   0.02211   0.36175   0.00000  Uiso   1.00
O730   O     0.61919   0.02693   0.77290   0.00000  Uiso   1.00
N731   N     0.86074   0.38380   0.57830   0.00000  Uiso   1.00
N732   N     0.73105   0.04666   0.42479   0.00000  Uiso   1.00
N733   N     0.69432   0.05008   0.71777   0.00000  Uiso   1.00
N734   N     0.76508   0.42628   0.57227   0.00000  Uiso   1.00
N735   N     0.63539   0.08915   0.41877   0.00000  Uiso   1.00
N736   N     0.59866   0.09256   0.71175   0.00000  Uiso   1.00
