data_job_01459
_audit_creation_date              2018-12-19
_audit_creation_method            'Materials Studio'
_symmetry_space_group_name_H-M    'P1'
_symmetry_Int_Tables_number       1
_symmetry_cell_setting            triclinic
loop_
_symmetry_equiv_pos_as_xyz
  x,y,z
_cell_length_a                    25.7481
_cell_length_b                    25.7481
_cell_length_c                    14.9395
_cell_angle_alpha                 90.0000
_cell_angle_beta                  90.0000
_cell_angle_gamma                 90.0000
loop_
_atom_site_label
_atom_site_type_symbol
_atom_site_fract_x
_atom_site_fract_y
_atom_site_fract_z
_atom_site_U_iso_or_equiv
_atom_site_adp_type
_atom_site_occupancy
C1     C     0.36340   0.13185   0.47068   0.00000  Uiso   1.00
C2     C     0.33228   0.09367   0.52736   0.00000  Uiso   1.00
C3     C     0.28643   0.06949   0.50191   0.00000  Uiso   1.00
C4     C     0.26391   0.03588   0.56334   0.00000  Uiso   1.00
C5     C     0.21214   0.97800   0.63861   0.00000  Uiso   1.00
C6     C     0.36837   0.18114   0.52663   0.00000  Uiso   1.00
C7     C     0.35287   0.23050   0.50054   0.00000  Uiso   1.00
C8     C     0.36075   0.27051   0.56135   0.00000  Uiso   1.00
C9     C     0.36504   0.34843   0.63545   0.00000  Uiso   1.00
C10    C     0.41801   0.10930   0.46385   0.00000  Uiso   1.00
C11    C     0.44427   0.09826   0.38498   0.00000  Uiso   1.00
C12    C     0.49395   0.07780   0.39294   0.00000  Uiso   1.00
C13    C     0.57533   0.04418   0.36958   0.00000  Uiso   1.00
C14    C     0.40494   0.11515   0.62505   0.00000  Uiso   1.00
C15    C     0.35484   0.08461   0.61121   0.00000  Uiso   1.00
C16    C     0.33239   0.05101   0.67270   0.00000  Uiso   1.00
C17    C     0.28651   0.02679   0.64734   0.00000  Uiso   1.00
C18    C     0.39093   0.17207   0.61047   0.00000  Uiso   1.00
C19    C     0.39883   0.21202   0.67133   0.00000  Uiso   1.00
C20    C     0.38335   0.26142   0.64535   0.00000  Uiso   1.00
C21    C     0.44058   0.10023   0.54770   0.00000  Uiso   1.00
C22    C     0.49023   0.07978   0.55578   0.00000  Uiso   1.00
C23    C     0.51655   0.06872   0.47694   0.00000  Uiso   1.00
H24    H     0.34583   0.13892   0.40541   0.00000  Uiso   1.00
H25    H     0.26898   0.07653   0.43701   0.00000  Uiso   1.00
H26    H     0.33542   0.23750   0.43564   0.00000  Uiso   1.00
H27    H     0.42680   0.10529   0.32011   0.00000  Uiso   1.00
H28    H     0.19371   0.00337   0.50905   0.00000  Uiso   1.00
H29    H     0.33382   0.34280   0.50615   0.00000  Uiso   1.00
H30    H     0.52652   0.06400   0.26252   0.00000  Uiso   1.00
H31    H     0.42251   0.10809   0.69034   0.00000  Uiso   1.00
H32    H     0.34986   0.04400   0.73758   0.00000  Uiso   1.00
H33    H     0.41630   0.20498   0.73621   0.00000  Uiso   1.00
H34    H     0.50768   0.07277   0.62068   0.00000  Uiso   1.00
H35    H     0.25935   0.97698   0.75300   0.00000  Uiso   1.00
H36    H     0.39946   0.31641   0.75010   0.00000  Uiso   1.00
H37    H     0.59216   0.03761   0.50647   0.00000  Uiso   1.00
O38    O     0.17734   0.94859   0.65697   0.00000  Uiso   1.00
O39    O     0.36118   0.39391   0.65316   0.00000  Uiso   1.00
O40    O     0.61398   0.02813   0.33353   0.00000  Uiso   1.00
N41    N     0.21913   0.00595   0.55997   0.00000  Uiso   1.00
N42    N     0.35012   0.32329   0.55726   0.00000  Uiso   1.00
N43    N     0.53028   0.06265   0.32949   0.00000  Uiso   1.00
N44    N     0.25445   0.99174   0.69124   0.00000  Uiso   1.00
N45    N     0.38544   0.30909   0.68853   0.00000  Uiso   1.00
N46    N     0.56560   0.04845   0.46076   0.00000  Uiso   1.00
C47    C     0.86340   0.63185   0.97068   0.00000  Uiso   1.00
C48    C     0.83228   0.59367   0.02736   0.00000  Uiso   1.00
C49    C     0.78643   0.56949   0.00191   0.00000  Uiso   1.00
C50    C     0.76391   0.53588   0.06334   0.00000  Uiso   1.00
C51    C     0.71214   0.47800   0.13861   0.00000  Uiso   1.00
C52    C     0.86837   0.68114   0.02663   0.00000  Uiso   1.00
C53    C     0.85287   0.73050   0.00054   0.00000  Uiso   1.00
C54    C     0.86075   0.77051   0.06135   0.00000  Uiso   1.00
C55    C     0.86504   0.84843   0.13545   0.00000  Uiso   1.00
C56    C     0.91801   0.60930   0.96385   0.00000  Uiso   1.00
C57    C     0.94427   0.59826   0.88498   0.00000  Uiso   1.00
C58    C     0.99395   0.57780   0.89294   0.00000  Uiso   1.00
C59    C     0.07533   0.54418   0.86958   0.00000  Uiso   1.00
C60    C     0.90494   0.61515   0.12505   0.00000  Uiso   1.00
C61    C     0.85484   0.58461   0.11121   0.00000  Uiso   1.00
C62    C     0.83239   0.55101   0.17270   0.00000  Uiso   1.00
C63    C     0.78651   0.52679   0.14734   0.00000  Uiso   1.00
C64    C     0.89093   0.67207   0.11047   0.00000  Uiso   1.00
C65    C     0.89883   0.71202   0.17133   0.00000  Uiso   1.00
C66    C     0.88335   0.76142   0.14535   0.00000  Uiso   1.00
C67    C     0.94058   0.60023   0.04770   0.00000  Uiso   1.00
C68    C     0.99023   0.57978   0.05578   0.00000  Uiso   1.00
C69    C     0.01655   0.56872   0.97694   0.00000  Uiso   1.00
H70    H     0.84583   0.63892   0.90541   0.00000  Uiso   1.00
H71    H     0.76898   0.57653   0.93701   0.00000  Uiso   1.00
H72    H     0.83542   0.73750   0.93564   0.00000  Uiso   1.00
H73    H     0.92680   0.60529   0.82011   0.00000  Uiso   1.00
H74    H     0.69371   0.50337   0.00905   0.00000  Uiso   1.00
H75    H     0.83382   0.84280   0.00615   0.00000  Uiso   1.00
H76    H     0.02652   0.56400   0.76252   0.00000  Uiso   1.00
H77    H     0.92251   0.60809   0.19034   0.00000  Uiso   1.00
H78    H     0.84986   0.54400   0.23758   0.00000  Uiso   1.00
H79    H     0.91630   0.70498   0.23621   0.00000  Uiso   1.00
H80    H     0.00768   0.57277   0.12068   0.00000  Uiso   1.00
H81    H     0.75935   0.47698   0.25300   0.00000  Uiso   1.00
H82    H     0.89946   0.81641   0.25010   0.00000  Uiso   1.00
H83    H     0.09216   0.53761   0.00647   0.00000  Uiso   1.00
O84    O     0.67734   0.44859   0.15697   0.00000  Uiso   1.00
O85    O     0.86118   0.89391   0.15316   0.00000  Uiso   1.00
O86    O     0.11398   0.52813   0.83353   0.00000  Uiso   1.00
N87    N     0.71913   0.50595   0.05997   0.00000  Uiso   1.00
N88    N     0.85012   0.82329   0.05726   0.00000  Uiso   1.00
N89    N     0.03028   0.56265   0.82949   0.00000  Uiso   1.00
N90    N     0.75445   0.49174   0.19124   0.00000  Uiso   1.00
N91    N     0.88544   0.80909   0.18853   0.00000  Uiso   1.00
N92    N     0.06560   0.54845   0.96076   0.00000  Uiso   1.00
C93    C     0.13660   0.36815   0.97068   0.00000  Uiso   1.00
C94    C     0.16772   0.40633   0.02736   0.00000  Uiso   1.00
C95    C     0.21357   0.43051   0.00191   0.00000  Uiso   1.00
C96    C     0.23609   0.46412   0.06334   0.00000  Uiso   1.00
C97    C     0.28786   0.52200   0.13861   0.00000  Uiso   1.00
C98    C     0.13163   0.31886   0.02663   0.00000  Uiso   1.00
C99    C     0.14713   0.26950   0.00054   0.00000  Uiso   1.00
C100   C     0.13925   0.22949   0.06135   0.00000  Uiso   1.00
C101   C     0.13496   0.15157   0.13545   0.00000  Uiso   1.00
C102   C     0.08199   0.39070   0.96385   0.00000  Uiso   1.00
C103   C     0.05573   0.40174   0.88498   0.00000  Uiso   1.00
C104   C     0.00605   0.42220   0.89294   0.00000  Uiso   1.00
C105   C     0.92467   0.45582   0.86958   0.00000  Uiso   1.00
C106   C     0.09506   0.38485   0.12505   0.00000  Uiso   1.00
C107   C     0.14516   0.41539   0.11121   0.00000  Uiso   1.00
C108   C     0.16761   0.44899   0.17270   0.00000  Uiso   1.00
C109   C     0.21349   0.47321   0.14734   0.00000  Uiso   1.00
C110   C     0.10907   0.32793   0.11047   0.00000  Uiso   1.00
C111   C     0.10117   0.28798   0.17133   0.00000  Uiso   1.00
C112   C     0.11665   0.23858   0.14535   0.00000  Uiso   1.00
C113   C     0.05942   0.39977   0.04770   0.00000  Uiso   1.00
C114   C     0.00977   0.42022   0.05578   0.00000  Uiso   1.00
C115   C     0.98345   0.43128   0.97694   0.00000  Uiso   1.00
H116   H     0.15417   0.36108   0.90541   0.00000  Uiso   1.00
H117   H     0.23102   0.42347   0.93701   0.00000  Uiso   1.00
H118   H     0.16458   0.26250   0.93564   0.00000  Uiso   1.00
H119   H     0.07320   0.39471   0.82011   0.00000  Uiso   1.00
H120   H     0.30629   0.49663   0.00905   0.00000  Uiso   1.00
H121   H     0.16618   0.15720   0.00615   0.00000  Uiso   1.00
H122   H     0.97348   0.43600   0.76252   0.00000  Uiso   1.00
H123   H     0.07749   0.39191   0.19034   0.00000  Uiso   1.00
H124   H     0.15014   0.45600   0.23758   0.00000  Uiso   1.00
H125   H     0.08370   0.29502   0.23621   0.00000  Uiso   1.00
H126   H     0.99232   0.42723   0.12068   0.00000  Uiso   1.00
H127   H     0.24065   0.52302   0.25300   0.00000  Uiso   1.00
H128   H     0.10054   0.18359   0.25010   0.00000  Uiso   1.00
H129   H     0.90784   0.46239   0.00647   0.00000  Uiso   1.00
O130   O     0.32266   0.55141   0.15697   0.00000  Uiso   1.00
O131   O     0.13882   0.10609   0.15316   0.00000  Uiso   1.00
O132   O     0.88602   0.47187   0.83353   0.00000  Uiso   1.00
N133   N     0.28087   0.49405   0.05997   0.00000  Uiso   1.00
N134   N     0.14988   0.17671   0.05726   0.00000  Uiso   1.00
N135   N     0.96972   0.43735   0.82949   0.00000  Uiso   1.00
N136   N     0.24555   0.50826   0.19124   0.00000  Uiso   1.00
N137   N     0.11456   0.19091   0.18853   0.00000  Uiso   1.00
N138   N     0.93440   0.45155   0.96076   0.00000  Uiso   1.00
C139   C     0.63660   0.86815   0.47068   0.00000  Uiso   1.00
C140   C     0.66772   0.90633   0.52736   0.00000  Uiso   1.00
C141   C     0.71357   0.93051   0.50191   0.00000  Uiso   1.00
C142   C     0.73609   0.96412   0.56334   0.00000  Uiso   1.00
C143   C     0.78786   0.02200   0.63861   0.00000  Uiso   1.00
C144   C     0.63163   0.81886   0.52663   0.00000  Uiso   1.00
C145   C     0.64713   0.76950   0.50054   0.00000  Uiso   1.00
C146   C     0.63925   0.72949   0.56135   0.00000  Uiso   1.00
C147   C     0.63496   0.65157   0.63545   0.00000  Uiso   1.00
C148   C     0.58199   0.89070   0.46385   0.00000  Uiso   1.00
C149   C     0.55573   0.90174   0.38498   0.00000  Uiso   1.00
C150   C     0.50605   0.92220   0.39294   0.00000  Uiso   1.00
C151   C     0.42467   0.95582   0.36958   0.00000  Uiso   1.00
C152   C     0.59506   0.88485   0.62505   0.00000  Uiso   1.00
C153   C     0.64516   0.91539   0.61121   0.00000  Uiso   1.00
C154   C     0.66761   0.94899   0.67270   0.00000  Uiso   1.00
C155   C     0.71349   0.97321   0.64734   0.00000  Uiso   1.00
C156   C     0.60907   0.82793   0.61047   0.00000  Uiso   1.00
C157   C     0.60117   0.78798   0.67133   0.00000  Uiso   1.00
C158   C     0.61665   0.73858   0.64535   0.00000  Uiso   1.00
C159   C     0.55942   0.89977   0.54770   0.00000  Uiso   1.00
C160   C     0.50977   0.92022   0.55578   0.00000  Uiso   1.00
C161   C     0.48345   0.93128   0.47694   0.00000  Uiso   1.00
H162   H     0.65417   0.86108   0.40541   0.00000  Uiso   1.00
H163   H     0.73102   0.92347   0.43701   0.00000  Uiso   1.00
H164   H     0.66458   0.76250   0.43564   0.00000  Uiso   1.00
H165   H     0.57320   0.89471   0.32011   0.00000  Uiso   1.00
H166   H     0.80629   0.99663   0.50905   0.00000  Uiso   1.00
H167   H     0.66618   0.65720   0.50615   0.00000  Uiso   1.00
H168   H     0.47348   0.93600   0.26252   0.00000  Uiso   1.00
H169   H     0.57749   0.89191   0.69034   0.00000  Uiso   1.00
H170   H     0.65014   0.95600   0.73758   0.00000  Uiso   1.00
H171   H     0.58370   0.79502   0.73621   0.00000  Uiso   1.00
H172   H     0.49232   0.92723   0.62068   0.00000  Uiso   1.00
H173   H     0.74065   0.02302   0.75300   0.00000  Uiso   1.00
H174   H     0.60054   0.68359   0.75010   0.00000  Uiso   1.00
H175   H     0.40784   0.96239   0.50647   0.00000  Uiso   1.00
O176   O     0.82266   0.05141   0.65697   0.00000  Uiso   1.00
O177   O     0.63882   0.60609   0.65316   0.00000  Uiso   1.00
O178   O     0.38602   0.97187   0.33353   0.00000  Uiso   1.00
N179   N     0.78087   0.99405   0.55997   0.00000  Uiso   1.00
N180   N     0.64988   0.67671   0.55726   0.00000  Uiso   1.00
N181   N     0.46972   0.93735   0.32949   0.00000  Uiso   1.00
N182   N     0.74555   0.00826   0.69124   0.00000  Uiso   1.00
N183   N     0.61456   0.69091   0.68853   0.00000  Uiso   1.00
N184   N     0.43440   0.95155   0.46076   0.00000  Uiso   1.00
C185   C     0.86815   0.86340   0.72068   0.00000  Uiso   1.00
C186   C     0.90633   0.83228   0.77736   0.00000  Uiso   1.00
C187   C     0.93051   0.78643   0.75191   0.00000  Uiso   1.00
C188   C     0.96412   0.76391   0.81334   0.00000  Uiso   1.00
C189   C     0.02200   0.71214   0.88861   0.00000  Uiso   1.00
C190   C     0.81886   0.86837   0.77663   0.00000  Uiso   1.00
C191   C     0.76950   0.85287   0.75054   0.00000  Uiso   1.00
C192   C     0.72949   0.86075   0.81135   0.00000  Uiso   1.00
C193   C     0.65157   0.86504   0.88545   0.00000  Uiso   1.00
C194   C     0.89070   0.91801   0.71385   0.00000  Uiso   1.00
C195   C     0.90174   0.94427   0.63498   0.00000  Uiso   1.00
C196   C     0.92220   0.99395   0.64294   0.00000  Uiso   1.00
C197   C     0.95582   0.07533   0.61958   0.00000  Uiso   1.00
C198   C     0.88485   0.90494   0.87505   0.00000  Uiso   1.00
C199   C     0.91539   0.85484   0.86121   0.00000  Uiso   1.00
C200   C     0.94899   0.83239   0.92270   0.00000  Uiso   1.00
C201   C     0.97321   0.78651   0.89734   0.00000  Uiso   1.00
C202   C     0.82793   0.89093   0.86047   0.00000  Uiso   1.00
C203   C     0.78798   0.89883   0.92133   0.00000  Uiso   1.00
C204   C     0.73858   0.88335   0.89535   0.00000  Uiso   1.00
C205   C     0.89977   0.94058   0.79770   0.00000  Uiso   1.00
C206   C     0.92022   0.99023   0.80578   0.00000  Uiso   1.00
C207   C     0.93128   0.01655   0.72694   0.00000  Uiso   1.00
H208   H     0.86108   0.84583   0.65541   0.00000  Uiso   1.00
H209   H     0.92347   0.76898   0.68701   0.00000  Uiso   1.00
H210   H     0.76250   0.83542   0.68564   0.00000  Uiso   1.00
H211   H     0.89471   0.92680   0.57011   0.00000  Uiso   1.00
H212   H     0.99663   0.69371   0.75905   0.00000  Uiso   1.00
H213   H     0.65720   0.83382   0.75615   0.00000  Uiso   1.00
H214   H     0.93600   0.02652   0.51252   0.00000  Uiso   1.00
H215   H     0.89191   0.92251   0.94034   0.00000  Uiso   1.00
H216   H     0.95600   0.84986   0.98758   0.00000  Uiso   1.00
H217   H     0.79502   0.91630   0.98621   0.00000  Uiso   1.00
H218   H     0.92723   0.00768   0.87068   0.00000  Uiso   1.00
H219   H     0.02302   0.75935   0.00300   0.00000  Uiso   1.00
H220   H     0.68359   0.89946   0.00010   0.00000  Uiso   1.00
H221   H     0.96239   0.09216   0.75647   0.00000  Uiso   1.00
O222   O     0.05141   0.67734   0.90697   0.00000  Uiso   1.00
O223   O     0.60609   0.86118   0.90316   0.00000  Uiso   1.00
O224   O     0.97187   0.11398   0.58353   0.00000  Uiso   1.00
N225   N     0.99405   0.71913   0.80997   0.00000  Uiso   1.00
N226   N     0.67671   0.85012   0.80726   0.00000  Uiso   1.00
N227   N     0.93735   0.03028   0.57949   0.00000  Uiso   1.00
N228   N     0.00826   0.75445   0.94124   0.00000  Uiso   1.00
N229   N     0.69091   0.88544   0.93853   0.00000  Uiso   1.00
N230   N     0.95155   0.06560   0.71076   0.00000  Uiso   1.00
C231   C     0.36815   0.36340   0.22068   0.00000  Uiso   1.00
C232   C     0.40633   0.33228   0.27736   0.00000  Uiso   1.00
C233   C     0.43051   0.28643   0.25191   0.00000  Uiso   1.00
C234   C     0.46412   0.26391   0.31334   0.00000  Uiso   1.00
C235   C     0.52200   0.21214   0.38861   0.00000  Uiso   1.00
C236   C     0.31886   0.36837   0.27663   0.00000  Uiso   1.00
C237   C     0.26950   0.35287   0.25054   0.00000  Uiso   1.00
C238   C     0.22949   0.36075   0.31135   0.00000  Uiso   1.00
C239   C     0.15157   0.36504   0.38545   0.00000  Uiso   1.00
C240   C     0.39070   0.41801   0.21385   0.00000  Uiso   1.00
C241   C     0.40174   0.44427   0.13498   0.00000  Uiso   1.00
C242   C     0.42220   0.49395   0.14294   0.00000  Uiso   1.00
C243   C     0.45582   0.57533   0.11958   0.00000  Uiso   1.00
C244   C     0.38485   0.40494   0.37505   0.00000  Uiso   1.00
C245   C     0.41539   0.35484   0.36121   0.00000  Uiso   1.00
C246   C     0.44899   0.33239   0.42270   0.00000  Uiso   1.00
C247   C     0.47321   0.28651   0.39734   0.00000  Uiso   1.00
C248   C     0.32793   0.39093   0.36047   0.00000  Uiso   1.00
C249   C     0.28798   0.39883   0.42133   0.00000  Uiso   1.00
C250   C     0.23858   0.38335   0.39535   0.00000  Uiso   1.00
C251   C     0.39977   0.44058   0.29770   0.00000  Uiso   1.00
C252   C     0.42022   0.49023   0.30578   0.00000  Uiso   1.00
C253   C     0.43128   0.51655   0.22694   0.00000  Uiso   1.00
H254   H     0.36108   0.34583   0.15541   0.00000  Uiso   1.00
H255   H     0.42347   0.26898   0.18701   0.00000  Uiso   1.00
H256   H     0.26250   0.33542   0.18564   0.00000  Uiso   1.00
H257   H     0.39471   0.42680   0.07011   0.00000  Uiso   1.00
H258   H     0.49663   0.19371   0.25905   0.00000  Uiso   1.00
H259   H     0.15720   0.33382   0.25615   0.00000  Uiso   1.00
H260   H     0.43600   0.52652   0.01252   0.00000  Uiso   1.00
H261   H     0.39191   0.42251   0.44034   0.00000  Uiso   1.00
H262   H     0.45600   0.34986   0.48758   0.00000  Uiso   1.00
H263   H     0.29502   0.41630   0.48621   0.00000  Uiso   1.00
H264   H     0.42723   0.50768   0.37068   0.00000  Uiso   1.00
H265   H     0.52302   0.25935   0.50300   0.00000  Uiso   1.00
H266   H     0.18359   0.39946   0.50010   0.00000  Uiso   1.00
H267   H     0.46239   0.59216   0.25647   0.00000  Uiso   1.00
O268   O     0.55141   0.17734   0.40697   0.00000  Uiso   1.00
O269   O     0.10609   0.36118   0.40316   0.00000  Uiso   1.00
O270   O     0.47187   0.61398   0.08353   0.00000  Uiso   1.00
N271   N     0.49405   0.21913   0.30997   0.00000  Uiso   1.00
N272   N     0.17671   0.35012   0.30726   0.00000  Uiso   1.00
N273   N     0.43735   0.53028   0.07949   0.00000  Uiso   1.00
N274   N     0.50826   0.25445   0.44124   0.00000  Uiso   1.00
N275   N     0.19091   0.38544   0.43853   0.00000  Uiso   1.00
N276   N     0.45155   0.56560   0.21076   0.00000  Uiso   1.00
C277   C     0.63185   0.63660   0.22068   0.00000  Uiso   1.00
C278   C     0.59367   0.66772   0.27736   0.00000  Uiso   1.00
C279   C     0.56949   0.71357   0.25191   0.00000  Uiso   1.00
C280   C     0.53588   0.73609   0.31334   0.00000  Uiso   1.00
C281   C     0.47800   0.78786   0.38861   0.00000  Uiso   1.00
C282   C     0.68114   0.63163   0.27663   0.00000  Uiso   1.00
C283   C     0.73050   0.64713   0.25054   0.00000  Uiso   1.00
C284   C     0.77051   0.63925   0.31135   0.00000  Uiso   1.00
C285   C     0.84843   0.63496   0.38545   0.00000  Uiso   1.00
C286   C     0.60930   0.58199   0.21385   0.00000  Uiso   1.00
C287   C     0.59826   0.55573   0.13498   0.00000  Uiso   1.00
C288   C     0.57780   0.50605   0.14294   0.00000  Uiso   1.00
C289   C     0.54418   0.42467   0.11958   0.00000  Uiso   1.00
C290   C     0.61515   0.59506   0.37505   0.00000  Uiso   1.00
C291   C     0.58461   0.64516   0.36121   0.00000  Uiso   1.00
C292   C     0.55101   0.66761   0.42270   0.00000  Uiso   1.00
C293   C     0.52679   0.71349   0.39734   0.00000  Uiso   1.00
C294   C     0.67207   0.60907   0.36047   0.00000  Uiso   1.00
C295   C     0.71202   0.60117   0.42133   0.00000  Uiso   1.00
C296   C     0.76142   0.61665   0.39535   0.00000  Uiso   1.00
C297   C     0.60023   0.55942   0.29770   0.00000  Uiso   1.00
C298   C     0.57978   0.50977   0.30578   0.00000  Uiso   1.00
C299   C     0.56872   0.48345   0.22694   0.00000  Uiso   1.00
H300   H     0.63892   0.65417   0.15541   0.00000  Uiso   1.00
H301   H     0.57653   0.73102   0.18701   0.00000  Uiso   1.00
H302   H     0.73750   0.66458   0.18564   0.00000  Uiso   1.00
H303   H     0.60529   0.57320   0.07011   0.00000  Uiso   1.00
H304   H     0.50337   0.80629   0.25905   0.00000  Uiso   1.00
H305   H     0.84280   0.66618   0.25615   0.00000  Uiso   1.00
H306   H     0.56400   0.47348   0.01252   0.00000  Uiso   1.00
H307   H     0.60809   0.57749   0.44034   0.00000  Uiso   1.00
H308   H     0.54400   0.65014   0.48758   0.00000  Uiso   1.00
H309   H     0.70498   0.58370   0.48621   0.00000  Uiso   1.00
H310   H     0.57277   0.49232   0.37068   0.00000  Uiso   1.00
H311   H     0.47698   0.74065   0.50300   0.00000  Uiso   1.00
H312   H     0.81641   0.60054   0.50010   0.00000  Uiso   1.00
H313   H     0.53761   0.40784   0.25647   0.00000  Uiso   1.00
O314   O     0.44859   0.82266   0.40697   0.00000  Uiso   1.00
O315   O     0.89391   0.63882   0.40316   0.00000  Uiso   1.00
O316   O     0.52813   0.38602   0.08353   0.00000  Uiso   1.00
N317   N     0.50595   0.78087   0.30997   0.00000  Uiso   1.00
N318   N     0.82329   0.64988   0.30726   0.00000  Uiso   1.00
N319   N     0.56265   0.46972   0.07949   0.00000  Uiso   1.00
N320   N     0.49174   0.74555   0.44124   0.00000  Uiso   1.00
N321   N     0.80909   0.61456   0.43853   0.00000  Uiso   1.00
N322   N     0.54845   0.43440   0.21076   0.00000  Uiso   1.00
C323   C     0.13185   0.13660   0.72068   0.00000  Uiso   1.00
C324   C     0.09367   0.16772   0.77736   0.00000  Uiso   1.00
C325   C     0.06949   0.21357   0.75191   0.00000  Uiso   1.00
C326   C     0.03588   0.23609   0.81334   0.00000  Uiso   1.00
C327   C     0.97800   0.28786   0.88861   0.00000  Uiso   1.00
C328   C     0.18114   0.13163   0.77663   0.00000  Uiso   1.00
C329   C     0.23050   0.14713   0.75054   0.00000  Uiso   1.00
C330   C     0.27051   0.13925   0.81135   0.00000  Uiso   1.00
C331   C     0.34843   0.13496   0.88545   0.00000  Uiso   1.00
C332   C     0.10930   0.08199   0.71385   0.00000  Uiso   1.00
C333   C     0.09826   0.05573   0.63498   0.00000  Uiso   1.00
C334   C     0.07780   0.00605   0.64294   0.00000  Uiso   1.00
C335   C     0.04418   0.92467   0.61958   0.00000  Uiso   1.00
C336   C     0.11515   0.09506   0.87505   0.00000  Uiso   1.00
C337   C     0.08461   0.14516   0.86121   0.00000  Uiso   1.00
C338   C     0.05101   0.16761   0.92270   0.00000  Uiso   1.00
C339   C     0.02679   0.21349   0.89734   0.00000  Uiso   1.00
C340   C     0.17207   0.10907   0.86047   0.00000  Uiso   1.00
C341   C     0.21202   0.10117   0.92133   0.00000  Uiso   1.00
C342   C     0.26142   0.11665   0.89535   0.00000  Uiso   1.00
C343   C     0.10023   0.05942   0.79770   0.00000  Uiso   1.00
C344   C     0.07978   0.00977   0.80578   0.00000  Uiso   1.00
C345   C     0.06872   0.98345   0.72694   0.00000  Uiso   1.00
H346   H     0.13892   0.15417   0.65541   0.00000  Uiso   1.00
H347   H     0.07653   0.23102   0.68701   0.00000  Uiso   1.00
H348   H     0.23750   0.16458   0.68564   0.00000  Uiso   1.00
H349   H     0.10529   0.07320   0.57011   0.00000  Uiso   1.00
H350   H     0.00337   0.30629   0.75905   0.00000  Uiso   1.00
H351   H     0.34280   0.16618   0.75615   0.00000  Uiso   1.00
H352   H     0.06400   0.97348   0.51252   0.00000  Uiso   1.00
H353   H     0.10809   0.07749   0.94034   0.00000  Uiso   1.00
H354   H     0.04400   0.15014   0.98758   0.00000  Uiso   1.00
H355   H     0.20498   0.08370   0.98621   0.00000  Uiso   1.00
H356   H     0.07277   0.99232   0.87068   0.00000  Uiso   1.00
H357   H     0.97698   0.24065   0.00300   0.00000  Uiso   1.00
H358   H     0.31641   0.10054   0.00010   0.00000  Uiso   1.00
H359   H     0.03761   0.90784   0.75647   0.00000  Uiso   1.00
O360   O     0.94859   0.32266   0.90697   0.00000  Uiso   1.00
O361   O     0.39391   0.13882   0.90316   0.00000  Uiso   1.00
O362   O     0.02813   0.88602   0.58353   0.00000  Uiso   1.00
N363   N     0.00595   0.28087   0.80997   0.00000  Uiso   1.00
N364   N     0.32329   0.14988   0.80726   0.00000  Uiso   1.00
N365   N     0.06265   0.96972   0.57949   0.00000  Uiso   1.00
N366   N     0.99174   0.24555   0.94124   0.00000  Uiso   1.00
N367   N     0.30909   0.11456   0.93853   0.00000  Uiso   1.00
N368   N     0.04845   0.93440   0.71076   0.00000  Uiso   1.00
C369   C     0.63660   0.36815   0.77932   0.00000  Uiso   1.00
C370   C     0.66772   0.40633   0.72264   0.00000  Uiso   1.00
C371   C     0.71357   0.43051   0.74809   0.00000  Uiso   1.00
C372   C     0.73609   0.46412   0.68666   0.00000  Uiso   1.00
C373   C     0.78786   0.52200   0.61139   0.00000  Uiso   1.00
C374   C     0.63163   0.31886   0.72337   0.00000  Uiso   1.00
C375   C     0.64713   0.26950   0.74946   0.00000  Uiso   1.00
C376   C     0.63925   0.22949   0.68865   0.00000  Uiso   1.00
C377   C     0.63496   0.15157   0.61455   0.00000  Uiso   1.00
C378   C     0.58199   0.39070   0.78615   0.00000  Uiso   1.00
C379   C     0.55573   0.40174   0.86502   0.00000  Uiso   1.00
C380   C     0.50605   0.42220   0.85706   0.00000  Uiso   1.00
C381   C     0.42467   0.45582   0.88042   0.00000  Uiso   1.00
C382   C     0.59506   0.38485   0.62495   0.00000  Uiso   1.00
C383   C     0.64516   0.41539   0.63879   0.00000  Uiso   1.00
C384   C     0.66761   0.44899   0.57730   0.00000  Uiso   1.00
C385   C     0.71349   0.47321   0.60266   0.00000  Uiso   1.00
C386   C     0.60907   0.32793   0.63953   0.00000  Uiso   1.00
C387   C     0.60117   0.28798   0.57867   0.00000  Uiso   1.00
C388   C     0.61665   0.23858   0.60465   0.00000  Uiso   1.00
C389   C     0.55942   0.39977   0.70230   0.00000  Uiso   1.00
C390   C     0.50977   0.42022   0.69422   0.00000  Uiso   1.00
C391   C     0.48345   0.43128   0.77306   0.00000  Uiso   1.00
H392   H     0.65417   0.36108   0.84459   0.00000  Uiso   1.00
H393   H     0.73102   0.42347   0.81299   0.00000  Uiso   1.00
H394   H     0.66458   0.26250   0.81436   0.00000  Uiso   1.00
H395   H     0.57320   0.39471   0.92989   0.00000  Uiso   1.00
H396   H     0.80629   0.49663   0.74095   0.00000  Uiso   1.00
H397   H     0.66618   0.15720   0.74385   0.00000  Uiso   1.00
H398   H     0.47348   0.43600   0.98748   0.00000  Uiso   1.00
H399   H     0.57749   0.39191   0.55966   0.00000  Uiso   1.00
H400   H     0.65014   0.45600   0.51242   0.00000  Uiso   1.00
H401   H     0.58370   0.29502   0.51379   0.00000  Uiso   1.00
H402   H     0.49232   0.42723   0.62932   0.00000  Uiso   1.00
H403   H     0.74065   0.52302   0.49700   0.00000  Uiso   1.00
H404   H     0.60054   0.18359   0.49990   0.00000  Uiso   1.00
H405   H     0.40784   0.46239   0.74353   0.00000  Uiso   1.00
O406   O     0.82266   0.55141   0.59303   0.00000  Uiso   1.00
O407   O     0.63882   0.10609   0.59684   0.00000  Uiso   1.00
O408   O     0.38602   0.47187   0.91647   0.00000  Uiso   1.00
N409   N     0.78087   0.49405   0.69003   0.00000  Uiso   1.00
N410   N     0.64988   0.17671   0.69274   0.00000  Uiso   1.00
N411   N     0.46972   0.43735   0.92051   0.00000  Uiso   1.00
N412   N     0.74555   0.50826   0.55876   0.00000  Uiso   1.00
N413   N     0.61456   0.19091   0.56147   0.00000  Uiso   1.00
N414   N     0.43440   0.45155   0.78924   0.00000  Uiso   1.00
C415   C     0.13660   0.86815   0.27932   0.00000  Uiso   1.00
C416   C     0.16772   0.90633   0.22264   0.00000  Uiso   1.00
C417   C     0.21357   0.93051   0.24809   0.00000  Uiso   1.00
C418   C     0.23609   0.96412   0.18666   0.00000  Uiso   1.00
C419   C     0.28786   0.02200   0.11139   0.00000  Uiso   1.00
C420   C     0.13163   0.81886   0.22337   0.00000  Uiso   1.00
C421   C     0.14713   0.76950   0.24946   0.00000  Uiso   1.00
C422   C     0.13925   0.72949   0.18865   0.00000  Uiso   1.00
C423   C     0.13496   0.65157   0.11455   0.00000  Uiso   1.00
C424   C     0.08199   0.89070   0.28615   0.00000  Uiso   1.00
C425   C     0.05573   0.90174   0.36502   0.00000  Uiso   1.00
C426   C     0.00605   0.92220   0.35706   0.00000  Uiso   1.00
C427   C     0.92467   0.95582   0.38042   0.00000  Uiso   1.00
C428   C     0.09506   0.88485   0.12495   0.00000  Uiso   1.00
C429   C     0.14516   0.91539   0.13879   0.00000  Uiso   1.00
C430   C     0.16761   0.94899   0.07730   0.00000  Uiso   1.00
C431   C     0.21349   0.97321   0.10266   0.00000  Uiso   1.00
C432   C     0.10907   0.82793   0.13953   0.00000  Uiso   1.00
C433   C     0.10117   0.78798   0.07867   0.00000  Uiso   1.00
C434   C     0.11665   0.73858   0.10465   0.00000  Uiso   1.00
C435   C     0.05942   0.89977   0.20230   0.00000  Uiso   1.00
C436   C     0.00977   0.92022   0.19422   0.00000  Uiso   1.00
C437   C     0.98345   0.93128   0.27306   0.00000  Uiso   1.00
H438   H     0.15417   0.86108   0.34459   0.00000  Uiso   1.00
H439   H     0.23102   0.92347   0.31299   0.00000  Uiso   1.00
H440   H     0.16458   0.76250   0.31436   0.00000  Uiso   1.00
H441   H     0.07320   0.89471   0.42989   0.00000  Uiso   1.00
H442   H     0.30629   0.99663   0.24095   0.00000  Uiso   1.00
H443   H     0.16618   0.65720   0.24385   0.00000  Uiso   1.00
H444   H     0.97348   0.93600   0.48748   0.00000  Uiso   1.00
H445   H     0.07749   0.89191   0.05966   0.00000  Uiso   1.00
H446   H     0.15014   0.95600   0.01242   0.00000  Uiso   1.00
H447   H     0.08370   0.79502   0.01379   0.00000  Uiso   1.00
H448   H     0.99232   0.92723   0.12932   0.00000  Uiso   1.00
H449   H     0.24065   0.02302   0.99700   0.00000  Uiso   1.00
H450   H     0.10054   0.68359   0.99990   0.00000  Uiso   1.00
H451   H     0.90784   0.96239   0.24353   0.00000  Uiso   1.00
O452   O     0.32266   0.05141   0.09303   0.00000  Uiso   1.00
O453   O     0.13882   0.60609   0.09684   0.00000  Uiso   1.00
O454   O     0.88602   0.97187   0.41647   0.00000  Uiso   1.00
N455   N     0.28087   0.99405   0.19003   0.00000  Uiso   1.00
N456   N     0.14988   0.67671   0.19274   0.00000  Uiso   1.00
N457   N     0.96972   0.93735   0.42051   0.00000  Uiso   1.00
N458   N     0.24555   0.00826   0.05876   0.00000  Uiso   1.00
N459   N     0.11456   0.69091   0.06147   0.00000  Uiso   1.00
N460   N     0.93440   0.95155   0.28924   0.00000  Uiso   1.00
C461   C     0.86340   0.13185   0.27932   0.00000  Uiso   1.00
C462   C     0.83228   0.09367   0.22264   0.00000  Uiso   1.00
C463   C     0.78643   0.06949   0.24809   0.00000  Uiso   1.00
C464   C     0.76391   0.03588   0.18666   0.00000  Uiso   1.00
C465   C     0.71214   0.97800   0.11139   0.00000  Uiso   1.00
C466   C     0.86837   0.18114   0.22337   0.00000  Uiso   1.00
C467   C     0.85287   0.23050   0.24946   0.00000  Uiso   1.00
C468   C     0.86075   0.27051   0.18865   0.00000  Uiso   1.00
C469   C     0.86504   0.34843   0.11455   0.00000  Uiso   1.00
C470   C     0.91801   0.10930   0.28615   0.00000  Uiso   1.00
C471   C     0.94427   0.09826   0.36502   0.00000  Uiso   1.00
C472   C     0.99395   0.07780   0.35706   0.00000  Uiso   1.00
C473   C     0.07533   0.04418   0.38042   0.00000  Uiso   1.00
C474   C     0.90494   0.11515   0.12495   0.00000  Uiso   1.00
C475   C     0.85484   0.08461   0.13879   0.00000  Uiso   1.00
C476   C     0.83239   0.05101   0.07730   0.00000  Uiso   1.00
C477   C     0.78651   0.02679   0.10266   0.00000  Uiso   1.00
C478   C     0.89093   0.17207   0.13953   0.00000  Uiso   1.00
C479   C     0.89883   0.21202   0.07867   0.00000  Uiso   1.00
C480   C     0.88335   0.26142   0.10465   0.00000  Uiso   1.00
C481   C     0.94058   0.10023   0.20230   0.00000  Uiso   1.00
C482   C     0.99023   0.07978   0.19422   0.00000  Uiso   1.00
C483   C     0.01655   0.06872   0.27306   0.00000  Uiso   1.00
H484   H     0.84583   0.13892   0.34459   0.00000  Uiso   1.00
H485   H     0.76898   0.07653   0.31299   0.00000  Uiso   1.00
H486   H     0.83542   0.23750   0.31436   0.00000  Uiso   1.00
H487   H     0.92680   0.10529   0.42989   0.00000  Uiso   1.00
H488   H     0.69371   0.00337   0.24095   0.00000  Uiso   1.00
H489   H     0.83382   0.34280   0.24385   0.00000  Uiso   1.00
H490   H     0.02652   0.06400   0.48748   0.00000  Uiso   1.00
H491   H     0.92251   0.10809   0.05966   0.00000  Uiso   1.00
H492   H     0.84986   0.04400   0.01242   0.00000  Uiso   1.00
H493   H     0.91630   0.20498   0.01379   0.00000  Uiso   1.00
H494   H     0.00768   0.07277   0.12932   0.00000  Uiso   1.00
H495   H     0.75935   0.97698   0.99700   0.00000  Uiso   1.00
H496   H     0.89946   0.31641   0.99990   0.00000  Uiso   1.00
H497   H     0.09216   0.03761   0.24353   0.00000  Uiso   1.00
O498   O     0.67734   0.94859   0.09303   0.00000  Uiso   1.00
O499   O     0.86118   0.39391   0.09684   0.00000  Uiso   1.00
O500   O     0.11398   0.02813   0.41647   0.00000  Uiso   1.00
N501   N     0.71913   0.00595   0.19003   0.00000  Uiso   1.00
N502   N     0.85012   0.32329   0.19274   0.00000  Uiso   1.00
N503   N     0.03028   0.06265   0.42051   0.00000  Uiso   1.00
N504   N     0.75445   0.99174   0.05876   0.00000  Uiso   1.00
N505   N     0.88544   0.30909   0.06147   0.00000  Uiso   1.00
N506   N     0.06560   0.04845   0.28924   0.00000  Uiso   1.00
C507   C     0.36340   0.63185   0.77932   0.00000  Uiso   1.00
C508   C     0.33228   0.59367   0.72264   0.00000  Uiso   1.00
C509   C     0.28643   0.56949   0.74809   0.00000  Uiso   1.00
C510   C     0.26391   0.53588   0.68666   0.00000  Uiso   1.00
C511   C     0.21214   0.47800   0.61139   0.00000  Uiso   1.00
C512   C     0.36837   0.68114   0.72337   0.00000  Uiso   1.00
C513   C     0.35287   0.73050   0.74946   0.00000  Uiso   1.00
C514   C     0.36075   0.77051   0.68865   0.00000  Uiso   1.00
C515   C     0.36504   0.84843   0.61455   0.00000  Uiso   1.00
C516   C     0.41801   0.60930   0.78615   0.00000  Uiso   1.00
C517   C     0.44427   0.59826   0.86502   0.00000  Uiso   1.00
C518   C     0.49395   0.57780   0.85706   0.00000  Uiso   1.00
C519   C     0.57533   0.54418   0.88042   0.00000  Uiso   1.00
C520   C     0.40494   0.61515   0.62495   0.00000  Uiso   1.00
C521   C     0.35484   0.58461   0.63879   0.00000  Uiso   1.00
C522   C     0.33239   0.55101   0.57730   0.00000  Uiso   1.00
C523   C     0.28651   0.52679   0.60266   0.00000  Uiso   1.00
C524   C     0.39093   0.67207   0.63953   0.00000  Uiso   1.00
C525   C     0.39883   0.71202   0.57867   0.00000  Uiso   1.00
C526   C     0.38335   0.76142   0.60465   0.00000  Uiso   1.00
C527   C     0.44058   0.60023   0.70230   0.00000  Uiso   1.00
C528   C     0.49023   0.57978   0.69422   0.00000  Uiso   1.00
C529   C     0.51655   0.56872   0.77306   0.00000  Uiso   1.00
H530   H     0.34583   0.63892   0.84459   0.00000  Uiso   1.00
H531   H     0.26898   0.57653   0.81299   0.00000  Uiso   1.00
H532   H     0.33542   0.73750   0.81436   0.00000  Uiso   1.00
H533   H     0.42680   0.60529   0.92989   0.00000  Uiso   1.00
H534   H     0.19371   0.50337   0.74095   0.00000  Uiso   1.00
H535   H     0.33382   0.84280   0.74385   0.00000  Uiso   1.00
H536   H     0.52652   0.56400   0.98748   0.00000  Uiso   1.00
H537   H     0.42251   0.60809   0.55966   0.00000  Uiso   1.00
H538   H     0.34986   0.54400   0.51242   0.00000  Uiso   1.00
H539   H     0.41630   0.70498   0.51379   0.00000  Uiso   1.00
H540   H     0.50768   0.57277   0.62932   0.00000  Uiso   1.00
H541   H     0.25935   0.47698   0.49700   0.00000  Uiso   1.00
H542   H     0.39946   0.81641   0.49990   0.00000  Uiso   1.00
H543   H     0.59216   0.53761   0.74353   0.00000  Uiso   1.00
O544   O     0.17734   0.44859   0.59303   0.00000  Uiso   1.00
O545   O     0.36118   0.89391   0.59684   0.00000  Uiso   1.00
O546   O     0.61398   0.52813   0.91647   0.00000  Uiso   1.00
N547   N     0.21913   0.50595   0.69003   0.00000  Uiso   1.00
N548   N     0.35012   0.82329   0.69274   0.00000  Uiso   1.00
N549   N     0.53028   0.56265   0.92051   0.00000  Uiso   1.00
N550   N     0.25445   0.49174   0.55876   0.00000  Uiso   1.00
N551   N     0.38544   0.80909   0.56147   0.00000  Uiso   1.00
N552   N     0.56560   0.54845   0.78924   0.00000  Uiso   1.00
C553   C     0.13185   0.63660   0.52932   0.00000  Uiso   1.00
C554   C     0.09367   0.66772   0.47264   0.00000  Uiso   1.00
C555   C     0.06949   0.71357   0.49809   0.00000  Uiso   1.00
C556   C     0.03588   0.73609   0.43666   0.00000  Uiso   1.00
C557   C     0.97800   0.78786   0.36139   0.00000  Uiso   1.00
C558   C     0.18114   0.63163   0.47337   0.00000  Uiso   1.00
C559   C     0.23050   0.64713   0.49946   0.00000  Uiso   1.00
C560   C     0.27051   0.63925   0.43865   0.00000  Uiso   1.00
C561   C     0.34843   0.63496   0.36455   0.00000  Uiso   1.00
C562   C     0.10930   0.58199   0.53615   0.00000  Uiso   1.00
C563   C     0.09826   0.55573   0.61502   0.00000  Uiso   1.00
C564   C     0.07780   0.50605   0.60706   0.00000  Uiso   1.00
C565   C     0.04418   0.42467   0.63042   0.00000  Uiso   1.00
C566   C     0.11515   0.59506   0.37495   0.00000  Uiso   1.00
C567   C     0.08461   0.64516   0.38879   0.00000  Uiso   1.00
C568   C     0.05101   0.66761   0.32730   0.00000  Uiso   1.00
C569   C     0.02679   0.71349   0.35266   0.00000  Uiso   1.00
C570   C     0.17207   0.60907   0.38953   0.00000  Uiso   1.00
C571   C     0.21202   0.60117   0.32867   0.00000  Uiso   1.00
C572   C     0.26142   0.61665   0.35465   0.00000  Uiso   1.00
C573   C     0.10023   0.55942   0.45230   0.00000  Uiso   1.00
C574   C     0.07978   0.50977   0.44422   0.00000  Uiso   1.00
C575   C     0.06872   0.48345   0.52306   0.00000  Uiso   1.00
H576   H     0.13892   0.65417   0.59459   0.00000  Uiso   1.00
H577   H     0.07653   0.73102   0.56299   0.00000  Uiso   1.00
H578   H     0.23750   0.66458   0.56436   0.00000  Uiso   1.00
H579   H     0.10529   0.57320   0.67989   0.00000  Uiso   1.00
H580   H     0.00337   0.80629   0.49095   0.00000  Uiso   1.00
H581   H     0.34280   0.66618   0.49385   0.00000  Uiso   1.00
H582   H     0.06400   0.47348   0.73748   0.00000  Uiso   1.00
H583   H     0.10809   0.57749   0.30966   0.00000  Uiso   1.00
H584   H     0.04400   0.65014   0.26242   0.00000  Uiso   1.00
H585   H     0.20498   0.58370   0.26379   0.00000  Uiso   1.00
H586   H     0.07277   0.49232   0.37932   0.00000  Uiso   1.00
H587   H     0.97698   0.74065   0.24700   0.00000  Uiso   1.00
H588   H     0.31641   0.60054   0.24990   0.00000  Uiso   1.00
H589   H     0.03761   0.40784   0.49353   0.00000  Uiso   1.00
O590   O     0.94859   0.82266   0.34303   0.00000  Uiso   1.00
O591   O     0.39391   0.63882   0.34684   0.00000  Uiso   1.00
O592   O     0.02813   0.38602   0.66647   0.00000  Uiso   1.00
N593   N     0.00595   0.78087   0.44003   0.00000  Uiso   1.00
N594   N     0.32329   0.64988   0.44274   0.00000  Uiso   1.00
N595   N     0.06265   0.46972   0.67051   0.00000  Uiso   1.00
N596   N     0.99174   0.74555   0.30876   0.00000  Uiso   1.00
N597   N     0.30909   0.61456   0.31147   0.00000  Uiso   1.00
N598   N     0.04845   0.43440   0.53924   0.00000  Uiso   1.00
C599   C     0.63185   0.13660   0.02932   0.00000  Uiso   1.00
C600   C     0.59367   0.16772   0.97264   0.00000  Uiso   1.00
C601   C     0.56949   0.21357   0.99809   0.00000  Uiso   1.00
C602   C     0.53588   0.23609   0.93666   0.00000  Uiso   1.00
C603   C     0.47800   0.28786   0.86139   0.00000  Uiso   1.00
C604   C     0.68114   0.13163   0.97337   0.00000  Uiso   1.00
C605   C     0.73050   0.14713   0.99946   0.00000  Uiso   1.00
C606   C     0.77051   0.13925   0.93865   0.00000  Uiso   1.00
C607   C     0.84843   0.13496   0.86455   0.00000  Uiso   1.00
C608   C     0.60930   0.08199   0.03615   0.00000  Uiso   1.00
C609   C     0.59826   0.05573   0.11502   0.00000  Uiso   1.00
C610   C     0.57780   0.00605   0.10706   0.00000  Uiso   1.00
C611   C     0.54418   0.92467   0.13042   0.00000  Uiso   1.00
C612   C     0.61515   0.09506   0.87495   0.00000  Uiso   1.00
C613   C     0.58461   0.14516   0.88879   0.00000  Uiso   1.00
C614   C     0.55101   0.16761   0.82730   0.00000  Uiso   1.00
C615   C     0.52679   0.21349   0.85266   0.00000  Uiso   1.00
C616   C     0.67207   0.10907   0.88953   0.00000  Uiso   1.00
C617   C     0.71202   0.10117   0.82867   0.00000  Uiso   1.00
C618   C     0.76142   0.11665   0.85465   0.00000  Uiso   1.00
C619   C     0.60023   0.05942   0.95230   0.00000  Uiso   1.00
C620   C     0.57978   0.00977   0.94422   0.00000  Uiso   1.00
C621   C     0.56872   0.98345   0.02306   0.00000  Uiso   1.00
H622   H     0.63892   0.15417   0.09459   0.00000  Uiso   1.00
H623   H     0.57653   0.23102   0.06299   0.00000  Uiso   1.00
H624   H     0.73750   0.16458   0.06436   0.00000  Uiso   1.00
H625   H     0.60529   0.07320   0.17989   0.00000  Uiso   1.00
H626   H     0.50337   0.30629   0.99095   0.00000  Uiso   1.00
H627   H     0.84280   0.16618   0.99385   0.00000  Uiso   1.00
H628   H     0.56400   0.97348   0.23748   0.00000  Uiso   1.00
H629   H     0.60809   0.07749   0.80966   0.00000  Uiso   1.00
H630   H     0.54400   0.15014   0.76242   0.00000  Uiso   1.00
H631   H     0.70498   0.08370   0.76379   0.00000  Uiso   1.00
H632   H     0.57277   0.99232   0.87932   0.00000  Uiso   1.00
H633   H     0.47698   0.24065   0.74700   0.00000  Uiso   1.00
H634   H     0.81641   0.10054   0.74990   0.00000  Uiso   1.00
H635   H     0.53761   0.90784   0.99353   0.00000  Uiso   1.00
O636   O     0.44859   0.32266   0.84303   0.00000  Uiso   1.00
O637   O     0.89391   0.13882   0.84684   0.00000  Uiso   1.00
O638   O     0.52813   0.88602   0.16647   0.00000  Uiso   1.00
N639   N     0.50595   0.28087   0.94003   0.00000  Uiso   1.00
N640   N     0.82329   0.14988   0.94274   0.00000  Uiso   1.00
N641   N     0.56265   0.96972   0.17051   0.00000  Uiso   1.00
N642   N     0.49174   0.24555   0.80876   0.00000  Uiso   1.00
N643   N     0.80909   0.11456   0.81147   0.00000  Uiso   1.00
N644   N     0.54845   0.93440   0.03924   0.00000  Uiso   1.00
C645   C     0.36815   0.86340   0.02932   0.00000  Uiso   1.00
C646   C     0.40633   0.83228   0.97264   0.00000  Uiso   1.00
C647   C     0.43051   0.78643   0.99809   0.00000  Uiso   1.00
C648   C     0.46412   0.76391   0.93666   0.00000  Uiso   1.00
C649   C     0.52200   0.71214   0.86139   0.00000  Uiso   1.00
C650   C     0.31886   0.86837   0.97337   0.00000  Uiso   1.00
C651   C     0.26950   0.85287   0.99946   0.00000  Uiso   1.00
C652   C     0.22949   0.86075   0.93865   0.00000  Uiso   1.00
C653   C     0.15157   0.86504   0.86455   0.00000  Uiso   1.00
C654   C     0.39070   0.91801   0.03615   0.00000  Uiso   1.00
C655   C     0.40174   0.94427   0.11502   0.00000  Uiso   1.00
C656   C     0.42220   0.99395   0.10706   0.00000  Uiso   1.00
C657   C     0.45582   0.07533   0.13042   0.00000  Uiso   1.00
C658   C     0.38485   0.90494   0.87495   0.00000  Uiso   1.00
C659   C     0.41539   0.85484   0.88879   0.00000  Uiso   1.00
C660   C     0.44899   0.83239   0.82730   0.00000  Uiso   1.00
C661   C     0.47321   0.78651   0.85266   0.00000  Uiso   1.00
C662   C     0.32793   0.89093   0.88953   0.00000  Uiso   1.00
C663   C     0.28798   0.89883   0.82867   0.00000  Uiso   1.00
C664   C     0.23858   0.88335   0.85465   0.00000  Uiso   1.00
C665   C     0.39977   0.94058   0.95230   0.00000  Uiso   1.00
C666   C     0.42022   0.99023   0.94422   0.00000  Uiso   1.00
C667   C     0.43128   0.01655   0.02306   0.00000  Uiso   1.00
H668   H     0.36108   0.84583   0.09459   0.00000  Uiso   1.00
H669   H     0.42347   0.76898   0.06299   0.00000  Uiso   1.00
H670   H     0.26250   0.83542   0.06436   0.00000  Uiso   1.00
H671   H     0.39471   0.92680   0.17989   0.00000  Uiso   1.00
H672   H     0.49663   0.69371   0.99095   0.00000  Uiso   1.00
H673   H     0.15720   0.83382   0.99385   0.00000  Uiso   1.00
H674   H     0.43600   0.02652   0.23748   0.00000  Uiso   1.00
H675   H     0.39191   0.92251   0.80966   0.00000  Uiso   1.00
H676   H     0.45600   0.84986   0.76242   0.00000  Uiso   1.00
H677   H     0.29502   0.91630   0.76379   0.00000  Uiso   1.00
H678   H     0.42723   0.00768   0.87932   0.00000  Uiso   1.00
H679   H     0.52302   0.75935   0.74700   0.00000  Uiso   1.00
H680   H     0.18359   0.89946   0.74990   0.00000  Uiso   1.00
H681   H     0.46239   0.09216   0.99353   0.00000  Uiso   1.00
O682   O     0.55141   0.67734   0.84303   0.00000  Uiso   1.00
O683   O     0.10609   0.86118   0.84684   0.00000  Uiso   1.00
O684   O     0.47187   0.11398   0.16647   0.00000  Uiso   1.00
N685   N     0.49405   0.71913   0.94003   0.00000  Uiso   1.00
N686   N     0.17671   0.85012   0.94274   0.00000  Uiso   1.00
N687   N     0.43735   0.03028   0.17051   0.00000  Uiso   1.00
N688   N     0.50826   0.75445   0.80876   0.00000  Uiso   1.00
N689   N     0.19091   0.88544   0.81147   0.00000  Uiso   1.00
N690   N     0.45155   0.06560   0.03924   0.00000  Uiso   1.00
C691   C     0.86815   0.36340   0.52932   0.00000  Uiso   1.00
C692   C     0.90633   0.33228   0.47264   0.00000  Uiso   1.00
C693   C     0.93051   0.28643   0.49809   0.00000  Uiso   1.00
C694   C     0.96412   0.26391   0.43666   0.00000  Uiso   1.00
C695   C     0.02200   0.21214   0.36139   0.00000  Uiso   1.00
C696   C     0.81886   0.36837   0.47337   0.00000  Uiso   1.00
C697   C     0.76950   0.35287   0.49946   0.00000  Uiso   1.00
C698   C     0.72949   0.36075   0.43865   0.00000  Uiso   1.00
C699   C     0.65157   0.36504   0.36455   0.00000  Uiso   1.00
C700   C     0.89070   0.41801   0.53615   0.00000  Uiso   1.00
C701   C     0.90174   0.44427   0.61502   0.00000  Uiso   1.00
C702   C     0.92220   0.49395   0.60706   0.00000  Uiso   1.00
C703   C     0.95582   0.57533   0.63042   0.00000  Uiso   1.00
C704   C     0.88485   0.40494   0.37495   0.00000  Uiso   1.00
C705   C     0.91539   0.35484   0.38879   0.00000  Uiso   1.00
C706   C     0.94899   0.33239   0.32730   0.00000  Uiso   1.00
C707   C     0.97321   0.28651   0.35266   0.00000  Uiso   1.00
C708   C     0.82793   0.39093   0.38953   0.00000  Uiso   1.00
C709   C     0.78798   0.39883   0.32867   0.00000  Uiso   1.00
C710   C     0.73858   0.38335   0.35465   0.00000  Uiso   1.00
C711   C     0.89977   0.44058   0.45230   0.00000  Uiso   1.00
C712   C     0.92022   0.49023   0.44422   0.00000  Uiso   1.00
C713   C     0.93128   0.51655   0.52306   0.00000  Uiso   1.00
H714   H     0.86108   0.34583   0.59459   0.00000  Uiso   1.00
H715   H     0.92347   0.26898   0.56299   0.00000  Uiso   1.00
H716   H     0.76250   0.33542   0.56436   0.00000  Uiso   1.00
H717   H     0.89471   0.42680   0.67989   0.00000  Uiso   1.00
H718   H     0.99663   0.19371   0.49095   0.00000  Uiso   1.00
H719   H     0.65720   0.33382   0.49385   0.00000  Uiso   1.00
H720   H     0.93600   0.52652   0.73748   0.00000  Uiso   1.00
H721   H     0.89191   0.42251   0.30966   0.00000  Uiso   1.00
H722   H     0.95600   0.34986   0.26242   0.00000  Uiso   1.00
H723   H     0.79502   0.41630   0.26379   0.00000  Uiso   1.00
H724   H     0.92723   0.50768   0.37932   0.00000  Uiso   1.00
H725   H     0.02302   0.25935   0.24700   0.00000  Uiso   1.00
H726   H     0.68359   0.39946   0.24990   0.00000  Uiso   1.00
H727   H     0.96239   0.59216   0.49353   0.00000  Uiso   1.00
O728   O     0.05141   0.17734   0.34303   0.00000  Uiso   1.00
O729   O     0.60609   0.36118   0.34684   0.00000  Uiso   1.00
O730   O     0.97187   0.61398   0.66647   0.00000  Uiso   1.00
N731   N     0.99405   0.21913   0.44003   0.00000  Uiso   1.00
N732   N     0.67671   0.35012   0.44274   0.00000  Uiso   1.00
N733   N     0.93735   0.53028   0.67051   0.00000  Uiso   1.00
N734   N     0.00826   0.25445   0.30876   0.00000  Uiso   1.00
N735   N     0.69091   0.38544   0.31147   0.00000  Uiso   1.00
N736   N     0.95155   0.56560   0.53924   0.00000  Uiso   1.00
