data_job_03741
_audit_creation_date              2018-12-19
_audit_creation_method            'Materials Studio'
_symmetry_space_group_name_H-M    'P1'
_symmetry_Int_Tables_number       1
_symmetry_cell_setting            triclinic
loop_
_symmetry_equiv_pos_as_xyz
  x,y,z
_cell_length_a                    39.0924
_cell_length_b                    39.0924
_cell_length_c                    12.0999
_cell_angle_alpha                 90.0000
_cell_angle_beta                  90.0000
_cell_angle_gamma                 90.0000
loop_
_atom_site_label
_atom_site_type_symbol
_atom_site_fract_x
_atom_site_fract_y
_atom_site_fract_z
_atom_site_U_iso_or_equiv
_atom_site_adp_type
_atom_site_occupancy
C1     C     0.16572   0.27931   0.40382   0.00000  Uiso   1.00
C2     C     0.15918   0.30833   0.48538   0.00000  Uiso   1.00
C3     C     0.17731   0.33880   0.49089   0.00000  Uiso   1.00
C4     C     0.16738   0.36208   0.57139   0.00000  Uiso   1.00
C5     C     0.16136   0.40818   0.68706   0.00000  Uiso   1.00
C6     C     0.17187   0.24742   0.47360   0.00000  Uiso   1.00
C7     C     0.20066   0.22669   0.46919   0.00000  Uiso   1.00
C8     C     0.20141   0.19869   0.53976   0.00000  Uiso   1.00
C9     C     0.21507   0.15022   0.63709   0.00000  Uiso   1.00
C10    C     0.13195   0.27339   0.34375   0.00000  Uiso   1.00
C11    C     0.12717   0.27448   0.23015   0.00000  Uiso   1.00
C12    C     0.09430   0.26834   0.19140   0.00000  Uiso   1.00
C13    C     0.04598   0.26020   0.08712   0.00000  Uiso   1.00
C14    C     0.11587   0.26646   0.53699   0.00000  Uiso   1.00
C15    C     0.13211   0.30134   0.55772   0.00000  Uiso   1.00
C16    C     0.12215   0.32458   0.63823   0.00000  Uiso   1.00
C17    C     0.14025   0.35509   0.64385   0.00000  Uiso   1.00
C18    C     0.14479   0.24044   0.54593   0.00000  Uiso   1.00
C19    C     0.14550   0.21246   0.61653   0.00000  Uiso   1.00
C20    C     0.17428   0.19170   0.61223   0.00000  Uiso   1.00
C21    C     0.10487   0.26641   0.41608   0.00000  Uiso   1.00
C22    C     0.07201   0.26026   0.37750   0.00000  Uiso   1.00
C23    C     0.06717   0.26135   0.26387   0.00000  Uiso   1.00
H24    H     0.18681   0.28475   0.34751   0.00000  Uiso   1.00
H25    H     0.19826   0.34420   0.43490   0.00000  Uiso   1.00
H26    H     0.22161   0.23209   0.41319   0.00000  Uiso   1.00
H27    H     0.14813   0.27989   0.17421   0.00000  Uiso   1.00
H28    H     0.19903   0.40702   0.56371   0.00000  Uiso   1.00
H29    H     0.24825   0.17064   0.51792   0.00000  Uiso   1.00
H30    H     0.09330   0.27142   0.01396   0.00000  Uiso   1.00
H31    H     0.09478   0.26102   0.59331   0.00000  Uiso   1.00
H32    H     0.10119   0.31917   0.69419   0.00000  Uiso   1.00
H33    H     0.12454   0.20707   0.67249   0.00000  Uiso   1.00
H34    H     0.05106   0.25486   0.43350   0.00000  Uiso   1.00
H35    H     0.12024   0.38671   0.77417   0.00000  Uiso   1.00
H36    H     0.16947   0.15033   0.72837   0.00000  Uiso   1.00
H37    H     0.01452   0.25111   0.22442   0.00000  Uiso   1.00
O38    O     0.16552   0.43554   0.73089   0.00000  Uiso   1.00
O39    O     0.23009   0.12541   0.67080   0.00000  Uiso   1.00
O40    O     0.02681   0.25763   0.00962   0.00000  Uiso   1.00
N41    N     0.17961   0.39426   0.59939   0.00000  Uiso   1.00
N42    N     0.22563   0.17326   0.55659   0.00000  Uiso   1.00
N43    N     0.08076   0.26747   0.08542   0.00000  Uiso   1.00
N44    N     0.13721   0.38333   0.71263   0.00000  Uiso   1.00
N45    N     0.18323   0.16233   0.66983   0.00000  Uiso   1.00
N46    N     0.03837   0.25654   0.19867   0.00000  Uiso   1.00
C47    C     0.66572   0.77931   0.90382   0.00000  Uiso   1.00
C48    C     0.65918   0.80833   0.98538   0.00000  Uiso   1.00
C49    C     0.67731   0.83880   0.99089   0.00000  Uiso   1.00
C50    C     0.66738   0.86208   0.07139   0.00000  Uiso   1.00
C51    C     0.66136   0.90818   0.18706   0.00000  Uiso   1.00
C52    C     0.67187   0.74742   0.97360   0.00000  Uiso   1.00
C53    C     0.70066   0.72669   0.96919   0.00000  Uiso   1.00
C54    C     0.70141   0.69869   0.03976   0.00000  Uiso   1.00
C55    C     0.71507   0.65022   0.13709   0.00000  Uiso   1.00
C56    C     0.63195   0.77339   0.84375   0.00000  Uiso   1.00
C57    C     0.62717   0.77448   0.73015   0.00000  Uiso   1.00
C58    C     0.59430   0.76834   0.69140   0.00000  Uiso   1.00
C59    C     0.54598   0.76020   0.58712   0.00000  Uiso   1.00
C60    C     0.61587   0.76646   0.03699   0.00000  Uiso   1.00
C61    C     0.63211   0.80134   0.05772   0.00000  Uiso   1.00
C62    C     0.62215   0.82458   0.13823   0.00000  Uiso   1.00
C63    C     0.64025   0.85509   0.14385   0.00000  Uiso   1.00
C64    C     0.64479   0.74044   0.04593   0.00000  Uiso   1.00
C65    C     0.64550   0.71246   0.11653   0.00000  Uiso   1.00
C66    C     0.67428   0.69170   0.11223   0.00000  Uiso   1.00
C67    C     0.60487   0.76641   0.91608   0.00000  Uiso   1.00
C68    C     0.57201   0.76026   0.87750   0.00000  Uiso   1.00
C69    C     0.56717   0.76135   0.76387   0.00000  Uiso   1.00
H70    H     0.68681   0.78475   0.84751   0.00000  Uiso   1.00
H71    H     0.69826   0.84420   0.93490   0.00000  Uiso   1.00
H72    H     0.72161   0.73209   0.91319   0.00000  Uiso   1.00
H73    H     0.64813   0.77989   0.67421   0.00000  Uiso   1.00
H74    H     0.69903   0.90702   0.06371   0.00000  Uiso   1.00
H75    H     0.74825   0.67064   0.01792   0.00000  Uiso   1.00
H76    H     0.59330   0.77142   0.51396   0.00000  Uiso   1.00
H77    H     0.59478   0.76102   0.09331   0.00000  Uiso   1.00
H78    H     0.60119   0.81917   0.19419   0.00000  Uiso   1.00
H79    H     0.62454   0.70707   0.17249   0.00000  Uiso   1.00
H80    H     0.55106   0.75486   0.93350   0.00000  Uiso   1.00
H81    H     0.62024   0.88671   0.27417   0.00000  Uiso   1.00
H82    H     0.66947   0.65033   0.22837   0.00000  Uiso   1.00
H83    H     0.51452   0.75111   0.72442   0.00000  Uiso   1.00
O84    O     0.66552   0.93554   0.23089   0.00000  Uiso   1.00
O85    O     0.73009   0.62541   0.17080   0.00000  Uiso   1.00
O86    O     0.52681   0.75763   0.50962   0.00000  Uiso   1.00
N87    N     0.67961   0.89426   0.09939   0.00000  Uiso   1.00
N88    N     0.72563   0.67326   0.05659   0.00000  Uiso   1.00
N89    N     0.58076   0.76747   0.58542   0.00000  Uiso   1.00
N90    N     0.63721   0.88333   0.21263   0.00000  Uiso   1.00
N91    N     0.68323   0.66233   0.16983   0.00000  Uiso   1.00
N92    N     0.53837   0.75654   0.69867   0.00000  Uiso   1.00
C93    C     0.33428   0.22069   0.90382   0.00000  Uiso   1.00
C94    C     0.34082   0.19167   0.98538   0.00000  Uiso   1.00
C95    C     0.32269   0.16120   0.99089   0.00000  Uiso   1.00
C96    C     0.33262   0.13792   0.07139   0.00000  Uiso   1.00
C97    C     0.33864   0.09182   0.18706   0.00000  Uiso   1.00
C98    C     0.32813   0.25258   0.97360   0.00000  Uiso   1.00
C99    C     0.29934   0.27331   0.96919   0.00000  Uiso   1.00
C100   C     0.29859   0.30131   0.03976   0.00000  Uiso   1.00
C101   C     0.28493   0.34978   0.13709   0.00000  Uiso   1.00
C102   C     0.36805   0.22661   0.84375   0.00000  Uiso   1.00
C103   C     0.37283   0.22552   0.73015   0.00000  Uiso   1.00
C104   C     0.40570   0.23166   0.69140   0.00000  Uiso   1.00
C105   C     0.45402   0.23980   0.58712   0.00000  Uiso   1.00
C106   C     0.38413   0.23354   0.03699   0.00000  Uiso   1.00
C107   C     0.36789   0.19866   0.05772   0.00000  Uiso   1.00
C108   C     0.37785   0.17542   0.13823   0.00000  Uiso   1.00
C109   C     0.35975   0.14491   0.14385   0.00000  Uiso   1.00
C110   C     0.35521   0.25956   0.04593   0.00000  Uiso   1.00
C111   C     0.35450   0.28754   0.11653   0.00000  Uiso   1.00
C112   C     0.32572   0.30830   0.11223   0.00000  Uiso   1.00
C113   C     0.39513   0.23359   0.91608   0.00000  Uiso   1.00
C114   C     0.42799   0.23974   0.87750   0.00000  Uiso   1.00
C115   C     0.43283   0.23865   0.76387   0.00000  Uiso   1.00
H116   H     0.31319   0.21525   0.84751   0.00000  Uiso   1.00
H117   H     0.30174   0.15580   0.93490   0.00000  Uiso   1.00
H118   H     0.27839   0.26791   0.91319   0.00000  Uiso   1.00
H119   H     0.35187   0.22011   0.67421   0.00000  Uiso   1.00
H120   H     0.30097   0.09298   0.06371   0.00000  Uiso   1.00
H121   H     0.25175   0.32936   0.01792   0.00000  Uiso   1.00
H122   H     0.40670   0.22858   0.51396   0.00000  Uiso   1.00
H123   H     0.40522   0.23898   0.09331   0.00000  Uiso   1.00
H124   H     0.39881   0.18083   0.19419   0.00000  Uiso   1.00
H125   H     0.37546   0.29293   0.17249   0.00000  Uiso   1.00
H126   H     0.44894   0.24514   0.93350   0.00000  Uiso   1.00
H127   H     0.37976   0.11329   0.27417   0.00000  Uiso   1.00
H128   H     0.33053   0.34967   0.22837   0.00000  Uiso   1.00
H129   H     0.48548   0.24889   0.72442   0.00000  Uiso   1.00
O130   O     0.33448   0.06446   0.23089   0.00000  Uiso   1.00
O131   O     0.26991   0.37459   0.17080   0.00000  Uiso   1.00
O132   O     0.47319   0.24237   0.50962   0.00000  Uiso   1.00
N133   N     0.32039   0.10574   0.09939   0.00000  Uiso   1.00
N134   N     0.27437   0.32674   0.05659   0.00000  Uiso   1.00
N135   N     0.41924   0.23253   0.58542   0.00000  Uiso   1.00
N136   N     0.36279   0.11667   0.21263   0.00000  Uiso   1.00
N137   N     0.31677   0.33767   0.16983   0.00000  Uiso   1.00
N138   N     0.46163   0.24346   0.69867   0.00000  Uiso   1.00
C139   C     0.83428   0.72069   0.40382   0.00000  Uiso   1.00
C140   C     0.84082   0.69167   0.48538   0.00000  Uiso   1.00
C141   C     0.82269   0.66120   0.49089   0.00000  Uiso   1.00
C142   C     0.83262   0.63792   0.57139   0.00000  Uiso   1.00
C143   C     0.83864   0.59182   0.68706   0.00000  Uiso   1.00
C144   C     0.82813   0.75258   0.47360   0.00000  Uiso   1.00
C145   C     0.79934   0.77331   0.46919   0.00000  Uiso   1.00
C146   C     0.79859   0.80131   0.53976   0.00000  Uiso   1.00
C147   C     0.78493   0.84978   0.63709   0.00000  Uiso   1.00
C148   C     0.86805   0.72661   0.34375   0.00000  Uiso   1.00
C149   C     0.87283   0.72552   0.23015   0.00000  Uiso   1.00
C150   C     0.90570   0.73166   0.19140   0.00000  Uiso   1.00
C151   C     0.95402   0.73980   0.08712   0.00000  Uiso   1.00
C152   C     0.88413   0.73354   0.53699   0.00000  Uiso   1.00
C153   C     0.86789   0.69866   0.55772   0.00000  Uiso   1.00
C154   C     0.87785   0.67542   0.63823   0.00000  Uiso   1.00
C155   C     0.85975   0.64491   0.64385   0.00000  Uiso   1.00
C156   C     0.85521   0.75956   0.54593   0.00000  Uiso   1.00
C157   C     0.85450   0.78754   0.61653   0.00000  Uiso   1.00
C158   C     0.82572   0.80830   0.61223   0.00000  Uiso   1.00
C159   C     0.89513   0.73359   0.41608   0.00000  Uiso   1.00
C160   C     0.92799   0.73974   0.37750   0.00000  Uiso   1.00
C161   C     0.93283   0.73865   0.26387   0.00000  Uiso   1.00
H162   H     0.81319   0.71525   0.34751   0.00000  Uiso   1.00
H163   H     0.80174   0.65580   0.43490   0.00000  Uiso   1.00
H164   H     0.77839   0.76791   0.41319   0.00000  Uiso   1.00
H165   H     0.85187   0.72011   0.17421   0.00000  Uiso   1.00
H166   H     0.80097   0.59298   0.56371   0.00000  Uiso   1.00
H167   H     0.75175   0.82936   0.51792   0.00000  Uiso   1.00
H168   H     0.90670   0.72858   0.01396   0.00000  Uiso   1.00
H169   H     0.90522   0.73898   0.59331   0.00000  Uiso   1.00
H170   H     0.89881   0.68083   0.69419   0.00000  Uiso   1.00
H171   H     0.87546   0.79293   0.67249   0.00000  Uiso   1.00
H172   H     0.94894   0.74514   0.43350   0.00000  Uiso   1.00
H173   H     0.87976   0.61329   0.77417   0.00000  Uiso   1.00
H174   H     0.83053   0.84967   0.72837   0.00000  Uiso   1.00
H175   H     0.98548   0.74889   0.22442   0.00000  Uiso   1.00
O176   O     0.83448   0.56446   0.73089   0.00000  Uiso   1.00
O177   O     0.76991   0.87459   0.67080   0.00000  Uiso   1.00
O178   O     0.97319   0.74237   0.00962   0.00000  Uiso   1.00
N179   N     0.82039   0.60574   0.59939   0.00000  Uiso   1.00
N180   N     0.77437   0.82674   0.55659   0.00000  Uiso   1.00
N181   N     0.91924   0.73253   0.08542   0.00000  Uiso   1.00
N182   N     0.86279   0.61667   0.71263   0.00000  Uiso   1.00
N183   N     0.81677   0.83767   0.66983   0.00000  Uiso   1.00
N184   N     0.96163   0.74346   0.19867   0.00000  Uiso   1.00
C185   C     0.72069   0.66572   0.65382   0.00000  Uiso   1.00
C186   C     0.69167   0.65918   0.73538   0.00000  Uiso   1.00
C187   C     0.66120   0.67731   0.74089   0.00000  Uiso   1.00
C188   C     0.63792   0.66738   0.82139   0.00000  Uiso   1.00
C189   C     0.59182   0.66136   0.93706   0.00000  Uiso   1.00
C190   C     0.75258   0.67187   0.72360   0.00000  Uiso   1.00
C191   C     0.77331   0.70066   0.71919   0.00000  Uiso   1.00
C192   C     0.80131   0.70141   0.78976   0.00000  Uiso   1.00
C193   C     0.84978   0.71507   0.88709   0.00000  Uiso   1.00
C194   C     0.72661   0.63195   0.59375   0.00000  Uiso   1.00
C195   C     0.72552   0.62717   0.48015   0.00000  Uiso   1.00
C196   C     0.73166   0.59430   0.44140   0.00000  Uiso   1.00
C197   C     0.73980   0.54598   0.33712   0.00000  Uiso   1.00
C198   C     0.73354   0.61587   0.78699   0.00000  Uiso   1.00
C199   C     0.69866   0.63211   0.80772   0.00000  Uiso   1.00
C200   C     0.67542   0.62215   0.88823   0.00000  Uiso   1.00
C201   C     0.64491   0.64025   0.89385   0.00000  Uiso   1.00
C202   C     0.75956   0.64479   0.79593   0.00000  Uiso   1.00
C203   C     0.78754   0.64550   0.86653   0.00000  Uiso   1.00
C204   C     0.80830   0.67428   0.86223   0.00000  Uiso   1.00
C205   C     0.73359   0.60487   0.66608   0.00000  Uiso   1.00
C206   C     0.73974   0.57201   0.62750   0.00000  Uiso   1.00
C207   C     0.73865   0.56717   0.51387   0.00000  Uiso   1.00
H208   H     0.71525   0.68681   0.59751   0.00000  Uiso   1.00
H209   H     0.65580   0.69826   0.68490   0.00000  Uiso   1.00
H210   H     0.76791   0.72161   0.66319   0.00000  Uiso   1.00
H211   H     0.72011   0.64813   0.42421   0.00000  Uiso   1.00
H212   H     0.59298   0.69903   0.81371   0.00000  Uiso   1.00
H213   H     0.82936   0.74825   0.76792   0.00000  Uiso   1.00
H214   H     0.72858   0.59330   0.26396   0.00000  Uiso   1.00
H215   H     0.73898   0.59478   0.84331   0.00000  Uiso   1.00
H216   H     0.68083   0.60119   0.94419   0.00000  Uiso   1.00
H217   H     0.79293   0.62454   0.92249   0.00000  Uiso   1.00
H218   H     0.74514   0.55106   0.68350   0.00000  Uiso   1.00
H219   H     0.61329   0.62024   0.02417   0.00000  Uiso   1.00
H220   H     0.84967   0.66947   0.97837   0.00000  Uiso   1.00
H221   H     0.74889   0.51452   0.47442   0.00000  Uiso   1.00
O222   O     0.56446   0.66552   0.98089   0.00000  Uiso   1.00
O223   O     0.87459   0.73009   0.92080   0.00000  Uiso   1.00
O224   O     0.74237   0.52681   0.25962   0.00000  Uiso   1.00
N225   N     0.60574   0.67961   0.84939   0.00000  Uiso   1.00
N226   N     0.82674   0.72563   0.80659   0.00000  Uiso   1.00
N227   N     0.73253   0.58076   0.33542   0.00000  Uiso   1.00
N228   N     0.61667   0.63721   0.96263   0.00000  Uiso   1.00
N229   N     0.83767   0.68323   0.91983   0.00000  Uiso   1.00
N230   N     0.74346   0.53837   0.44867   0.00000  Uiso   1.00
C231   C     0.22069   0.16572   0.15382   0.00000  Uiso   1.00
C232   C     0.19167   0.15918   0.23538   0.00000  Uiso   1.00
C233   C     0.16120   0.17731   0.24089   0.00000  Uiso   1.00
C234   C     0.13792   0.16738   0.32139   0.00000  Uiso   1.00
C235   C     0.09182   0.16136   0.43706   0.00000  Uiso   1.00
C236   C     0.25258   0.17187   0.22360   0.00000  Uiso   1.00
C237   C     0.27331   0.20066   0.21919   0.00000  Uiso   1.00
C238   C     0.30131   0.20141   0.28976   0.00000  Uiso   1.00
C239   C     0.34978   0.21507   0.38709   0.00000  Uiso   1.00
C240   C     0.22661   0.13195   0.09375   0.00000  Uiso   1.00
C241   C     0.22552   0.12717   0.98015   0.00000  Uiso   1.00
C242   C     0.23166   0.09430   0.94140   0.00000  Uiso   1.00
C243   C     0.23980   0.04598   0.83712   0.00000  Uiso   1.00
C244   C     0.23354   0.11587   0.28699   0.00000  Uiso   1.00
C245   C     0.19866   0.13211   0.30772   0.00000  Uiso   1.00
C246   C     0.17542   0.12215   0.38823   0.00000  Uiso   1.00
C247   C     0.14491   0.14025   0.39385   0.00000  Uiso   1.00
C248   C     0.25956   0.14479   0.29593   0.00000  Uiso   1.00
C249   C     0.28754   0.14550   0.36653   0.00000  Uiso   1.00
C250   C     0.30830   0.17428   0.36223   0.00000  Uiso   1.00
C251   C     0.23359   0.10487   0.16608   0.00000  Uiso   1.00
C252   C     0.23974   0.07201   0.12750   0.00000  Uiso   1.00
C253   C     0.23865   0.06717   0.01387   0.00000  Uiso   1.00
H254   H     0.21525   0.18681   0.09751   0.00000  Uiso   1.00
H255   H     0.15580   0.19826   0.18490   0.00000  Uiso   1.00
H256   H     0.26791   0.22161   0.16319   0.00000  Uiso   1.00
H257   H     0.22011   0.14813   0.92421   0.00000  Uiso   1.00
H258   H     0.09298   0.19903   0.31371   0.00000  Uiso   1.00
H259   H     0.32936   0.24825   0.26792   0.00000  Uiso   1.00
H260   H     0.22858   0.09330   0.76396   0.00000  Uiso   1.00
H261   H     0.23898   0.09478   0.34331   0.00000  Uiso   1.00
H262   H     0.18083   0.10119   0.44419   0.00000  Uiso   1.00
H263   H     0.29293   0.12454   0.42249   0.00000  Uiso   1.00
H264   H     0.24514   0.05106   0.18350   0.00000  Uiso   1.00
H265   H     0.11329   0.12024   0.52417   0.00000  Uiso   1.00
H266   H     0.34967   0.16947   0.47837   0.00000  Uiso   1.00
H267   H     0.24889   0.01452   0.97442   0.00000  Uiso   1.00
O268   O     0.06446   0.16552   0.48089   0.00000  Uiso   1.00
O269   O     0.37459   0.23009   0.42080   0.00000  Uiso   1.00
O270   O     0.24237   0.02681   0.75962   0.00000  Uiso   1.00
N271   N     0.10574   0.17961   0.34939   0.00000  Uiso   1.00
N272   N     0.32674   0.22563   0.30659   0.00000  Uiso   1.00
N273   N     0.23253   0.08076   0.83542   0.00000  Uiso   1.00
N274   N     0.11667   0.13721   0.46263   0.00000  Uiso   1.00
N275   N     0.33767   0.18323   0.41983   0.00000  Uiso   1.00
N276   N     0.24346   0.03837   0.94867   0.00000  Uiso   1.00
C277   C     0.77931   0.83428   0.15382   0.00000  Uiso   1.00
C278   C     0.80833   0.84082   0.23538   0.00000  Uiso   1.00
C279   C     0.83880   0.82269   0.24089   0.00000  Uiso   1.00
C280   C     0.86208   0.83262   0.32139   0.00000  Uiso   1.00
C281   C     0.90818   0.83864   0.43706   0.00000  Uiso   1.00
C282   C     0.74742   0.82813   0.22360   0.00000  Uiso   1.00
C283   C     0.72669   0.79934   0.21919   0.00000  Uiso   1.00
C284   C     0.69869   0.79859   0.28976   0.00000  Uiso   1.00
C285   C     0.65022   0.78493   0.38709   0.00000  Uiso   1.00
C286   C     0.77339   0.86805   0.09375   0.00000  Uiso   1.00
C287   C     0.77448   0.87283   0.98015   0.00000  Uiso   1.00
C288   C     0.76834   0.90570   0.94140   0.00000  Uiso   1.00
C289   C     0.76020   0.95402   0.83712   0.00000  Uiso   1.00
C290   C     0.76646   0.88413   0.28699   0.00000  Uiso   1.00
C291   C     0.80134   0.86789   0.30772   0.00000  Uiso   1.00
C292   C     0.82458   0.87785   0.38823   0.00000  Uiso   1.00
C293   C     0.85509   0.85975   0.39385   0.00000  Uiso   1.00
C294   C     0.74044   0.85521   0.29593   0.00000  Uiso   1.00
C295   C     0.71246   0.85450   0.36653   0.00000  Uiso   1.00
C296   C     0.69170   0.82572   0.36223   0.00000  Uiso   1.00
C297   C     0.76641   0.89513   0.16608   0.00000  Uiso   1.00
C298   C     0.76026   0.92799   0.12750   0.00000  Uiso   1.00
C299   C     0.76135   0.93283   0.01387   0.00000  Uiso   1.00
H300   H     0.78475   0.81319   0.09751   0.00000  Uiso   1.00
H301   H     0.84420   0.80174   0.18490   0.00000  Uiso   1.00
H302   H     0.73209   0.77839   0.16319   0.00000  Uiso   1.00
H303   H     0.77989   0.85187   0.92421   0.00000  Uiso   1.00
H304   H     0.90702   0.80097   0.31371   0.00000  Uiso   1.00
H305   H     0.67064   0.75175   0.26792   0.00000  Uiso   1.00
H306   H     0.77142   0.90670   0.76396   0.00000  Uiso   1.00
H307   H     0.76102   0.90522   0.34331   0.00000  Uiso   1.00
H308   H     0.81917   0.89881   0.44419   0.00000  Uiso   1.00
H309   H     0.70707   0.87546   0.42249   0.00000  Uiso   1.00
H310   H     0.75486   0.94894   0.18350   0.00000  Uiso   1.00
H311   H     0.88671   0.87976   0.52417   0.00000  Uiso   1.00
H312   H     0.65033   0.83053   0.47837   0.00000  Uiso   1.00
H313   H     0.75111   0.98548   0.97442   0.00000  Uiso   1.00
O314   O     0.93554   0.83448   0.48089   0.00000  Uiso   1.00
O315   O     0.62541   0.76991   0.42080   0.00000  Uiso   1.00
O316   O     0.75763   0.97319   0.75962   0.00000  Uiso   1.00
N317   N     0.89426   0.82039   0.34939   0.00000  Uiso   1.00
N318   N     0.67326   0.77437   0.30659   0.00000  Uiso   1.00
N319   N     0.76747   0.91924   0.83542   0.00000  Uiso   1.00
N320   N     0.88333   0.86279   0.46263   0.00000  Uiso   1.00
N321   N     0.66233   0.81677   0.41983   0.00000  Uiso   1.00
N322   N     0.75654   0.96163   0.94867   0.00000  Uiso   1.00
C323   C     0.27931   0.33428   0.65382   0.00000  Uiso   1.00
C324   C     0.30833   0.34082   0.73538   0.00000  Uiso   1.00
C325   C     0.33880   0.32269   0.74089   0.00000  Uiso   1.00
C326   C     0.36208   0.33262   0.82139   0.00000  Uiso   1.00
C327   C     0.40818   0.33864   0.93706   0.00000  Uiso   1.00
C328   C     0.24742   0.32813   0.72360   0.00000  Uiso   1.00
C329   C     0.22669   0.29934   0.71919   0.00000  Uiso   1.00
C330   C     0.19869   0.29859   0.78976   0.00000  Uiso   1.00
C331   C     0.15022   0.28493   0.88709   0.00000  Uiso   1.00
C332   C     0.27339   0.36805   0.59375   0.00000  Uiso   1.00
C333   C     0.27448   0.37283   0.48015   0.00000  Uiso   1.00
C334   C     0.26834   0.40570   0.44140   0.00000  Uiso   1.00
C335   C     0.26020   0.45402   0.33712   0.00000  Uiso   1.00
C336   C     0.26646   0.38413   0.78699   0.00000  Uiso   1.00
C337   C     0.30134   0.36789   0.80772   0.00000  Uiso   1.00
C338   C     0.32458   0.37785   0.88823   0.00000  Uiso   1.00
C339   C     0.35509   0.35975   0.89385   0.00000  Uiso   1.00
C340   C     0.24044   0.35521   0.79593   0.00000  Uiso   1.00
C341   C     0.21246   0.35450   0.86653   0.00000  Uiso   1.00
C342   C     0.19170   0.32572   0.86223   0.00000  Uiso   1.00
C343   C     0.26641   0.39513   0.66608   0.00000  Uiso   1.00
C344   C     0.26026   0.42799   0.62750   0.00000  Uiso   1.00
C345   C     0.26135   0.43283   0.51387   0.00000  Uiso   1.00
H346   H     0.28475   0.31319   0.59751   0.00000  Uiso   1.00
H347   H     0.34420   0.30174   0.68490   0.00000  Uiso   1.00
H348   H     0.23209   0.27839   0.66319   0.00000  Uiso   1.00
H349   H     0.27989   0.35187   0.42421   0.00000  Uiso   1.00
H350   H     0.40702   0.30097   0.81371   0.00000  Uiso   1.00
H351   H     0.17064   0.25175   0.76792   0.00000  Uiso   1.00
H352   H     0.27142   0.40670   0.26396   0.00000  Uiso   1.00
H353   H     0.26102   0.40522   0.84331   0.00000  Uiso   1.00
H354   H     0.31917   0.39881   0.94419   0.00000  Uiso   1.00
H355   H     0.20707   0.37546   0.92249   0.00000  Uiso   1.00
H356   H     0.25486   0.44894   0.68350   0.00000  Uiso   1.00
H357   H     0.38671   0.37976   0.02417   0.00000  Uiso   1.00
H358   H     0.15033   0.33053   0.97837   0.00000  Uiso   1.00
H359   H     0.25111   0.48548   0.47442   0.00000  Uiso   1.00
O360   O     0.43554   0.33448   0.98089   0.00000  Uiso   1.00
O361   O     0.12541   0.26991   0.92080   0.00000  Uiso   1.00
O362   O     0.25763   0.47319   0.25962   0.00000  Uiso   1.00
N363   N     0.39426   0.32039   0.84939   0.00000  Uiso   1.00
N364   N     0.17326   0.27437   0.80659   0.00000  Uiso   1.00
N365   N     0.26747   0.41924   0.33542   0.00000  Uiso   1.00
N366   N     0.38333   0.36279   0.96263   0.00000  Uiso   1.00
N367   N     0.16233   0.31677   0.91983   0.00000  Uiso   1.00
N368   N     0.25654   0.46163   0.44867   0.00000  Uiso   1.00
C369   C     0.83428   0.22069   0.84618   0.00000  Uiso   1.00
C370   C     0.84082   0.19167   0.76462   0.00000  Uiso   1.00
C371   C     0.82269   0.16120   0.75911   0.00000  Uiso   1.00
C372   C     0.83262   0.13792   0.67861   0.00000  Uiso   1.00
C373   C     0.83864   0.09182   0.56294   0.00000  Uiso   1.00
C374   C     0.82813   0.25258   0.77640   0.00000  Uiso   1.00
C375   C     0.79934   0.27331   0.78081   0.00000  Uiso   1.00
C376   C     0.79859   0.30131   0.71024   0.00000  Uiso   1.00
C377   C     0.78493   0.34978   0.61291   0.00000  Uiso   1.00
C378   C     0.86805   0.22661   0.90625   0.00000  Uiso   1.00
C379   C     0.87283   0.22552   0.01985   0.00000  Uiso   1.00
C380   C     0.90570   0.23166   0.05860   0.00000  Uiso   1.00
C381   C     0.95402   0.23980   0.16288   0.00000  Uiso   1.00
C382   C     0.88413   0.23354   0.71301   0.00000  Uiso   1.00
C383   C     0.86789   0.19866   0.69228   0.00000  Uiso   1.00
C384   C     0.87785   0.17542   0.61177   0.00000  Uiso   1.00
C385   C     0.85975   0.14491   0.60615   0.00000  Uiso   1.00
C386   C     0.85521   0.25956   0.70407   0.00000  Uiso   1.00
C387   C     0.85450   0.28754   0.63347   0.00000  Uiso   1.00
C388   C     0.82572   0.30830   0.63777   0.00000  Uiso   1.00
C389   C     0.89513   0.23359   0.83392   0.00000  Uiso   1.00
C390   C     0.92799   0.23974   0.87250   0.00000  Uiso   1.00
C391   C     0.93283   0.23865   0.98613   0.00000  Uiso   1.00
H392   H     0.81319   0.21525   0.90249   0.00000  Uiso   1.00
H393   H     0.80174   0.15580   0.81510   0.00000  Uiso   1.00
H394   H     0.77839   0.26791   0.83681   0.00000  Uiso   1.00
H395   H     0.85187   0.22011   0.07579   0.00000  Uiso   1.00
H396   H     0.80097   0.09298   0.68629   0.00000  Uiso   1.00
H397   H     0.75175   0.32936   0.73208   0.00000  Uiso   1.00
H398   H     0.90670   0.22858   0.23604   0.00000  Uiso   1.00
H399   H     0.90522   0.23898   0.65669   0.00000  Uiso   1.00
H400   H     0.89881   0.18083   0.55581   0.00000  Uiso   1.00
H401   H     0.87546   0.29293   0.57751   0.00000  Uiso   1.00
H402   H     0.94894   0.24514   0.81650   0.00000  Uiso   1.00
H403   H     0.87976   0.11329   0.47583   0.00000  Uiso   1.00
H404   H     0.83053   0.34967   0.52163   0.00000  Uiso   1.00
H405   H     0.98548   0.24889   0.02558   0.00000  Uiso   1.00
O406   O     0.83448   0.06446   0.51911   0.00000  Uiso   1.00
O407   O     0.76991   0.37459   0.57920   0.00000  Uiso   1.00
O408   O     0.97319   0.24237   0.24038   0.00000  Uiso   1.00
N409   N     0.82039   0.10574   0.65061   0.00000  Uiso   1.00
N410   N     0.77437   0.32674   0.69341   0.00000  Uiso   1.00
N411   N     0.91924   0.23253   0.16458   0.00000  Uiso   1.00
N412   N     0.86279   0.11667   0.53737   0.00000  Uiso   1.00
N413   N     0.81677   0.33767   0.58017   0.00000  Uiso   1.00
N414   N     0.96163   0.24346   0.05133   0.00000  Uiso   1.00
C415   C     0.33428   0.72069   0.34618   0.00000  Uiso   1.00
C416   C     0.34082   0.69167   0.26462   0.00000  Uiso   1.00
C417   C     0.32269   0.66120   0.25911   0.00000  Uiso   1.00
C418   C     0.33262   0.63792   0.17861   0.00000  Uiso   1.00
C419   C     0.33864   0.59182   0.06294   0.00000  Uiso   1.00
C420   C     0.32813   0.75258   0.27640   0.00000  Uiso   1.00
C421   C     0.29934   0.77331   0.28081   0.00000  Uiso   1.00
C422   C     0.29859   0.80131   0.21024   0.00000  Uiso   1.00
C423   C     0.28493   0.84978   0.11291   0.00000  Uiso   1.00
C424   C     0.36805   0.72661   0.40625   0.00000  Uiso   1.00
C425   C     0.37283   0.72552   0.51985   0.00000  Uiso   1.00
C426   C     0.40570   0.73166   0.55860   0.00000  Uiso   1.00
C427   C     0.45402   0.73980   0.66288   0.00000  Uiso   1.00
C428   C     0.38413   0.73354   0.21301   0.00000  Uiso   1.00
C429   C     0.36789   0.69866   0.19228   0.00000  Uiso   1.00
C430   C     0.37785   0.67542   0.11177   0.00000  Uiso   1.00
C431   C     0.35975   0.64491   0.10615   0.00000  Uiso   1.00
C432   C     0.35521   0.75956   0.20407   0.00000  Uiso   1.00
C433   C     0.35450   0.78754   0.13347   0.00000  Uiso   1.00
C434   C     0.32572   0.80830   0.13777   0.00000  Uiso   1.00
C435   C     0.39513   0.73359   0.33392   0.00000  Uiso   1.00
C436   C     0.42799   0.73974   0.37250   0.00000  Uiso   1.00
C437   C     0.43283   0.73865   0.48613   0.00000  Uiso   1.00
H438   H     0.31319   0.71525   0.40249   0.00000  Uiso   1.00
H439   H     0.30174   0.65580   0.31510   0.00000  Uiso   1.00
H440   H     0.27839   0.76791   0.33681   0.00000  Uiso   1.00
H441   H     0.35187   0.72011   0.57579   0.00000  Uiso   1.00
H442   H     0.30097   0.59298   0.18629   0.00000  Uiso   1.00
H443   H     0.25175   0.82936   0.23208   0.00000  Uiso   1.00
H444   H     0.40670   0.72858   0.73604   0.00000  Uiso   1.00
H445   H     0.40522   0.73898   0.15669   0.00000  Uiso   1.00
H446   H     0.39881   0.68083   0.05581   0.00000  Uiso   1.00
H447   H     0.37546   0.79293   0.07751   0.00000  Uiso   1.00
H448   H     0.44894   0.74514   0.31650   0.00000  Uiso   1.00
H449   H     0.37976   0.61329   0.97583   0.00000  Uiso   1.00
H450   H     0.33053   0.84967   0.02163   0.00000  Uiso   1.00
H451   H     0.48548   0.74889   0.52558   0.00000  Uiso   1.00
O452   O     0.33448   0.56446   0.01911   0.00000  Uiso   1.00
O453   O     0.26991   0.87459   0.07920   0.00000  Uiso   1.00
O454   O     0.47319   0.74237   0.74038   0.00000  Uiso   1.00
N455   N     0.32039   0.60574   0.15061   0.00000  Uiso   1.00
N456   N     0.27437   0.82674   0.19341   0.00000  Uiso   1.00
N457   N     0.41924   0.73253   0.66458   0.00000  Uiso   1.00
N458   N     0.36279   0.61667   0.03737   0.00000  Uiso   1.00
N459   N     0.31677   0.83767   0.08017   0.00000  Uiso   1.00
N460   N     0.46163   0.74346   0.55133   0.00000  Uiso   1.00
C461   C     0.66572   0.27931   0.34618   0.00000  Uiso   1.00
C462   C     0.65918   0.30833   0.26462   0.00000  Uiso   1.00
C463   C     0.67731   0.33880   0.25911   0.00000  Uiso   1.00
C464   C     0.66738   0.36208   0.17861   0.00000  Uiso   1.00
C465   C     0.66136   0.40818   0.06294   0.00000  Uiso   1.00
C466   C     0.67187   0.24742   0.27640   0.00000  Uiso   1.00
C467   C     0.70066   0.22669   0.28081   0.00000  Uiso   1.00
C468   C     0.70141   0.19869   0.21024   0.00000  Uiso   1.00
C469   C     0.71507   0.15022   0.11291   0.00000  Uiso   1.00
C470   C     0.63195   0.27339   0.40625   0.00000  Uiso   1.00
C471   C     0.62717   0.27448   0.51985   0.00000  Uiso   1.00
C472   C     0.59430   0.26834   0.55860   0.00000  Uiso   1.00
C473   C     0.54598   0.26020   0.66288   0.00000  Uiso   1.00
C474   C     0.61587   0.26646   0.21301   0.00000  Uiso   1.00
C475   C     0.63211   0.30134   0.19228   0.00000  Uiso   1.00
C476   C     0.62215   0.32458   0.11177   0.00000  Uiso   1.00
C477   C     0.64025   0.35509   0.10615   0.00000  Uiso   1.00
C478   C     0.64479   0.24044   0.20407   0.00000  Uiso   1.00
C479   C     0.64550   0.21246   0.13347   0.00000  Uiso   1.00
C480   C     0.67428   0.19170   0.13777   0.00000  Uiso   1.00
C481   C     0.60487   0.26641   0.33392   0.00000  Uiso   1.00
C482   C     0.57201   0.26026   0.37250   0.00000  Uiso   1.00
C483   C     0.56717   0.26135   0.48613   0.00000  Uiso   1.00
H484   H     0.68681   0.28475   0.40249   0.00000  Uiso   1.00
H485   H     0.69826   0.34420   0.31510   0.00000  Uiso   1.00
H486   H     0.72161   0.23209   0.33681   0.00000  Uiso   1.00
H487   H     0.64813   0.27989   0.57579   0.00000  Uiso   1.00
H488   H     0.69903   0.40702   0.18629   0.00000  Uiso   1.00
H489   H     0.74825   0.17064   0.23208   0.00000  Uiso   1.00
H490   H     0.59330   0.27142   0.73604   0.00000  Uiso   1.00
H491   H     0.59478   0.26102   0.15669   0.00000  Uiso   1.00
H492   H     0.60119   0.31917   0.05581   0.00000  Uiso   1.00
H493   H     0.62454   0.20707   0.07751   0.00000  Uiso   1.00
H494   H     0.55106   0.25486   0.31650   0.00000  Uiso   1.00
H495   H     0.62024   0.38671   0.97583   0.00000  Uiso   1.00
H496   H     0.66947   0.15033   0.02163   0.00000  Uiso   1.00
H497   H     0.51452   0.25111   0.52558   0.00000  Uiso   1.00
O498   O     0.66552   0.43554   0.01911   0.00000  Uiso   1.00
O499   O     0.73009   0.12541   0.07920   0.00000  Uiso   1.00
O500   O     0.52681   0.25763   0.74038   0.00000  Uiso   1.00
N501   N     0.67961   0.39426   0.15061   0.00000  Uiso   1.00
N502   N     0.72563   0.17326   0.19341   0.00000  Uiso   1.00
N503   N     0.58076   0.26747   0.66458   0.00000  Uiso   1.00
N504   N     0.63721   0.38333   0.03737   0.00000  Uiso   1.00
N505   N     0.68323   0.16233   0.08017   0.00000  Uiso   1.00
N506   N     0.53837   0.25654   0.55133   0.00000  Uiso   1.00
C507   C     0.16572   0.77931   0.84618   0.00000  Uiso   1.00
C508   C     0.15918   0.80833   0.76462   0.00000  Uiso   1.00
C509   C     0.17731   0.83880   0.75911   0.00000  Uiso   1.00
C510   C     0.16738   0.86208   0.67861   0.00000  Uiso   1.00
C511   C     0.16136   0.90818   0.56294   0.00000  Uiso   1.00
C512   C     0.17187   0.74742   0.77640   0.00000  Uiso   1.00
C513   C     0.20066   0.72669   0.78081   0.00000  Uiso   1.00
C514   C     0.20141   0.69869   0.71024   0.00000  Uiso   1.00
C515   C     0.21507   0.65022   0.61291   0.00000  Uiso   1.00
C516   C     0.13195   0.77339   0.90625   0.00000  Uiso   1.00
C517   C     0.12717   0.77448   0.01985   0.00000  Uiso   1.00
C518   C     0.09430   0.76834   0.05860   0.00000  Uiso   1.00
C519   C     0.04598   0.76020   0.16288   0.00000  Uiso   1.00
C520   C     0.11587   0.76646   0.71301   0.00000  Uiso   1.00
C521   C     0.13211   0.80134   0.69228   0.00000  Uiso   1.00
C522   C     0.12215   0.82458   0.61177   0.00000  Uiso   1.00
C523   C     0.14025   0.85509   0.60615   0.00000  Uiso   1.00
C524   C     0.14479   0.74044   0.70407   0.00000  Uiso   1.00
C525   C     0.14550   0.71246   0.63347   0.00000  Uiso   1.00
C526   C     0.17428   0.69170   0.63777   0.00000  Uiso   1.00
C527   C     0.10487   0.76641   0.83392   0.00000  Uiso   1.00
C528   C     0.07201   0.76026   0.87250   0.00000  Uiso   1.00
C529   C     0.06717   0.76135   0.98613   0.00000  Uiso   1.00
H530   H     0.18681   0.78475   0.90249   0.00000  Uiso   1.00
H531   H     0.19826   0.84420   0.81510   0.00000  Uiso   1.00
H532   H     0.22161   0.73209   0.83681   0.00000  Uiso   1.00
H533   H     0.14813   0.77989   0.07579   0.00000  Uiso   1.00
H534   H     0.19903   0.90702   0.68629   0.00000  Uiso   1.00
H535   H     0.24825   0.67064   0.73208   0.00000  Uiso   1.00
H536   H     0.09330   0.77142   0.23604   0.00000  Uiso   1.00
H537   H     0.09478   0.76102   0.65669   0.00000  Uiso   1.00
H538   H     0.10119   0.81917   0.55581   0.00000  Uiso   1.00
H539   H     0.12454   0.70707   0.57751   0.00000  Uiso   1.00
H540   H     0.05106   0.75486   0.81650   0.00000  Uiso   1.00
H541   H     0.12024   0.88671   0.47583   0.00000  Uiso   1.00
H542   H     0.16947   0.65033   0.52163   0.00000  Uiso   1.00
H543   H     0.01452   0.75111   0.02558   0.00000  Uiso   1.00
O544   O     0.16552   0.93554   0.51911   0.00000  Uiso   1.00
O545   O     0.23009   0.62541   0.57920   0.00000  Uiso   1.00
O546   O     0.02681   0.75763   0.24038   0.00000  Uiso   1.00
N547   N     0.17961   0.89426   0.65061   0.00000  Uiso   1.00
N548   N     0.22563   0.67326   0.69341   0.00000  Uiso   1.00
N549   N     0.08076   0.76747   0.16458   0.00000  Uiso   1.00
N550   N     0.13721   0.88333   0.53737   0.00000  Uiso   1.00
N551   N     0.18323   0.66233   0.58017   0.00000  Uiso   1.00
N552   N     0.03837   0.75654   0.05133   0.00000  Uiso   1.00
C553   C     0.27931   0.83428   0.59618   0.00000  Uiso   1.00
C554   C     0.30833   0.84082   0.51462   0.00000  Uiso   1.00
C555   C     0.33880   0.82269   0.50911   0.00000  Uiso   1.00
C556   C     0.36208   0.83262   0.42861   0.00000  Uiso   1.00
C557   C     0.40818   0.83864   0.31294   0.00000  Uiso   1.00
C558   C     0.24742   0.82813   0.52640   0.00000  Uiso   1.00
C559   C     0.22669   0.79934   0.53081   0.00000  Uiso   1.00
C560   C     0.19869   0.79859   0.46024   0.00000  Uiso   1.00
C561   C     0.15022   0.78493   0.36291   0.00000  Uiso   1.00
C562   C     0.27339   0.86805   0.65625   0.00000  Uiso   1.00
C563   C     0.27448   0.87283   0.76985   0.00000  Uiso   1.00
C564   C     0.26834   0.90570   0.80860   0.00000  Uiso   1.00
C565   C     0.26020   0.95402   0.91288   0.00000  Uiso   1.00
C566   C     0.26646   0.88413   0.46301   0.00000  Uiso   1.00
C567   C     0.30134   0.86789   0.44228   0.00000  Uiso   1.00
C568   C     0.32458   0.87785   0.36177   0.00000  Uiso   1.00
C569   C     0.35509   0.85975   0.35615   0.00000  Uiso   1.00
C570   C     0.24044   0.85521   0.45407   0.00000  Uiso   1.00
C571   C     0.21246   0.85450   0.38347   0.00000  Uiso   1.00
C572   C     0.19170   0.82572   0.38777   0.00000  Uiso   1.00
C573   C     0.26641   0.89513   0.58392   0.00000  Uiso   1.00
C574   C     0.26026   0.92799   0.62250   0.00000  Uiso   1.00
C575   C     0.26135   0.93283   0.73613   0.00000  Uiso   1.00
H576   H     0.28475   0.81319   0.65249   0.00000  Uiso   1.00
H577   H     0.34420   0.80174   0.56510   0.00000  Uiso   1.00
H578   H     0.23209   0.77839   0.58681   0.00000  Uiso   1.00
H579   H     0.27989   0.85187   0.82579   0.00000  Uiso   1.00
H580   H     0.40702   0.80097   0.43629   0.00000  Uiso   1.00
H581   H     0.17064   0.75175   0.48208   0.00000  Uiso   1.00
H582   H     0.27142   0.90670   0.98604   0.00000  Uiso   1.00
H583   H     0.26102   0.90522   0.40669   0.00000  Uiso   1.00
H584   H     0.31917   0.89881   0.30581   0.00000  Uiso   1.00
H585   H     0.20707   0.87546   0.32751   0.00000  Uiso   1.00
H586   H     0.25486   0.94894   0.56650   0.00000  Uiso   1.00
H587   H     0.38671   0.87976   0.22583   0.00000  Uiso   1.00
H588   H     0.15033   0.83053   0.27163   0.00000  Uiso   1.00
H589   H     0.25111   0.98548   0.77558   0.00000  Uiso   1.00
O590   O     0.43554   0.83448   0.26911   0.00000  Uiso   1.00
O591   O     0.12541   0.76991   0.32920   0.00000  Uiso   1.00
O592   O     0.25763   0.97319   0.99038   0.00000  Uiso   1.00
N593   N     0.39426   0.82039   0.40061   0.00000  Uiso   1.00
N594   N     0.17326   0.77437   0.44341   0.00000  Uiso   1.00
N595   N     0.26747   0.91924   0.91458   0.00000  Uiso   1.00
N596   N     0.38333   0.86279   0.28737   0.00000  Uiso   1.00
N597   N     0.16233   0.81677   0.33017   0.00000  Uiso   1.00
N598   N     0.25654   0.96163   0.80133   0.00000  Uiso   1.00
C599   C     0.77931   0.33428   0.09618   0.00000  Uiso   1.00
C600   C     0.80833   0.34082   0.01462   0.00000  Uiso   1.00
C601   C     0.83880   0.32269   0.00911   0.00000  Uiso   1.00
C602   C     0.86208   0.33262   0.92861   0.00000  Uiso   1.00
C603   C     0.90818   0.33864   0.81294   0.00000  Uiso   1.00
C604   C     0.74742   0.32813   0.02640   0.00000  Uiso   1.00
C605   C     0.72669   0.29934   0.03081   0.00000  Uiso   1.00
C606   C     0.69869   0.29859   0.96024   0.00000  Uiso   1.00
C607   C     0.65022   0.28493   0.86291   0.00000  Uiso   1.00
C608   C     0.77339   0.36805   0.15625   0.00000  Uiso   1.00
C609   C     0.77448   0.37283   0.26985   0.00000  Uiso   1.00
C610   C     0.76834   0.40570   0.30860   0.00000  Uiso   1.00
C611   C     0.76020   0.45402   0.41288   0.00000  Uiso   1.00
C612   C     0.76646   0.38413   0.96301   0.00000  Uiso   1.00
C613   C     0.80134   0.36789   0.94228   0.00000  Uiso   1.00
C614   C     0.82458   0.37785   0.86177   0.00000  Uiso   1.00
C615   C     0.85509   0.35975   0.85615   0.00000  Uiso   1.00
C616   C     0.74044   0.35521   0.95407   0.00000  Uiso   1.00
C617   C     0.71246   0.35450   0.88347   0.00000  Uiso   1.00
C618   C     0.69170   0.32572   0.88777   0.00000  Uiso   1.00
C619   C     0.76641   0.39513   0.08392   0.00000  Uiso   1.00
C620   C     0.76026   0.42799   0.12250   0.00000  Uiso   1.00
C621   C     0.76135   0.43283   0.23613   0.00000  Uiso   1.00
H622   H     0.78475   0.31319   0.15249   0.00000  Uiso   1.00
H623   H     0.84420   0.30174   0.06510   0.00000  Uiso   1.00
H624   H     0.73209   0.27839   0.08681   0.00000  Uiso   1.00
H625   H     0.77989   0.35187   0.32579   0.00000  Uiso   1.00
H626   H     0.90702   0.30097   0.93629   0.00000  Uiso   1.00
H627   H     0.67064   0.25175   0.98208   0.00000  Uiso   1.00
H628   H     0.77142   0.40670   0.48604   0.00000  Uiso   1.00
H629   H     0.76102   0.40522   0.90669   0.00000  Uiso   1.00
H630   H     0.81917   0.39881   0.80581   0.00000  Uiso   1.00
H631   H     0.70707   0.37546   0.82751   0.00000  Uiso   1.00
H632   H     0.75486   0.44894   0.06650   0.00000  Uiso   1.00
H633   H     0.88671   0.37976   0.72583   0.00000  Uiso   1.00
H634   H     0.65033   0.33053   0.77163   0.00000  Uiso   1.00
H635   H     0.75111   0.48548   0.27558   0.00000  Uiso   1.00
O636   O     0.93554   0.33448   0.76911   0.00000  Uiso   1.00
O637   O     0.62541   0.26991   0.82920   0.00000  Uiso   1.00
O638   O     0.75763   0.47319   0.49038   0.00000  Uiso   1.00
N639   N     0.89426   0.32039   0.90061   0.00000  Uiso   1.00
N640   N     0.67326   0.27437   0.94341   0.00000  Uiso   1.00
N641   N     0.76747   0.41924   0.41458   0.00000  Uiso   1.00
N642   N     0.88333   0.36279   0.78737   0.00000  Uiso   1.00
N643   N     0.66233   0.31677   0.83017   0.00000  Uiso   1.00
N644   N     0.75654   0.46163   0.30133   0.00000  Uiso   1.00
C645   C     0.22069   0.66572   0.09618   0.00000  Uiso   1.00
C646   C     0.19167   0.65918   0.01462   0.00000  Uiso   1.00
C647   C     0.16120   0.67731   0.00911   0.00000  Uiso   1.00
C648   C     0.13792   0.66738   0.92861   0.00000  Uiso   1.00
C649   C     0.09182   0.66136   0.81294   0.00000  Uiso   1.00
C650   C     0.25258   0.67187   0.02640   0.00000  Uiso   1.00
C651   C     0.27331   0.70066   0.03081   0.00000  Uiso   1.00
C652   C     0.30131   0.70141   0.96024   0.00000  Uiso   1.00
C653   C     0.34978   0.71507   0.86291   0.00000  Uiso   1.00
C654   C     0.22661   0.63195   0.15625   0.00000  Uiso   1.00
C655   C     0.22552   0.62717   0.26985   0.00000  Uiso   1.00
C656   C     0.23166   0.59430   0.30860   0.00000  Uiso   1.00
C657   C     0.23980   0.54598   0.41288   0.00000  Uiso   1.00
C658   C     0.23354   0.61587   0.96301   0.00000  Uiso   1.00
C659   C     0.19866   0.63211   0.94228   0.00000  Uiso   1.00
C660   C     0.17542   0.62215   0.86177   0.00000  Uiso   1.00
C661   C     0.14491   0.64025   0.85615   0.00000  Uiso   1.00
C662   C     0.25956   0.64479   0.95407   0.00000  Uiso   1.00
C663   C     0.28754   0.64550   0.88347   0.00000  Uiso   1.00
C664   C     0.30830   0.67428   0.88777   0.00000  Uiso   1.00
C665   C     0.23359   0.60487   0.08392   0.00000  Uiso   1.00
C666   C     0.23974   0.57201   0.12250   0.00000  Uiso   1.00
C667   C     0.23865   0.56717   0.23613   0.00000  Uiso   1.00
H668   H     0.21525   0.68681   0.15249   0.00000  Uiso   1.00
H669   H     0.15580   0.69826   0.06510   0.00000  Uiso   1.00
H670   H     0.26791   0.72161   0.08681   0.00000  Uiso   1.00
H671   H     0.22011   0.64813   0.32579   0.00000  Uiso   1.00
H672   H     0.09298   0.69903   0.93629   0.00000  Uiso   1.00
H673   H     0.32936   0.74825   0.98208   0.00000  Uiso   1.00
H674   H     0.22858   0.59330   0.48604   0.00000  Uiso   1.00
H675   H     0.23898   0.59478   0.90669   0.00000  Uiso   1.00
H676   H     0.18083   0.60119   0.80581   0.00000  Uiso   1.00
H677   H     0.29293   0.62454   0.82751   0.00000  Uiso   1.00
H678   H     0.24514   0.55106   0.06650   0.00000  Uiso   1.00
H679   H     0.11329   0.62024   0.72583   0.00000  Uiso   1.00
H680   H     0.34967   0.66947   0.77163   0.00000  Uiso   1.00
H681   H     0.24889   0.51452   0.27558   0.00000  Uiso   1.00
O682   O     0.06446   0.66552   0.76911   0.00000  Uiso   1.00
O683   O     0.37459   0.73009   0.82920   0.00000  Uiso   1.00
O684   O     0.24237   0.52681   0.49038   0.00000  Uiso   1.00
N685   N     0.10574   0.67961   0.90061   0.00000  Uiso   1.00
N686   N     0.32674   0.72563   0.94341   0.00000  Uiso   1.00
N687   N     0.23253   0.58076   0.41458   0.00000  Uiso   1.00
N688   N     0.11667   0.63721   0.78737   0.00000  Uiso   1.00
N689   N     0.33767   0.68323   0.83017   0.00000  Uiso   1.00
N690   N     0.24346   0.53837   0.30133   0.00000  Uiso   1.00
C691   C     0.72069   0.16572   0.59618   0.00000  Uiso   1.00
C692   C     0.69167   0.15918   0.51462   0.00000  Uiso   1.00
C693   C     0.66120   0.17731   0.50911   0.00000  Uiso   1.00
C694   C     0.63792   0.16738   0.42861   0.00000  Uiso   1.00
C695   C     0.59182   0.16136   0.31294   0.00000  Uiso   1.00
C696   C     0.75258   0.17187   0.52640   0.00000  Uiso   1.00
C697   C     0.77331   0.20066   0.53081   0.00000  Uiso   1.00
C698   C     0.80131   0.20141   0.46024   0.00000  Uiso   1.00
C699   C     0.84978   0.21507   0.36291   0.00000  Uiso   1.00
C700   C     0.72661   0.13195   0.65625   0.00000  Uiso   1.00
C701   C     0.72552   0.12717   0.76985   0.00000  Uiso   1.00
C702   C     0.73166   0.09430   0.80860   0.00000  Uiso   1.00
C703   C     0.73980   0.04598   0.91288   0.00000  Uiso   1.00
C704   C     0.73354   0.11587   0.46301   0.00000  Uiso   1.00
C705   C     0.69866   0.13211   0.44228   0.00000  Uiso   1.00
C706   C     0.67542   0.12215   0.36177   0.00000  Uiso   1.00
C707   C     0.64491   0.14025   0.35615   0.00000  Uiso   1.00
C708   C     0.75956   0.14479   0.45407   0.00000  Uiso   1.00
C709   C     0.78754   0.14550   0.38347   0.00000  Uiso   1.00
C710   C     0.80830   0.17428   0.38777   0.00000  Uiso   1.00
C711   C     0.73359   0.10487   0.58392   0.00000  Uiso   1.00
C712   C     0.73974   0.07201   0.62250   0.00000  Uiso   1.00
C713   C     0.73865   0.06717   0.73613   0.00000  Uiso   1.00
H714   H     0.71525   0.18681   0.65249   0.00000  Uiso   1.00
H715   H     0.65580   0.19826   0.56510   0.00000  Uiso   1.00
H716   H     0.76791   0.22161   0.58681   0.00000  Uiso   1.00
H717   H     0.72011   0.14813   0.82579   0.00000  Uiso   1.00
H718   H     0.59298   0.19903   0.43629   0.00000  Uiso   1.00
H719   H     0.82936   0.24825   0.48208   0.00000  Uiso   1.00
H720   H     0.72858   0.09330   0.98604   0.00000  Uiso   1.00
H721   H     0.73898   0.09478   0.40669   0.00000  Uiso   1.00
H722   H     0.68083   0.10119   0.30581   0.00000  Uiso   1.00
H723   H     0.79293   0.12454   0.32751   0.00000  Uiso   1.00
H724   H     0.74514   0.05106   0.56650   0.00000  Uiso   1.00
H725   H     0.61329   0.12024   0.22583   0.00000  Uiso   1.00
H726   H     0.84967   0.16947   0.27163   0.00000  Uiso   1.00
H727   H     0.74889   0.01452   0.77558   0.00000  Uiso   1.00
O728   O     0.56446   0.16552   0.26911   0.00000  Uiso   1.00
O729   O     0.87459   0.23009   0.32920   0.00000  Uiso   1.00
O730   O     0.74237   0.02681   0.99038   0.00000  Uiso   1.00
N731   N     0.60574   0.17961   0.40061   0.00000  Uiso   1.00
N732   N     0.82674   0.22563   0.44341   0.00000  Uiso   1.00
N733   N     0.73253   0.08076   0.91458   0.00000  Uiso   1.00
N734   N     0.61667   0.13721   0.28737   0.00000  Uiso   1.00
N735   N     0.83767   0.18323   0.33017   0.00000  Uiso   1.00
N736   N     0.74346   0.03837   0.80133   0.00000  Uiso   1.00
