data_job_03544
_audit_creation_date              2018-12-19
_audit_creation_method            'Materials Studio'
_symmetry_space_group_name_H-M    'P1'
_symmetry_Int_Tables_number       1
_symmetry_cell_setting            triclinic
loop_
_symmetry_equiv_pos_as_xyz
  x,y,z
_cell_length_a                    18.4762
_cell_length_b                    18.4762
_cell_length_c                    29.1284
_cell_angle_alpha                 90.0000
_cell_angle_beta                  90.0000
_cell_angle_gamma                 90.0000
loop_
_atom_site_label
_atom_site_type_symbol
_atom_site_fract_x
_atom_site_fract_y
_atom_site_fract_z
_atom_site_U_iso_or_equiv
_atom_site_adp_type
_atom_site_occupancy
C1     C     0.19305   0.38991   0.73081   0.00000  Uiso   1.00
C2     C     0.23560   0.44690   0.75737   0.00000  Uiso   1.00
C3     C     0.20958   0.48758   0.79386   0.00000  Uiso   1.00
C4     C     0.25698   0.53694   0.81356   0.00000  Uiso   1.00
C5     C     0.31226   0.62420   0.85726   0.00000  Uiso   1.00
C6     C     0.19583   0.41300   0.68058   0.00000  Uiso   1.00
C7     C     0.13637   0.42517   0.65251   0.00000  Uiso   1.00
C8     C     0.15029   0.44597   0.60756   0.00000  Uiso   1.00
C9     C     0.14383   0.48054   0.53203   0.00000  Uiso   1.00
C10    C     0.23712   0.32030   0.73399   0.00000  Uiso   1.00
C11    C     0.21238   0.25453   0.75080   0.00000  Uiso   1.00
C12    C     0.26106   0.19728   0.75081   0.00000  Uiso   1.00
C13    C     0.31870   0.08793   0.75820   0.00000  Uiso   1.00
C14    C     0.32350   0.40520   0.70091   0.00000  Uiso   1.00
C15    C     0.30646   0.45521   0.74113   0.00000  Uiso   1.00
C16    C     0.35391   0.50451   0.76078   0.00000  Uiso   1.00
C17    C     0.32796   0.54526   0.79729   0.00000  Uiso   1.00
C18    C     0.26668   0.42131   0.66434   0.00000  Uiso   1.00
C19    C     0.28070   0.44209   0.61942   0.00000  Uiso   1.00
C20    C     0.22128   0.45429   0.59129   0.00000  Uiso   1.00
C21    C     0.30798   0.32861   0.71775   0.00000  Uiso   1.00
C22    C     0.35671   0.27145   0.71772   0.00000  Uiso   1.00
C23    C     0.33204   0.20560   0.73454   0.00000  Uiso   1.00
H24    H     0.13789   0.38344   0.74345   0.00000  Uiso   1.00
H25    H     0.15474   0.48114   0.80642   0.00000  Uiso   1.00
H26    H     0.08155   0.41873   0.66508   0.00000  Uiso   1.00
H27    H     0.15754   0.24812   0.76337   0.00000  Uiso   1.00
H28    H     0.20466   0.59315   0.86905   0.00000  Uiso   1.00
H29    H     0.05033   0.46152   0.57104   0.00000  Uiso   1.00
H30    H     0.21058   0.10175   0.77829   0.00000  Uiso   1.00
H31    H     0.37867   0.41167   0.68826   0.00000  Uiso   1.00
H32    H     0.40874   0.51092   0.74820   0.00000  Uiso   1.00
H33    H     0.33554   0.44851   0.60687   0.00000  Uiso   1.00
H34    H     0.41154   0.27790   0.70515   0.00000  Uiso   1.00
H35    H     0.41082   0.61733   0.82180   0.00000  Uiso   1.00
H36    H     0.25647   0.48569   0.52379   0.00000  Uiso   1.00
H37    H     0.41673   0.12592   0.73104   0.00000  Uiso   1.00
O38    O     0.32317   0.67004   0.88584   0.00000  Uiso   1.00
O39    O     0.12068   0.49733   0.49486   0.00000  Uiso   1.00
O40    O     0.33093   0.02533   0.76677   0.00000  Uiso   1.00
N41    N     0.24906   0.58521   0.84971   0.00000  Uiso   1.00
N42    N     0.10476   0.46215   0.57109   0.00000  Uiso   1.00
N43    N     0.25458   0.12579   0.76484   0.00000  Uiso   1.00
N44    N     0.35999   0.59822   0.82429   0.00000  Uiso   1.00
N45    N     0.21569   0.47516   0.54566   0.00000  Uiso   1.00
N46    N     0.36551   0.13880   0.73942   0.00000  Uiso   1.00
C47    C     0.69305   0.88991   0.23081   0.00000  Uiso   1.00
C48    C     0.73560   0.94690   0.25737   0.00000  Uiso   1.00
C49    C     0.70958   0.98758   0.29386   0.00000  Uiso   1.00
C50    C     0.75698   0.03694   0.31356   0.00000  Uiso   1.00
C51    C     0.81226   0.12420   0.35726   0.00000  Uiso   1.00
C52    C     0.69583   0.91300   0.18058   0.00000  Uiso   1.00
C53    C     0.63637   0.92517   0.15251   0.00000  Uiso   1.00
C54    C     0.65029   0.94597   0.10756   0.00000  Uiso   1.00
C55    C     0.64383   0.98054   0.03203   0.00000  Uiso   1.00
C56    C     0.73712   0.82030   0.23399   0.00000  Uiso   1.00
C57    C     0.71238   0.75453   0.25080   0.00000  Uiso   1.00
C58    C     0.76106   0.69728   0.25081   0.00000  Uiso   1.00
C59    C     0.81870   0.58793   0.25820   0.00000  Uiso   1.00
C60    C     0.82350   0.90520   0.20091   0.00000  Uiso   1.00
C61    C     0.80646   0.95521   0.24113   0.00000  Uiso   1.00
C62    C     0.85391   0.00451   0.26078   0.00000  Uiso   1.00
C63    C     0.82796   0.04526   0.29729   0.00000  Uiso   1.00
C64    C     0.76668   0.92131   0.16434   0.00000  Uiso   1.00
C65    C     0.78070   0.94209   0.11942   0.00000  Uiso   1.00
C66    C     0.72128   0.95429   0.09129   0.00000  Uiso   1.00
C67    C     0.80798   0.82861   0.21775   0.00000  Uiso   1.00
C68    C     0.85671   0.77145   0.21772   0.00000  Uiso   1.00
C69    C     0.83204   0.70560   0.23454   0.00000  Uiso   1.00
H70    H     0.63789   0.88344   0.24345   0.00000  Uiso   1.00
H71    H     0.65474   0.98114   0.30642   0.00000  Uiso   1.00
H72    H     0.58155   0.91873   0.16508   0.00000  Uiso   1.00
H73    H     0.65754   0.74812   0.26337   0.00000  Uiso   1.00
H74    H     0.70466   0.09315   0.36905   0.00000  Uiso   1.00
H75    H     0.55033   0.96152   0.07104   0.00000  Uiso   1.00
H76    H     0.71058   0.60175   0.27829   0.00000  Uiso   1.00
H77    H     0.87867   0.91167   0.18826   0.00000  Uiso   1.00
H78    H     0.90874   0.01092   0.24820   0.00000  Uiso   1.00
H79    H     0.83554   0.94851   0.10687   0.00000  Uiso   1.00
H80    H     0.91154   0.77790   0.20515   0.00000  Uiso   1.00
H81    H     0.91082   0.11733   0.32180   0.00000  Uiso   1.00
H82    H     0.75647   0.98569   0.02379   0.00000  Uiso   1.00
H83    H     0.91673   0.62592   0.23104   0.00000  Uiso   1.00
O84    O     0.82317   0.17004   0.38584   0.00000  Uiso   1.00
O85    O     0.62068   0.99733   0.99486   0.00000  Uiso   1.00
O86    O     0.83093   0.52533   0.26677   0.00000  Uiso   1.00
N87    N     0.74906   0.08521   0.34971   0.00000  Uiso   1.00
N88    N     0.60476   0.96215   0.07109   0.00000  Uiso   1.00
N89    N     0.75458   0.62579   0.26484   0.00000  Uiso   1.00
N90    N     0.85999   0.09822   0.32429   0.00000  Uiso   1.00
N91    N     0.71569   0.97516   0.04566   0.00000  Uiso   1.00
N92    N     0.86551   0.63880   0.23942   0.00000  Uiso   1.00
C93    C     0.30695   0.11009   0.23081   0.00000  Uiso   1.00
C94    C     0.26440   0.05310   0.25737   0.00000  Uiso   1.00
C95    C     0.29042   0.01242   0.29386   0.00000  Uiso   1.00
C96    C     0.24302   0.96306   0.31356   0.00000  Uiso   1.00
C97    C     0.18774   0.87580   0.35726   0.00000  Uiso   1.00
C98    C     0.30417   0.08700   0.18058   0.00000  Uiso   1.00
C99    C     0.36363   0.07483   0.15251   0.00000  Uiso   1.00
C100   C     0.34971   0.05403   0.10756   0.00000  Uiso   1.00
C101   C     0.35617   0.01946   0.03203   0.00000  Uiso   1.00
C102   C     0.26288   0.17970   0.23399   0.00000  Uiso   1.00
C103   C     0.28762   0.24547   0.25080   0.00000  Uiso   1.00
C104   C     0.23894   0.30272   0.25081   0.00000  Uiso   1.00
C105   C     0.18130   0.41207   0.25820   0.00000  Uiso   1.00
C106   C     0.17650   0.09480   0.20091   0.00000  Uiso   1.00
C107   C     0.19354   0.04479   0.24113   0.00000  Uiso   1.00
C108   C     0.14609   0.99549   0.26078   0.00000  Uiso   1.00
C109   C     0.17204   0.95474   0.29729   0.00000  Uiso   1.00
C110   C     0.23332   0.07869   0.16434   0.00000  Uiso   1.00
C111   C     0.21930   0.05791   0.11942   0.00000  Uiso   1.00
C112   C     0.27872   0.04571   0.09129   0.00000  Uiso   1.00
C113   C     0.19202   0.17139   0.21775   0.00000  Uiso   1.00
C114   C     0.14329   0.22855   0.21772   0.00000  Uiso   1.00
C115   C     0.16796   0.29440   0.23454   0.00000  Uiso   1.00
H116   H     0.36211   0.11656   0.24345   0.00000  Uiso   1.00
H117   H     0.34526   0.01886   0.30642   0.00000  Uiso   1.00
H118   H     0.41845   0.08127   0.16508   0.00000  Uiso   1.00
H119   H     0.34246   0.25188   0.26337   0.00000  Uiso   1.00
H120   H     0.29534   0.90685   0.36905   0.00000  Uiso   1.00
H121   H     0.44967   0.03848   0.07104   0.00000  Uiso   1.00
H122   H     0.28942   0.39825   0.27829   0.00000  Uiso   1.00
H123   H     0.12133   0.08833   0.18826   0.00000  Uiso   1.00
H124   H     0.09126   0.98908   0.24820   0.00000  Uiso   1.00
H125   H     0.16446   0.05149   0.10687   0.00000  Uiso   1.00
H126   H     0.08846   0.22210   0.20515   0.00000  Uiso   1.00
H127   H     0.08918   0.88267   0.32180   0.00000  Uiso   1.00
H128   H     0.24353   0.01431   0.02379   0.00000  Uiso   1.00
H129   H     0.08327   0.37408   0.23104   0.00000  Uiso   1.00
O130   O     0.17683   0.82996   0.38584   0.00000  Uiso   1.00
O131   O     0.37932   0.00267   0.99486   0.00000  Uiso   1.00
O132   O     0.16907   0.47467   0.26677   0.00000  Uiso   1.00
N133   N     0.25094   0.91479   0.34971   0.00000  Uiso   1.00
N134   N     0.39524   0.03785   0.07109   0.00000  Uiso   1.00
N135   N     0.24542   0.37421   0.26484   0.00000  Uiso   1.00
N136   N     0.14001   0.90178   0.32429   0.00000  Uiso   1.00
N137   N     0.28431   0.02484   0.04566   0.00000  Uiso   1.00
N138   N     0.13449   0.36120   0.23942   0.00000  Uiso   1.00
C139   C     0.80695   0.61009   0.73081   0.00000  Uiso   1.00
C140   C     0.76440   0.55310   0.75737   0.00000  Uiso   1.00
C141   C     0.79042   0.51242   0.79386   0.00000  Uiso   1.00
C142   C     0.74302   0.46306   0.81356   0.00000  Uiso   1.00
C143   C     0.68774   0.37580   0.85726   0.00000  Uiso   1.00
C144   C     0.80417   0.58700   0.68058   0.00000  Uiso   1.00
C145   C     0.86363   0.57483   0.65251   0.00000  Uiso   1.00
C146   C     0.84971   0.55403   0.60756   0.00000  Uiso   1.00
C147   C     0.85617   0.51946   0.53203   0.00000  Uiso   1.00
C148   C     0.76288   0.67970   0.73399   0.00000  Uiso   1.00
C149   C     0.78762   0.74547   0.75080   0.00000  Uiso   1.00
C150   C     0.73894   0.80272   0.75081   0.00000  Uiso   1.00
C151   C     0.68130   0.91207   0.75820   0.00000  Uiso   1.00
C152   C     0.67650   0.59480   0.70091   0.00000  Uiso   1.00
C153   C     0.69354   0.54479   0.74113   0.00000  Uiso   1.00
C154   C     0.64609   0.49549   0.76078   0.00000  Uiso   1.00
C155   C     0.67204   0.45474   0.79729   0.00000  Uiso   1.00
C156   C     0.73332   0.57869   0.66434   0.00000  Uiso   1.00
C157   C     0.71930   0.55791   0.61942   0.00000  Uiso   1.00
C158   C     0.77872   0.54571   0.59129   0.00000  Uiso   1.00
C159   C     0.69202   0.67139   0.71775   0.00000  Uiso   1.00
C160   C     0.64329   0.72855   0.71772   0.00000  Uiso   1.00
C161   C     0.66796   0.79440   0.73454   0.00000  Uiso   1.00
H162   H     0.86211   0.61656   0.74345   0.00000  Uiso   1.00
H163   H     0.84526   0.51886   0.80642   0.00000  Uiso   1.00
H164   H     0.91845   0.58127   0.66508   0.00000  Uiso   1.00
H165   H     0.84246   0.75188   0.76337   0.00000  Uiso   1.00
H166   H     0.79534   0.40685   0.86905   0.00000  Uiso   1.00
H167   H     0.94967   0.53848   0.57104   0.00000  Uiso   1.00
H168   H     0.78942   0.89825   0.77829   0.00000  Uiso   1.00
H169   H     0.62133   0.58833   0.68826   0.00000  Uiso   1.00
H170   H     0.59126   0.48908   0.74820   0.00000  Uiso   1.00
H171   H     0.66446   0.55149   0.60687   0.00000  Uiso   1.00
H172   H     0.58846   0.72210   0.70515   0.00000  Uiso   1.00
H173   H     0.58918   0.38267   0.82180   0.00000  Uiso   1.00
H174   H     0.74353   0.51431   0.52379   0.00000  Uiso   1.00
H175   H     0.58327   0.87408   0.73104   0.00000  Uiso   1.00
O176   O     0.67683   0.32996   0.88584   0.00000  Uiso   1.00
O177   O     0.87932   0.50267   0.49486   0.00000  Uiso   1.00
O178   O     0.66907   0.97467   0.76677   0.00000  Uiso   1.00
N179   N     0.75094   0.41479   0.84971   0.00000  Uiso   1.00
N180   N     0.89524   0.53785   0.57109   0.00000  Uiso   1.00
N181   N     0.74542   0.87421   0.76484   0.00000  Uiso   1.00
N182   N     0.64001   0.40178   0.82429   0.00000  Uiso   1.00
N183   N     0.78431   0.52484   0.54566   0.00000  Uiso   1.00
N184   N     0.63449   0.86120   0.73942   0.00000  Uiso   1.00
C185   C     0.61009   0.69305   0.98081   0.00000  Uiso   1.00
C186   C     0.55310   0.73560   0.00737   0.00000  Uiso   1.00
C187   C     0.51242   0.70958   0.04386   0.00000  Uiso   1.00
C188   C     0.46306   0.75698   0.06356   0.00000  Uiso   1.00
C189   C     0.37580   0.81226   0.10726   0.00000  Uiso   1.00
C190   C     0.58700   0.69583   0.93058   0.00000  Uiso   1.00
C191   C     0.57483   0.63637   0.90251   0.00000  Uiso   1.00
C192   C     0.55403   0.65029   0.85756   0.00000  Uiso   1.00
C193   C     0.51946   0.64383   0.78203   0.00000  Uiso   1.00
C194   C     0.67970   0.73712   0.98399   0.00000  Uiso   1.00
C195   C     0.74547   0.71238   0.00080   0.00000  Uiso   1.00
C196   C     0.80272   0.76106   0.00081   0.00000  Uiso   1.00
C197   C     0.91207   0.81870   0.00820   0.00000  Uiso   1.00
C198   C     0.59480   0.82350   0.95091   0.00000  Uiso   1.00
C199   C     0.54479   0.80646   0.99113   0.00000  Uiso   1.00
C200   C     0.49549   0.85391   0.01078   0.00000  Uiso   1.00
C201   C     0.45474   0.82796   0.04729   0.00000  Uiso   1.00
C202   C     0.57869   0.76668   0.91434   0.00000  Uiso   1.00
C203   C     0.55791   0.78070   0.86942   0.00000  Uiso   1.00
C204   C     0.54571   0.72128   0.84129   0.00000  Uiso   1.00
C205   C     0.67139   0.80798   0.96775   0.00000  Uiso   1.00
C206   C     0.72855   0.85671   0.96772   0.00000  Uiso   1.00
C207   C     0.79440   0.83204   0.98454   0.00000  Uiso   1.00
H208   H     0.61656   0.63789   0.99345   0.00000  Uiso   1.00
H209   H     0.51886   0.65474   0.05642   0.00000  Uiso   1.00
H210   H     0.58127   0.58155   0.91508   0.00000  Uiso   1.00
H211   H     0.75188   0.65754   0.01337   0.00000  Uiso   1.00
H212   H     0.40685   0.70466   0.11905   0.00000  Uiso   1.00
H213   H     0.53848   0.55033   0.82104   0.00000  Uiso   1.00
H214   H     0.89825   0.71058   0.02829   0.00000  Uiso   1.00
H215   H     0.58833   0.87867   0.93826   0.00000  Uiso   1.00
H216   H     0.48908   0.90874   0.99820   0.00000  Uiso   1.00
H217   H     0.55149   0.83554   0.85687   0.00000  Uiso   1.00
H218   H     0.72210   0.91154   0.95515   0.00000  Uiso   1.00
H219   H     0.38267   0.91082   0.07180   0.00000  Uiso   1.00
H220   H     0.51431   0.75647   0.77379   0.00000  Uiso   1.00
H221   H     0.87408   0.91673   0.98104   0.00000  Uiso   1.00
O222   O     0.32996   0.82317   0.13584   0.00000  Uiso   1.00
O223   O     0.50267   0.62068   0.74486   0.00000  Uiso   1.00
O224   O     0.97467   0.83093   0.01677   0.00000  Uiso   1.00
N225   N     0.41479   0.74906   0.09971   0.00000  Uiso   1.00
N226   N     0.53785   0.60476   0.82109   0.00000  Uiso   1.00
N227   N     0.87421   0.75458   0.01484   0.00000  Uiso   1.00
N228   N     0.40178   0.85999   0.07429   0.00000  Uiso   1.00
N229   N     0.52484   0.71569   0.79566   0.00000  Uiso   1.00
N230   N     0.86120   0.86551   0.98942   0.00000  Uiso   1.00
C231   C     0.11009   0.19305   0.48081   0.00000  Uiso   1.00
C232   C     0.05310   0.23560   0.50737   0.00000  Uiso   1.00
C233   C     0.01242   0.20958   0.54386   0.00000  Uiso   1.00
C234   C     0.96306   0.25698   0.56356   0.00000  Uiso   1.00
C235   C     0.87580   0.31226   0.60726   0.00000  Uiso   1.00
C236   C     0.08700   0.19583   0.43058   0.00000  Uiso   1.00
C237   C     0.07483   0.13637   0.40251   0.00000  Uiso   1.00
C238   C     0.05403   0.15029   0.35756   0.00000  Uiso   1.00
C239   C     0.01946   0.14383   0.28203   0.00000  Uiso   1.00
C240   C     0.17970   0.23712   0.48399   0.00000  Uiso   1.00
C241   C     0.24547   0.21238   0.50080   0.00000  Uiso   1.00
C242   C     0.30272   0.26106   0.50081   0.00000  Uiso   1.00
C243   C     0.41207   0.31870   0.50820   0.00000  Uiso   1.00
C244   C     0.09480   0.32350   0.45091   0.00000  Uiso   1.00
C245   C     0.04479   0.30646   0.49113   0.00000  Uiso   1.00
C246   C     0.99549   0.35391   0.51078   0.00000  Uiso   1.00
C247   C     0.95474   0.32796   0.54729   0.00000  Uiso   1.00
C248   C     0.07869   0.26668   0.41434   0.00000  Uiso   1.00
C249   C     0.05791   0.28070   0.36942   0.00000  Uiso   1.00
C250   C     0.04571   0.22128   0.34129   0.00000  Uiso   1.00
C251   C     0.17139   0.30798   0.46775   0.00000  Uiso   1.00
C252   C     0.22855   0.35671   0.46772   0.00000  Uiso   1.00
C253   C     0.29440   0.33204   0.48454   0.00000  Uiso   1.00
H254   H     0.11656   0.13789   0.49345   0.00000  Uiso   1.00
H255   H     0.01886   0.15474   0.55642   0.00000  Uiso   1.00
H256   H     0.08127   0.08155   0.41508   0.00000  Uiso   1.00
H257   H     0.25188   0.15754   0.51337   0.00000  Uiso   1.00
H258   H     0.90685   0.20466   0.61905   0.00000  Uiso   1.00
H259   H     0.03848   0.05033   0.32104   0.00000  Uiso   1.00
H260   H     0.39825   0.21058   0.52829   0.00000  Uiso   1.00
H261   H     0.08833   0.37867   0.43826   0.00000  Uiso   1.00
H262   H     0.98908   0.40874   0.49820   0.00000  Uiso   1.00
H263   H     0.05149   0.33554   0.35687   0.00000  Uiso   1.00
H264   H     0.22210   0.41154   0.45515   0.00000  Uiso   1.00
H265   H     0.88267   0.41082   0.57180   0.00000  Uiso   1.00
H266   H     0.01431   0.25647   0.27379   0.00000  Uiso   1.00
H267   H     0.37408   0.41673   0.48104   0.00000  Uiso   1.00
O268   O     0.82996   0.32317   0.63584   0.00000  Uiso   1.00
O269   O     0.00267   0.12068   0.24486   0.00000  Uiso   1.00
O270   O     0.47467   0.33093   0.51677   0.00000  Uiso   1.00
N271   N     0.91479   0.24906   0.59971   0.00000  Uiso   1.00
N272   N     0.03785   0.10476   0.32109   0.00000  Uiso   1.00
N273   N     0.37421   0.25458   0.51484   0.00000  Uiso   1.00
N274   N     0.90178   0.35999   0.57429   0.00000  Uiso   1.00
N275   N     0.02484   0.21569   0.29566   0.00000  Uiso   1.00
N276   N     0.36120   0.36551   0.48942   0.00000  Uiso   1.00
C277   C     0.88991   0.80695   0.48081   0.00000  Uiso   1.00
C278   C     0.94690   0.76440   0.50737   0.00000  Uiso   1.00
C279   C     0.98758   0.79042   0.54386   0.00000  Uiso   1.00
C280   C     0.03694   0.74302   0.56356   0.00000  Uiso   1.00
C281   C     0.12420   0.68774   0.60726   0.00000  Uiso   1.00
C282   C     0.91300   0.80417   0.43058   0.00000  Uiso   1.00
C283   C     0.92517   0.86363   0.40251   0.00000  Uiso   1.00
C284   C     0.94597   0.84971   0.35756   0.00000  Uiso   1.00
C285   C     0.98054   0.85617   0.28203   0.00000  Uiso   1.00
C286   C     0.82030   0.76288   0.48399   0.00000  Uiso   1.00
C287   C     0.75453   0.78762   0.50080   0.00000  Uiso   1.00
C288   C     0.69728   0.73894   0.50081   0.00000  Uiso   1.00
C289   C     0.58793   0.68130   0.50820   0.00000  Uiso   1.00
C290   C     0.90520   0.67650   0.45091   0.00000  Uiso   1.00
C291   C     0.95521   0.69354   0.49113   0.00000  Uiso   1.00
C292   C     0.00451   0.64609   0.51078   0.00000  Uiso   1.00
C293   C     0.04526   0.67204   0.54729   0.00000  Uiso   1.00
C294   C     0.92131   0.73332   0.41434   0.00000  Uiso   1.00
C295   C     0.94209   0.71930   0.36942   0.00000  Uiso   1.00
C296   C     0.95429   0.77872   0.34129   0.00000  Uiso   1.00
C297   C     0.82861   0.69202   0.46775   0.00000  Uiso   1.00
C298   C     0.77145   0.64329   0.46772   0.00000  Uiso   1.00
C299   C     0.70560   0.66796   0.48454   0.00000  Uiso   1.00
H300   H     0.88344   0.86211   0.49345   0.00000  Uiso   1.00
H301   H     0.98114   0.84526   0.55642   0.00000  Uiso   1.00
H302   H     0.91873   0.91845   0.41508   0.00000  Uiso   1.00
H303   H     0.74812   0.84246   0.51337   0.00000  Uiso   1.00
H304   H     0.09315   0.79534   0.61905   0.00000  Uiso   1.00
H305   H     0.96152   0.94967   0.32104   0.00000  Uiso   1.00
H306   H     0.60175   0.78942   0.52829   0.00000  Uiso   1.00
H307   H     0.91167   0.62133   0.43826   0.00000  Uiso   1.00
H308   H     0.01092   0.59126   0.49820   0.00000  Uiso   1.00
H309   H     0.94851   0.66446   0.35687   0.00000  Uiso   1.00
H310   H     0.77790   0.58846   0.45515   0.00000  Uiso   1.00
H311   H     0.11733   0.58918   0.57180   0.00000  Uiso   1.00
H312   H     0.98569   0.74353   0.27379   0.00000  Uiso   1.00
H313   H     0.62592   0.58327   0.48104   0.00000  Uiso   1.00
O314   O     0.17004   0.67683   0.63584   0.00000  Uiso   1.00
O315   O     0.99733   0.87932   0.24486   0.00000  Uiso   1.00
O316   O     0.52533   0.66907   0.51677   0.00000  Uiso   1.00
N317   N     0.08521   0.75094   0.59971   0.00000  Uiso   1.00
N318   N     0.96215   0.89524   0.32109   0.00000  Uiso   1.00
N319   N     0.62579   0.74542   0.51484   0.00000  Uiso   1.00
N320   N     0.09822   0.64001   0.57429   0.00000  Uiso   1.00
N321   N     0.97516   0.78431   0.29566   0.00000  Uiso   1.00
N322   N     0.63880   0.63449   0.48942   0.00000  Uiso   1.00
C323   C     0.38991   0.30695   0.98081   0.00000  Uiso   1.00
C324   C     0.44690   0.26440   0.00737   0.00000  Uiso   1.00
C325   C     0.48758   0.29042   0.04386   0.00000  Uiso   1.00
C326   C     0.53694   0.24302   0.06356   0.00000  Uiso   1.00
C327   C     0.62420   0.18774   0.10726   0.00000  Uiso   1.00
C328   C     0.41300   0.30417   0.93058   0.00000  Uiso   1.00
C329   C     0.42517   0.36363   0.90251   0.00000  Uiso   1.00
C330   C     0.44597   0.34971   0.85756   0.00000  Uiso   1.00
C331   C     0.48054   0.35617   0.78203   0.00000  Uiso   1.00
C332   C     0.32030   0.26288   0.98399   0.00000  Uiso   1.00
C333   C     0.25453   0.28762   0.00080   0.00000  Uiso   1.00
C334   C     0.19728   0.23894   0.00081   0.00000  Uiso   1.00
C335   C     0.08793   0.18130   0.00820   0.00000  Uiso   1.00
C336   C     0.40520   0.17650   0.95091   0.00000  Uiso   1.00
C337   C     0.45521   0.19354   0.99113   0.00000  Uiso   1.00
C338   C     0.50451   0.14609   0.01078   0.00000  Uiso   1.00
C339   C     0.54526   0.17204   0.04729   0.00000  Uiso   1.00
C340   C     0.42131   0.23332   0.91434   0.00000  Uiso   1.00
C341   C     0.44209   0.21930   0.86942   0.00000  Uiso   1.00
C342   C     0.45429   0.27872   0.84129   0.00000  Uiso   1.00
C343   C     0.32861   0.19202   0.96775   0.00000  Uiso   1.00
C344   C     0.27145   0.14329   0.96772   0.00000  Uiso   1.00
C345   C     0.20560   0.16796   0.98454   0.00000  Uiso   1.00
H346   H     0.38344   0.36211   0.99345   0.00000  Uiso   1.00
H347   H     0.48114   0.34526   0.05642   0.00000  Uiso   1.00
H348   H     0.41873   0.41845   0.91508   0.00000  Uiso   1.00
H349   H     0.24812   0.34246   0.01337   0.00000  Uiso   1.00
H350   H     0.59315   0.29534   0.11905   0.00000  Uiso   1.00
H351   H     0.46152   0.44967   0.82104   0.00000  Uiso   1.00
H352   H     0.10175   0.28942   0.02829   0.00000  Uiso   1.00
H353   H     0.41167   0.12133   0.93826   0.00000  Uiso   1.00
H354   H     0.51092   0.09126   0.99820   0.00000  Uiso   1.00
H355   H     0.44851   0.16446   0.85687   0.00000  Uiso   1.00
H356   H     0.27790   0.08846   0.95515   0.00000  Uiso   1.00
H357   H     0.61733   0.08918   0.07180   0.00000  Uiso   1.00
H358   H     0.48569   0.24353   0.77379   0.00000  Uiso   1.00
H359   H     0.12592   0.08327   0.98104   0.00000  Uiso   1.00
O360   O     0.67004   0.17683   0.13584   0.00000  Uiso   1.00
O361   O     0.49733   0.37932   0.74486   0.00000  Uiso   1.00
O362   O     0.02533   0.16907   0.01677   0.00000  Uiso   1.00
N363   N     0.58521   0.25094   0.09971   0.00000  Uiso   1.00
N364   N     0.46215   0.39524   0.82109   0.00000  Uiso   1.00
N365   N     0.12579   0.24542   0.01484   0.00000  Uiso   1.00
N366   N     0.59822   0.14001   0.07429   0.00000  Uiso   1.00
N367   N     0.47516   0.28431   0.79566   0.00000  Uiso   1.00
N368   N     0.13880   0.13449   0.98942   0.00000  Uiso   1.00
C369   C     0.80695   0.11009   0.51919   0.00000  Uiso   1.00
C370   C     0.76440   0.05310   0.49263   0.00000  Uiso   1.00
C371   C     0.79042   0.01242   0.45614   0.00000  Uiso   1.00
C372   C     0.74302   0.96306   0.43644   0.00000  Uiso   1.00
C373   C     0.68774   0.87580   0.39274   0.00000  Uiso   1.00
C374   C     0.80417   0.08700   0.56942   0.00000  Uiso   1.00
C375   C     0.86363   0.07483   0.59749   0.00000  Uiso   1.00
C376   C     0.84971   0.05403   0.64244   0.00000  Uiso   1.00
C377   C     0.85617   0.01946   0.71797   0.00000  Uiso   1.00
C378   C     0.76288   0.17970   0.51601   0.00000  Uiso   1.00
C379   C     0.78762   0.24547   0.49920   0.00000  Uiso   1.00
C380   C     0.73894   0.30272   0.49919   0.00000  Uiso   1.00
C381   C     0.68130   0.41207   0.49180   0.00000  Uiso   1.00
C382   C     0.67650   0.09480   0.54909   0.00000  Uiso   1.00
C383   C     0.69354   0.04479   0.50887   0.00000  Uiso   1.00
C384   C     0.64609   0.99549   0.48922   0.00000  Uiso   1.00
C385   C     0.67204   0.95474   0.45271   0.00000  Uiso   1.00
C386   C     0.73332   0.07869   0.58566   0.00000  Uiso   1.00
C387   C     0.71930   0.05791   0.63058   0.00000  Uiso   1.00
C388   C     0.77872   0.04571   0.65871   0.00000  Uiso   1.00
C389   C     0.69202   0.17139   0.53225   0.00000  Uiso   1.00
C390   C     0.64329   0.22855   0.53228   0.00000  Uiso   1.00
C391   C     0.66796   0.29440   0.51546   0.00000  Uiso   1.00
H392   H     0.86211   0.11656   0.50655   0.00000  Uiso   1.00
H393   H     0.84526   0.01886   0.44358   0.00000  Uiso   1.00
H394   H     0.91845   0.08127   0.58492   0.00000  Uiso   1.00
H395   H     0.84246   0.25188   0.48663   0.00000  Uiso   1.00
H396   H     0.79534   0.90685   0.38095   0.00000  Uiso   1.00
H397   H     0.94967   0.03848   0.67896   0.00000  Uiso   1.00
H398   H     0.78942   0.39825   0.47171   0.00000  Uiso   1.00
H399   H     0.62133   0.08833   0.56174   0.00000  Uiso   1.00
H400   H     0.59126   0.98908   0.50180   0.00000  Uiso   1.00
H401   H     0.66446   0.05149   0.64313   0.00000  Uiso   1.00
H402   H     0.58846   0.22210   0.54485   0.00000  Uiso   1.00
H403   H     0.58918   0.88267   0.42820   0.00000  Uiso   1.00
H404   H     0.74353   0.01431   0.72621   0.00000  Uiso   1.00
H405   H     0.58327   0.37408   0.51896   0.00000  Uiso   1.00
O406   O     0.67683   0.82996   0.36416   0.00000  Uiso   1.00
O407   O     0.87932   0.00267   0.75514   0.00000  Uiso   1.00
O408   O     0.66907   0.47467   0.48323   0.00000  Uiso   1.00
N409   N     0.75094   0.91479   0.40029   0.00000  Uiso   1.00
N410   N     0.89524   0.03785   0.67891   0.00000  Uiso   1.00
N411   N     0.74542   0.37421   0.48516   0.00000  Uiso   1.00
N412   N     0.64001   0.90178   0.42571   0.00000  Uiso   1.00
N413   N     0.78431   0.02484   0.70434   0.00000  Uiso   1.00
N414   N     0.63449   0.36120   0.51058   0.00000  Uiso   1.00
C415   C     0.30695   0.61009   0.01919   0.00000  Uiso   1.00
C416   C     0.26440   0.55310   0.99263   0.00000  Uiso   1.00
C417   C     0.29042   0.51242   0.95614   0.00000  Uiso   1.00
C418   C     0.24302   0.46306   0.93644   0.00000  Uiso   1.00
C419   C     0.18774   0.37580   0.89274   0.00000  Uiso   1.00
C420   C     0.30417   0.58700   0.06942   0.00000  Uiso   1.00
C421   C     0.36363   0.57483   0.09749   0.00000  Uiso   1.00
C422   C     0.34971   0.55403   0.14244   0.00000  Uiso   1.00
C423   C     0.35617   0.51946   0.21797   0.00000  Uiso   1.00
C424   C     0.26288   0.67970   0.01601   0.00000  Uiso   1.00
C425   C     0.28762   0.74547   0.99920   0.00000  Uiso   1.00
C426   C     0.23894   0.80272   0.99919   0.00000  Uiso   1.00
C427   C     0.18130   0.91207   0.99180   0.00000  Uiso   1.00
C428   C     0.17650   0.59480   0.04909   0.00000  Uiso   1.00
C429   C     0.19354   0.54479   0.00887   0.00000  Uiso   1.00
C430   C     0.14609   0.49549   0.98922   0.00000  Uiso   1.00
C431   C     0.17204   0.45474   0.95271   0.00000  Uiso   1.00
C432   C     0.23332   0.57869   0.08566   0.00000  Uiso   1.00
C433   C     0.21930   0.55791   0.13058   0.00000  Uiso   1.00
C434   C     0.27872   0.54571   0.15871   0.00000  Uiso   1.00
C435   C     0.19202   0.67139   0.03225   0.00000  Uiso   1.00
C436   C     0.14329   0.72855   0.03228   0.00000  Uiso   1.00
C437   C     0.16796   0.79440   0.01546   0.00000  Uiso   1.00
H438   H     0.36211   0.61656   0.00655   0.00000  Uiso   1.00
H439   H     0.34526   0.51886   0.94358   0.00000  Uiso   1.00
H440   H     0.41845   0.58127   0.08492   0.00000  Uiso   1.00
H441   H     0.34246   0.75188   0.98663   0.00000  Uiso   1.00
H442   H     0.29534   0.40685   0.88095   0.00000  Uiso   1.00
H443   H     0.44967   0.53848   0.17896   0.00000  Uiso   1.00
H444   H     0.28942   0.89825   0.97171   0.00000  Uiso   1.00
H445   H     0.12133   0.58833   0.06174   0.00000  Uiso   1.00
H446   H     0.09126   0.48908   0.00180   0.00000  Uiso   1.00
H447   H     0.16446   0.55149   0.14313   0.00000  Uiso   1.00
H448   H     0.08846   0.72210   0.04485   0.00000  Uiso   1.00
H449   H     0.08918   0.38267   0.92820   0.00000  Uiso   1.00
H450   H     0.24353   0.51431   0.22621   0.00000  Uiso   1.00
H451   H     0.08327   0.87408   0.01896   0.00000  Uiso   1.00
O452   O     0.17683   0.32996   0.86416   0.00000  Uiso   1.00
O453   O     0.37932   0.50267   0.25514   0.00000  Uiso   1.00
O454   O     0.16907   0.97467   0.98323   0.00000  Uiso   1.00
N455   N     0.25094   0.41479   0.90029   0.00000  Uiso   1.00
N456   N     0.39524   0.53785   0.17891   0.00000  Uiso   1.00
N457   N     0.24542   0.87421   0.98516   0.00000  Uiso   1.00
N458   N     0.14001   0.40178   0.92571   0.00000  Uiso   1.00
N459   N     0.28431   0.52484   0.20434   0.00000  Uiso   1.00
N460   N     0.13449   0.86120   0.01058   0.00000  Uiso   1.00
C461   C     0.69305   0.38991   0.01919   0.00000  Uiso   1.00
C462   C     0.73560   0.44690   0.99263   0.00000  Uiso   1.00
C463   C     0.70958   0.48758   0.95614   0.00000  Uiso   1.00
C464   C     0.75698   0.53694   0.93644   0.00000  Uiso   1.00
C465   C     0.81226   0.62420   0.89274   0.00000  Uiso   1.00
C466   C     0.69583   0.41300   0.06942   0.00000  Uiso   1.00
C467   C     0.63637   0.42517   0.09749   0.00000  Uiso   1.00
C468   C     0.65029   0.44597   0.14244   0.00000  Uiso   1.00
C469   C     0.64383   0.48054   0.21797   0.00000  Uiso   1.00
C470   C     0.73712   0.32030   0.01601   0.00000  Uiso   1.00
C471   C     0.71238   0.25453   0.99920   0.00000  Uiso   1.00
C472   C     0.76106   0.19728   0.99919   0.00000  Uiso   1.00
C473   C     0.81870   0.08793   0.99180   0.00000  Uiso   1.00
C474   C     0.82350   0.40520   0.04909   0.00000  Uiso   1.00
C475   C     0.80646   0.45521   0.00887   0.00000  Uiso   1.00
C476   C     0.85391   0.50451   0.98922   0.00000  Uiso   1.00
C477   C     0.82796   0.54526   0.95271   0.00000  Uiso   1.00
C478   C     0.76668   0.42131   0.08566   0.00000  Uiso   1.00
C479   C     0.78070   0.44209   0.13058   0.00000  Uiso   1.00
C480   C     0.72128   0.45429   0.15871   0.00000  Uiso   1.00
C481   C     0.80798   0.32861   0.03225   0.00000  Uiso   1.00
C482   C     0.85671   0.27145   0.03228   0.00000  Uiso   1.00
C483   C     0.83204   0.20560   0.01546   0.00000  Uiso   1.00
H484   H     0.63789   0.38344   0.00655   0.00000  Uiso   1.00
H485   H     0.65474   0.48114   0.94358   0.00000  Uiso   1.00
H486   H     0.58155   0.41873   0.08492   0.00000  Uiso   1.00
H487   H     0.65754   0.24812   0.98663   0.00000  Uiso   1.00
H488   H     0.70466   0.59315   0.88095   0.00000  Uiso   1.00
H489   H     0.55033   0.46152   0.17896   0.00000  Uiso   1.00
H490   H     0.71058   0.10175   0.97171   0.00000  Uiso   1.00
H491   H     0.87867   0.41167   0.06174   0.00000  Uiso   1.00
H492   H     0.90874   0.51092   0.00180   0.00000  Uiso   1.00
H493   H     0.83554   0.44851   0.14313   0.00000  Uiso   1.00
H494   H     0.91154   0.27790   0.04485   0.00000  Uiso   1.00
H495   H     0.91082   0.61733   0.92820   0.00000  Uiso   1.00
H496   H     0.75647   0.48569   0.22621   0.00000  Uiso   1.00
H497   H     0.91673   0.12592   0.01896   0.00000  Uiso   1.00
O498   O     0.82317   0.67004   0.86416   0.00000  Uiso   1.00
O499   O     0.62068   0.49733   0.25514   0.00000  Uiso   1.00
O500   O     0.83093   0.02533   0.98323   0.00000  Uiso   1.00
N501   N     0.74906   0.58521   0.90029   0.00000  Uiso   1.00
N502   N     0.60476   0.46215   0.17891   0.00000  Uiso   1.00
N503   N     0.75458   0.12579   0.98516   0.00000  Uiso   1.00
N504   N     0.85999   0.59822   0.92571   0.00000  Uiso   1.00
N505   N     0.71569   0.47516   0.20434   0.00000  Uiso   1.00
N506   N     0.86551   0.13880   0.01058   0.00000  Uiso   1.00
C507   C     0.19305   0.88991   0.51919   0.00000  Uiso   1.00
C508   C     0.23560   0.94690   0.49263   0.00000  Uiso   1.00
C509   C     0.20958   0.98758   0.45614   0.00000  Uiso   1.00
C510   C     0.25698   0.03694   0.43644   0.00000  Uiso   1.00
C511   C     0.31226   0.12420   0.39274   0.00000  Uiso   1.00
C512   C     0.19583   0.91300   0.56942   0.00000  Uiso   1.00
C513   C     0.13637   0.92517   0.59749   0.00000  Uiso   1.00
C514   C     0.15029   0.94597   0.64244   0.00000  Uiso   1.00
C515   C     0.14383   0.98054   0.71797   0.00000  Uiso   1.00
C516   C     0.23712   0.82030   0.51601   0.00000  Uiso   1.00
C517   C     0.21238   0.75453   0.49920   0.00000  Uiso   1.00
C518   C     0.26106   0.69728   0.49919   0.00000  Uiso   1.00
C519   C     0.31870   0.58793   0.49180   0.00000  Uiso   1.00
C520   C     0.32350   0.90520   0.54909   0.00000  Uiso   1.00
C521   C     0.30646   0.95521   0.50887   0.00000  Uiso   1.00
C522   C     0.35391   0.00451   0.48922   0.00000  Uiso   1.00
C523   C     0.32796   0.04526   0.45271   0.00000  Uiso   1.00
C524   C     0.26668   0.92131   0.58566   0.00000  Uiso   1.00
C525   C     0.28070   0.94209   0.63058   0.00000  Uiso   1.00
C526   C     0.22128   0.95429   0.65871   0.00000  Uiso   1.00
C527   C     0.30798   0.82861   0.53225   0.00000  Uiso   1.00
C528   C     0.35671   0.77145   0.53228   0.00000  Uiso   1.00
C529   C     0.33204   0.70560   0.51546   0.00000  Uiso   1.00
H530   H     0.13789   0.88344   0.50655   0.00000  Uiso   1.00
H531   H     0.15474   0.98114   0.44358   0.00000  Uiso   1.00
H532   H     0.08155   0.91873   0.58492   0.00000  Uiso   1.00
H533   H     0.15754   0.74812   0.48663   0.00000  Uiso   1.00
H534   H     0.20466   0.09315   0.38095   0.00000  Uiso   1.00
H535   H     0.05033   0.96152   0.67896   0.00000  Uiso   1.00
H536   H     0.21058   0.60175   0.47171   0.00000  Uiso   1.00
H537   H     0.37867   0.91167   0.56174   0.00000  Uiso   1.00
H538   H     0.40874   0.01092   0.50180   0.00000  Uiso   1.00
H539   H     0.33554   0.94851   0.64313   0.00000  Uiso   1.00
H540   H     0.41154   0.77790   0.54485   0.00000  Uiso   1.00
H541   H     0.41082   0.11733   0.42820   0.00000  Uiso   1.00
H542   H     0.25647   0.98569   0.72621   0.00000  Uiso   1.00
H543   H     0.41673   0.62592   0.51896   0.00000  Uiso   1.00
O544   O     0.32317   0.17004   0.36416   0.00000  Uiso   1.00
O545   O     0.12068   0.99733   0.75514   0.00000  Uiso   1.00
O546   O     0.33093   0.52533   0.48323   0.00000  Uiso   1.00
N547   N     0.24906   0.08521   0.40029   0.00000  Uiso   1.00
N548   N     0.10476   0.96215   0.67891   0.00000  Uiso   1.00
N549   N     0.25458   0.62579   0.48516   0.00000  Uiso   1.00
N550   N     0.35999   0.09822   0.42571   0.00000  Uiso   1.00
N551   N     0.21569   0.97516   0.70434   0.00000  Uiso   1.00
N552   N     0.36551   0.63880   0.51058   0.00000  Uiso   1.00
C553   C     0.38991   0.80695   0.26919   0.00000  Uiso   1.00
C554   C     0.44690   0.76440   0.24263   0.00000  Uiso   1.00
C555   C     0.48758   0.79042   0.20614   0.00000  Uiso   1.00
C556   C     0.53694   0.74302   0.18644   0.00000  Uiso   1.00
C557   C     0.62420   0.68774   0.14274   0.00000  Uiso   1.00
C558   C     0.41300   0.80417   0.31942   0.00000  Uiso   1.00
C559   C     0.42517   0.86363   0.34749   0.00000  Uiso   1.00
C560   C     0.44597   0.84971   0.39244   0.00000  Uiso   1.00
C561   C     0.48054   0.85617   0.46797   0.00000  Uiso   1.00
C562   C     0.32030   0.76288   0.26601   0.00000  Uiso   1.00
C563   C     0.25453   0.78762   0.24920   0.00000  Uiso   1.00
C564   C     0.19728   0.73894   0.24919   0.00000  Uiso   1.00
C565   C     0.08793   0.68130   0.24180   0.00000  Uiso   1.00
C566   C     0.40520   0.67650   0.29909   0.00000  Uiso   1.00
C567   C     0.45521   0.69354   0.25887   0.00000  Uiso   1.00
C568   C     0.50451   0.64609   0.23922   0.00000  Uiso   1.00
C569   C     0.54526   0.67204   0.20271   0.00000  Uiso   1.00
C570   C     0.42131   0.73332   0.33566   0.00000  Uiso   1.00
C571   C     0.44209   0.71930   0.38058   0.00000  Uiso   1.00
C572   C     0.45429   0.77872   0.40871   0.00000  Uiso   1.00
C573   C     0.32861   0.69202   0.28225   0.00000  Uiso   1.00
C574   C     0.27145   0.64329   0.28228   0.00000  Uiso   1.00
C575   C     0.20560   0.66796   0.26546   0.00000  Uiso   1.00
H576   H     0.38344   0.86211   0.25655   0.00000  Uiso   1.00
H577   H     0.48114   0.84526   0.19358   0.00000  Uiso   1.00
H578   H     0.41873   0.91845   0.33492   0.00000  Uiso   1.00
H579   H     0.24812   0.84246   0.23663   0.00000  Uiso   1.00
H580   H     0.59315   0.79534   0.13095   0.00000  Uiso   1.00
H581   H     0.46152   0.94967   0.42896   0.00000  Uiso   1.00
H582   H     0.10175   0.78942   0.22171   0.00000  Uiso   1.00
H583   H     0.41167   0.62133   0.31174   0.00000  Uiso   1.00
H584   H     0.51092   0.59126   0.25180   0.00000  Uiso   1.00
H585   H     0.44851   0.66446   0.39313   0.00000  Uiso   1.00
H586   H     0.27790   0.58846   0.29485   0.00000  Uiso   1.00
H587   H     0.61733   0.58918   0.17820   0.00000  Uiso   1.00
H588   H     0.48569   0.74353   0.47621   0.00000  Uiso   1.00
H589   H     0.12592   0.58327   0.26896   0.00000  Uiso   1.00
O590   O     0.67004   0.67683   0.11416   0.00000  Uiso   1.00
O591   O     0.49733   0.87932   0.50514   0.00000  Uiso   1.00
O592   O     0.02533   0.66907   0.23323   0.00000  Uiso   1.00
N593   N     0.58521   0.75094   0.15029   0.00000  Uiso   1.00
N594   N     0.46215   0.89524   0.42891   0.00000  Uiso   1.00
N595   N     0.12579   0.74542   0.23516   0.00000  Uiso   1.00
N596   N     0.59822   0.64001   0.17571   0.00000  Uiso   1.00
N597   N     0.47516   0.78431   0.45434   0.00000  Uiso   1.00
N598   N     0.13880   0.63449   0.26058   0.00000  Uiso   1.00
C599   C     0.88991   0.30695   0.76919   0.00000  Uiso   1.00
C600   C     0.94690   0.26440   0.74263   0.00000  Uiso   1.00
C601   C     0.98758   0.29042   0.70614   0.00000  Uiso   1.00
C602   C     0.03694   0.24302   0.68644   0.00000  Uiso   1.00
C603   C     0.12420   0.18774   0.64274   0.00000  Uiso   1.00
C604   C     0.91300   0.30417   0.81942   0.00000  Uiso   1.00
C605   C     0.92517   0.36363   0.84749   0.00000  Uiso   1.00
C606   C     0.94597   0.34971   0.89244   0.00000  Uiso   1.00
C607   C     0.98054   0.35617   0.96797   0.00000  Uiso   1.00
C608   C     0.82030   0.26288   0.76601   0.00000  Uiso   1.00
C609   C     0.75453   0.28762   0.74920   0.00000  Uiso   1.00
C610   C     0.69728   0.23894   0.74919   0.00000  Uiso   1.00
C611   C     0.58793   0.18130   0.74180   0.00000  Uiso   1.00
C612   C     0.90520   0.17650   0.79909   0.00000  Uiso   1.00
C613   C     0.95521   0.19354   0.75887   0.00000  Uiso   1.00
C614   C     0.00451   0.14609   0.73922   0.00000  Uiso   1.00
C615   C     0.04526   0.17204   0.70271   0.00000  Uiso   1.00
C616   C     0.92131   0.23332   0.83566   0.00000  Uiso   1.00
C617   C     0.94209   0.21930   0.88058   0.00000  Uiso   1.00
C618   C     0.95429   0.27872   0.90871   0.00000  Uiso   1.00
C619   C     0.82861   0.19202   0.78225   0.00000  Uiso   1.00
C620   C     0.77145   0.14329   0.78228   0.00000  Uiso   1.00
C621   C     0.70560   0.16796   0.76546   0.00000  Uiso   1.00
H622   H     0.88344   0.36211   0.75655   0.00000  Uiso   1.00
H623   H     0.98114   0.34526   0.69358   0.00000  Uiso   1.00
H624   H     0.91873   0.41845   0.83492   0.00000  Uiso   1.00
H625   H     0.74812   0.34246   0.73663   0.00000  Uiso   1.00
H626   H     0.09315   0.29534   0.63095   0.00000  Uiso   1.00
H627   H     0.96152   0.44967   0.92896   0.00000  Uiso   1.00
H628   H     0.60175   0.28942   0.72171   0.00000  Uiso   1.00
H629   H     0.91167   0.12133   0.81174   0.00000  Uiso   1.00
H630   H     0.01092   0.09126   0.75180   0.00000  Uiso   1.00
H631   H     0.94851   0.16446   0.89313   0.00000  Uiso   1.00
H632   H     0.77790   0.08846   0.79485   0.00000  Uiso   1.00
H633   H     0.11733   0.08918   0.67820   0.00000  Uiso   1.00
H634   H     0.98569   0.24353   0.97621   0.00000  Uiso   1.00
H635   H     0.62592   0.08327   0.76896   0.00000  Uiso   1.00
O636   O     0.17004   0.17683   0.61416   0.00000  Uiso   1.00
O637   O     0.99733   0.37932   0.00514   0.00000  Uiso   1.00
O638   O     0.52533   0.16907   0.73323   0.00000  Uiso   1.00
N639   N     0.08521   0.25094   0.65029   0.00000  Uiso   1.00
N640   N     0.96215   0.39524   0.92891   0.00000  Uiso   1.00
N641   N     0.62579   0.24542   0.73516   0.00000  Uiso   1.00
N642   N     0.09822   0.14001   0.67571   0.00000  Uiso   1.00
N643   N     0.97516   0.28431   0.95434   0.00000  Uiso   1.00
N644   N     0.63880   0.13449   0.76058   0.00000  Uiso   1.00
C645   C     0.11009   0.69305   0.76919   0.00000  Uiso   1.00
C646   C     0.05310   0.73560   0.74263   0.00000  Uiso   1.00
C647   C     0.01242   0.70958   0.70614   0.00000  Uiso   1.00
C648   C     0.96306   0.75698   0.68644   0.00000  Uiso   1.00
C649   C     0.87580   0.81226   0.64274   0.00000  Uiso   1.00
C650   C     0.08700   0.69583   0.81942   0.00000  Uiso   1.00
C651   C     0.07483   0.63637   0.84749   0.00000  Uiso   1.00
C652   C     0.05403   0.65029   0.89244   0.00000  Uiso   1.00
C653   C     0.01946   0.64383   0.96797   0.00000  Uiso   1.00
C654   C     0.17970   0.73712   0.76601   0.00000  Uiso   1.00
C655   C     0.24547   0.71238   0.74920   0.00000  Uiso   1.00
C656   C     0.30272   0.76106   0.74919   0.00000  Uiso   1.00
C657   C     0.41207   0.81870   0.74180   0.00000  Uiso   1.00
C658   C     0.09480   0.82350   0.79909   0.00000  Uiso   1.00
C659   C     0.04479   0.80646   0.75887   0.00000  Uiso   1.00
C660   C     0.99549   0.85391   0.73922   0.00000  Uiso   1.00
C661   C     0.95474   0.82796   0.70271   0.00000  Uiso   1.00
C662   C     0.07869   0.76668   0.83566   0.00000  Uiso   1.00
C663   C     0.05791   0.78070   0.88058   0.00000  Uiso   1.00
C664   C     0.04571   0.72128   0.90871   0.00000  Uiso   1.00
C665   C     0.17139   0.80798   0.78225   0.00000  Uiso   1.00
C666   C     0.22855   0.85671   0.78228   0.00000  Uiso   1.00
C667   C     0.29440   0.83204   0.76546   0.00000  Uiso   1.00
H668   H     0.11656   0.63789   0.75655   0.00000  Uiso   1.00
H669   H     0.01886   0.65474   0.69358   0.00000  Uiso   1.00
H670   H     0.08127   0.58155   0.83492   0.00000  Uiso   1.00
H671   H     0.25188   0.65754   0.73663   0.00000  Uiso   1.00
H672   H     0.90685   0.70466   0.63095   0.00000  Uiso   1.00
H673   H     0.03848   0.55033   0.92896   0.00000  Uiso   1.00
H674   H     0.39825   0.71058   0.72171   0.00000  Uiso   1.00
H675   H     0.08833   0.87867   0.81174   0.00000  Uiso   1.00
H676   H     0.98908   0.90874   0.75180   0.00000  Uiso   1.00
H677   H     0.05149   0.83554   0.89313   0.00000  Uiso   1.00
H678   H     0.22210   0.91154   0.79485   0.00000  Uiso   1.00
H679   H     0.88267   0.91082   0.67820   0.00000  Uiso   1.00
H680   H     0.01431   0.75647   0.97621   0.00000  Uiso   1.00
H681   H     0.37408   0.91673   0.76896   0.00000  Uiso   1.00
O682   O     0.82996   0.82317   0.61416   0.00000  Uiso   1.00
O683   O     0.00267   0.62068   0.00514   0.00000  Uiso   1.00
O684   O     0.47467   0.83093   0.73323   0.00000  Uiso   1.00
N685   N     0.91479   0.74906   0.65029   0.00000  Uiso   1.00
N686   N     0.03785   0.60476   0.92891   0.00000  Uiso   1.00
N687   N     0.37421   0.75458   0.73516   0.00000  Uiso   1.00
N688   N     0.90178   0.85999   0.67571   0.00000  Uiso   1.00
N689   N     0.02484   0.71569   0.95434   0.00000  Uiso   1.00
N690   N     0.36120   0.86551   0.76058   0.00000  Uiso   1.00
C691   C     0.61009   0.19305   0.26919   0.00000  Uiso   1.00
C692   C     0.55310   0.23560   0.24263   0.00000  Uiso   1.00
C693   C     0.51242   0.20958   0.20614   0.00000  Uiso   1.00
C694   C     0.46306   0.25698   0.18644   0.00000  Uiso   1.00
C695   C     0.37580   0.31226   0.14274   0.00000  Uiso   1.00
C696   C     0.58700   0.19583   0.31942   0.00000  Uiso   1.00
C697   C     0.57483   0.13637   0.34749   0.00000  Uiso   1.00
C698   C     0.55403   0.15029   0.39244   0.00000  Uiso   1.00
C699   C     0.51946   0.14383   0.46797   0.00000  Uiso   1.00
C700   C     0.67970   0.23712   0.26601   0.00000  Uiso   1.00
C701   C     0.74547   0.21238   0.24920   0.00000  Uiso   1.00
C702   C     0.80272   0.26106   0.24919   0.00000  Uiso   1.00
C703   C     0.91207   0.31870   0.24180   0.00000  Uiso   1.00
C704   C     0.59480   0.32350   0.29909   0.00000  Uiso   1.00
C705   C     0.54479   0.30646   0.25887   0.00000  Uiso   1.00
C706   C     0.49549   0.35391   0.23922   0.00000  Uiso   1.00
C707   C     0.45474   0.32796   0.20271   0.00000  Uiso   1.00
C708   C     0.57869   0.26668   0.33566   0.00000  Uiso   1.00
C709   C     0.55791   0.28070   0.38058   0.00000  Uiso   1.00
C710   C     0.54571   0.22128   0.40871   0.00000  Uiso   1.00
C711   C     0.67139   0.30798   0.28225   0.00000  Uiso   1.00
C712   C     0.72855   0.35671   0.28228   0.00000  Uiso   1.00
C713   C     0.79440   0.33204   0.26546   0.00000  Uiso   1.00
H714   H     0.61656   0.13789   0.25655   0.00000  Uiso   1.00
H715   H     0.51886   0.15474   0.19358   0.00000  Uiso   1.00
H716   H     0.58127   0.08155   0.33492   0.00000  Uiso   1.00
H717   H     0.75188   0.15754   0.23663   0.00000  Uiso   1.00
H718   H     0.40685   0.20466   0.13095   0.00000  Uiso   1.00
H719   H     0.53848   0.05033   0.42896   0.00000  Uiso   1.00
H720   H     0.89825   0.21058   0.22171   0.00000  Uiso   1.00
H721   H     0.58833   0.37867   0.31174   0.00000  Uiso   1.00
H722   H     0.48908   0.40874   0.25180   0.00000  Uiso   1.00
H723   H     0.55149   0.33554   0.39313   0.00000  Uiso   1.00
H724   H     0.72210   0.41154   0.29485   0.00000  Uiso   1.00
H725   H     0.38267   0.41082   0.17820   0.00000  Uiso   1.00
H726   H     0.51431   0.25647   0.47621   0.00000  Uiso   1.00
H727   H     0.87408   0.41673   0.26896   0.00000  Uiso   1.00
O728   O     0.32996   0.32317   0.11416   0.00000  Uiso   1.00
O729   O     0.50267   0.12068   0.50514   0.00000  Uiso   1.00
O730   O     0.97467   0.33093   0.23323   0.00000  Uiso   1.00
N731   N     0.41479   0.24906   0.15029   0.00000  Uiso   1.00
N732   N     0.53785   0.10476   0.42891   0.00000  Uiso   1.00
N733   N     0.87421   0.25458   0.23516   0.00000  Uiso   1.00
N734   N     0.40178   0.35999   0.17571   0.00000  Uiso   1.00
N735   N     0.52484   0.21569   0.45434   0.00000  Uiso   1.00
N736   N     0.86120   0.36551   0.26058   0.00000  Uiso   1.00
