data_job_04863
_audit_creation_date              2018-12-19
_audit_creation_method            'Materials Studio'
_symmetry_space_group_name_H-M    'P1'
_symmetry_Int_Tables_number       1
_symmetry_cell_setting            triclinic
loop_
_symmetry_equiv_pos_as_xyz
  x,y,z
_cell_length_a                    13.6923
_cell_length_b                    23.7923
_cell_length_c                    44.4222
_cell_angle_alpha                 90.0000
_cell_angle_beta                  90.0000
_cell_angle_gamma                 90.0000
loop_
_atom_site_label
_atom_site_type_symbol
_atom_site_fract_x
_atom_site_fract_y
_atom_site_fract_z
_atom_site_U_iso_or_equiv
_atom_site_adp_type
_atom_site_occupancy
C1     C     0.86285   0.90787   0.60412   0.00000  Uiso   1.00
C2     C     0.93763   0.90152   0.62933   0.00000  Uiso   1.00
C3     C     0.91641   0.89445   0.65964   0.00000  Uiso   1.00
C4     C     0.99513   0.88944   0.67916   0.00000  Uiso   1.00
C5     C     0.09658   0.87932   0.71990   0.00000  Uiso   1.00
C6     C     0.88705   0.96310   0.58838   0.00000  Uiso   1.00
C7     C     0.82329   0.00779   0.58426   0.00000  Uiso   1.00
C8     C     0.85943   0.05461   0.56929   0.00000  Uiso   1.00
C9     C     0.88233   0.14006   0.54643   0.00000  Uiso   1.00
C10    C     0.88554   0.86152   0.58147   0.00000  Uiso   1.00
C11    C     0.82050   0.82081   0.57152   0.00000  Uiso   1.00
C12    C     0.85537   0.78213   0.55073   0.00000  Uiso   1.00
C13    C     0.87591   0.70987   0.51714   0.00000  Uiso   1.00
C14    C     0.04039   0.91156   0.58488   0.00000  Uiso   1.00
C15    C     0.03406   0.90353   0.61888   0.00000  Uiso   1.00
C16    C     0.11284   0.89853   0.63836   0.00000  Uiso   1.00
C17    C     0.09174   0.89145   0.66869   0.00000  Uiso   1.00
C18    C     0.98347   0.96510   0.57793   0.00000  Uiso   1.00
C19    C     0.01972   0.01187   0.56297   0.00000  Uiso   1.00
C20    C     0.95604   0.05662   0.55882   0.00000  Uiso   1.00
C21    C     0.98197   0.86353   0.57101   0.00000  Uiso   1.00
C22    C     0.01693   0.82490   0.55024   0.00000  Uiso   1.00
C23    C     0.95197   0.78414   0.54026   0.00000  Uiso   1.00
H24    H     0.78777   0.90631   0.61226   0.00000  Uiso   1.00
H25    H     0.84177   0.89290   0.66773   0.00000  Uiso   1.00
H26    H     0.74867   0.00622   0.59234   0.00000  Uiso   1.00
H27    H     0.74589   0.81928   0.57962   0.00000  Uiso   1.00
H28    H     0.94417   0.87894   0.72461   0.00000  Uiso   1.00
H29    H     0.74784   0.11787   0.56566   0.00000  Uiso   1.00
H30    H     0.74197   0.72366   0.53882   0.00000  Uiso   1.00
H31    H     0.11546   0.91312   0.57674   0.00000  Uiso   1.00
H32    H     0.18745   0.90009   0.63026   0.00000  Uiso   1.00
H33    H     0.09434   0.01341   0.55488   0.00000  Uiso   1.00
H34    H     0.09156   0.82646   0.54215   0.00000  Uiso   1.00
H35    H     0.22474   0.88478   0.69421   0.00000  Uiso   1.00
H36    H     0.02840   0.12370   0.53525   0.00000  Uiso   1.00
H37    H     0.02254   0.72950   0.50841   0.00000  Uiso   1.00
O38    O     0.12590   0.87318   0.74526   0.00000  Uiso   1.00
O39    O     0.86831   0.18664   0.53671   0.00000  Uiso   1.00
O40    O     0.86061   0.66945   0.50150   0.00000  Uiso   1.00
N41    N     0.00032   0.88209   0.71011   0.00000  Uiso   1.00
N42    N     0.81677   0.10548   0.56150   0.00000  Uiso   1.00
N43    N     0.81127   0.73694   0.53640   0.00000  Uiso   1.00
N44    N     0.15129   0.88523   0.69375   0.00000  Uiso   1.00
N45    N     0.96774   0.10862   0.54514   0.00000  Uiso   1.00
N46    N     0.96224   0.74008   0.52004   0.00000  Uiso   1.00
C47    C     0.86366   0.45082   0.89549   0.00000  Uiso   1.00
C48    C     0.93838   0.45790   0.87031   0.00000  Uiso   1.00
C49    C     0.91708   0.46705   0.84017   0.00000  Uiso   1.00
C50    C     0.99575   0.47240   0.82066   0.00000  Uiso   1.00
C51    C     0.09708   0.48392   0.78000   0.00000  Uiso   1.00
C52    C     0.88621   0.39440   0.91022   0.00000  Uiso   1.00
C53    C     0.82103   0.35018   0.91363   0.00000  Uiso   1.00
C54    C     0.85578   0.30208   0.92772   0.00000  Uiso   1.00
C55    C     0.87610   0.21505   0.94905   0.00000  Uiso   1.00
C56    C     0.88811   0.49550   0.91892   0.00000  Uiso   1.00
C57    C     0.82453   0.53627   0.92965   0.00000  Uiso   1.00
C58    C     0.86087   0.57327   0.95106   0.00000  Uiso   1.00
C59    C     0.88414   0.64320   0.98588   0.00000  Uiso   1.00
C60    C     0.04125   0.44403   0.91444   0.00000  Uiso   1.00
C61    C     0.03483   0.45420   0.88061   0.00000  Uiso   1.00
C62    C     0.11355   0.45954   0.86114   0.00000  Uiso   1.00
C63    C     0.09238   0.46871   0.83097   0.00000  Uiso   1.00
C64    C     0.98266   0.39071   0.92052   0.00000  Uiso   1.00
C65    C     0.01751   0.34267   0.93461   0.00000  Uiso   1.00
C66    C     0.95241   0.29838   0.93804   0.00000  Uiso   1.00
C67    C     0.98456   0.49181   0.92921   0.00000  Uiso   1.00
C68    C     0.02101   0.52875   0.95062   0.00000  Uiso   1.00
C69    C     0.95750   0.56958   0.96138   0.00000  Uiso   1.00
H70    H     0.78857   0.45369   0.88747   0.00000  Uiso   1.00
H71    H     0.84242   0.46990   0.83221   0.00000  Uiso   1.00
H72    H     0.74639   0.35305   0.90567   0.00000  Uiso   1.00
H73    H     0.74989   0.53911   0.92167   0.00000  Uiso   1.00
H74    H     0.94467   0.48623   0.77547   0.00000  Uiso   1.00
H75    H     0.74217   0.23985   0.93038   0.00000  Uiso   1.00
H76    H     0.74955   0.63219   0.96413   0.00000  Uiso   1.00
H77    H     0.11635   0.44115   0.92246   0.00000  Uiso   1.00
H78    H     0.18819   0.45668   0.86912   0.00000  Uiso   1.00
H79    H     0.09216   0.33983   0.94258   0.00000  Uiso   1.00
H80    H     0.09566   0.52589   0.95858   0.00000  Uiso   1.00
H81    H     0.22530   0.47550   0.80543   0.00000  Uiso   1.00
H82    H     0.02281   0.22912   0.96033   0.00000  Uiso   1.00
H83    H     0.03018   0.62146   0.99409   0.00000  Uiso   1.00
O84    O     0.12633   0.49129   0.75473   0.00000  Uiso   1.00
O85    O     0.86066   0.16805   0.95796   0.00000  Uiso   1.00
O86    O     0.87034   0.68279   0.00224   0.00000  Uiso   1.00
N87    N     0.00086   0.48159   0.78985   0.00000  Uiso   1.00
N88    N     0.81154   0.25123   0.93467   0.00000  Uiso   1.00
N89    N     0.81843   0.61803   0.96623   0.00000  Uiso   1.00
N90    N     0.15186   0.47581   0.80597   0.00000  Uiso   1.00
N91    N     0.96255   0.24546   0.95079   0.00000  Uiso   1.00
N92    N     0.96943   0.61225   0.98235   0.00000  Uiso   1.00
C93    C     0.63715   0.59213   0.10412   0.00000  Uiso   1.00
C94    C     0.56237   0.59848   0.12933   0.00000  Uiso   1.00
C95    C     0.58359   0.60555   0.15964   0.00000  Uiso   1.00
C96    C     0.50487   0.61056   0.17916   0.00000  Uiso   1.00
C97    C     0.40342   0.62068   0.21990   0.00000  Uiso   1.00
C98    C     0.61295   0.53690   0.08838   0.00000  Uiso   1.00
C99    C     0.67671   0.49221   0.08426   0.00000  Uiso   1.00
C100   C     0.64057   0.44539   0.06929   0.00000  Uiso   1.00
C101   C     0.61767   0.35994   0.04643   0.00000  Uiso   1.00
C102   C     0.61446   0.63848   0.08147   0.00000  Uiso   1.00
C103   C     0.67950   0.67919   0.07152   0.00000  Uiso   1.00
C104   C     0.64463   0.71787   0.05073   0.00000  Uiso   1.00
C105   C     0.62409   0.79013   0.01714   0.00000  Uiso   1.00
C106   C     0.45961   0.58844   0.08488   0.00000  Uiso   1.00
C107   C     0.46594   0.59647   0.11888   0.00000  Uiso   1.00
C108   C     0.38716   0.60147   0.13836   0.00000  Uiso   1.00
C109   C     0.40826   0.60855   0.16869   0.00000  Uiso   1.00
C110   C     0.51653   0.53490   0.07793   0.00000  Uiso   1.00
C111   C     0.48028   0.48813   0.06297   0.00000  Uiso   1.00
C112   C     0.54396   0.44338   0.05882   0.00000  Uiso   1.00
C113   C     0.51803   0.63647   0.07101   0.00000  Uiso   1.00
C114   C     0.48307   0.67510   0.05024   0.00000  Uiso   1.00
C115   C     0.54803   0.71586   0.04026   0.00000  Uiso   1.00
H116   H     0.71223   0.59369   0.11226   0.00000  Uiso   1.00
H117   H     0.65823   0.60710   0.16773   0.00000  Uiso   1.00
H118   H     0.75133   0.49378   0.09234   0.00000  Uiso   1.00
H119   H     0.75411   0.68072   0.07962   0.00000  Uiso   1.00
H120   H     0.55583   0.62106   0.22461   0.00000  Uiso   1.00
H121   H     0.75216   0.38213   0.06566   0.00000  Uiso   1.00
H122   H     0.75803   0.77634   0.03882   0.00000  Uiso   1.00
H123   H     0.38454   0.58688   0.07674   0.00000  Uiso   1.00
H124   H     0.31255   0.59991   0.13026   0.00000  Uiso   1.00
H125   H     0.40566   0.48659   0.05488   0.00000  Uiso   1.00
H126   H     0.40844   0.67354   0.04215   0.00000  Uiso   1.00
H127   H     0.27526   0.61522   0.19421   0.00000  Uiso   1.00
H128   H     0.47160   0.37630   0.03525   0.00000  Uiso   1.00
H129   H     0.47746   0.77050   0.00841   0.00000  Uiso   1.00
O130   O     0.37410   0.62682   0.24526   0.00000  Uiso   1.00
O131   O     0.63169   0.31336   0.03671   0.00000  Uiso   1.00
O132   O     0.63939   0.83055   0.00150   0.00000  Uiso   1.00
N133   N     0.49968   0.61791   0.21011   0.00000  Uiso   1.00
N134   N     0.68323   0.39452   0.06150   0.00000  Uiso   1.00
N135   N     0.68873   0.76306   0.03640   0.00000  Uiso   1.00
N136   N     0.34871   0.61477   0.19375   0.00000  Uiso   1.00
N137   N     0.53226   0.39138   0.04514   0.00000  Uiso   1.00
N138   N     0.53776   0.75992   0.02004   0.00000  Uiso   1.00
C139   C     0.63634   0.04918   0.39549   0.00000  Uiso   1.00
C140   C     0.56162   0.04210   0.37031   0.00000  Uiso   1.00
C141   C     0.58292   0.03295   0.34017   0.00000  Uiso   1.00
C142   C     0.50425   0.02760   0.32066   0.00000  Uiso   1.00
C143   C     0.40292   0.01608   0.28000   0.00000  Uiso   1.00
C144   C     0.61379   0.10560   0.41022   0.00000  Uiso   1.00
C145   C     0.67897   0.14982   0.41363   0.00000  Uiso   1.00
C146   C     0.64422   0.19792   0.42772   0.00000  Uiso   1.00
C147   C     0.62390   0.28495   0.44905   0.00000  Uiso   1.00
C148   C     0.61189   0.00450   0.41892   0.00000  Uiso   1.00
C149   C     0.67547   0.96373   0.42965   0.00000  Uiso   1.00
C150   C     0.63913   0.92673   0.45106   0.00000  Uiso   1.00
C151   C     0.61586   0.85680   0.48588   0.00000  Uiso   1.00
C152   C     0.45875   0.05597   0.41444   0.00000  Uiso   1.00
C153   C     0.46517   0.04580   0.38061   0.00000  Uiso   1.00
C154   C     0.38645   0.04046   0.36114   0.00000  Uiso   1.00
C155   C     0.40762   0.03129   0.33097   0.00000  Uiso   1.00
C156   C     0.51734   0.10929   0.42052   0.00000  Uiso   1.00
C157   C     0.48249   0.15733   0.43461   0.00000  Uiso   1.00
C158   C     0.54759   0.20162   0.43804   0.00000  Uiso   1.00
C159   C     0.51544   0.00819   0.42921   0.00000  Uiso   1.00
C160   C     0.47899   0.97125   0.45062   0.00000  Uiso   1.00
C161   C     0.54250   0.93042   0.46138   0.00000  Uiso   1.00
H162   H     0.71143   0.04631   0.38747   0.00000  Uiso   1.00
H163   H     0.65758   0.03010   0.33221   0.00000  Uiso   1.00
H164   H     0.75361   0.14695   0.40567   0.00000  Uiso   1.00
H165   H     0.75011   0.96089   0.42167   0.00000  Uiso   1.00
H166   H     0.55533   0.01377   0.27547   0.00000  Uiso   1.00
H167   H     0.75783   0.26015   0.43038   0.00000  Uiso   1.00
H168   H     0.75045   0.86781   0.46413   0.00000  Uiso   1.00
H169   H     0.38365   0.05885   0.42246   0.00000  Uiso   1.00
H170   H     0.31181   0.04332   0.36912   0.00000  Uiso   1.00
H171   H     0.40784   0.16017   0.44258   0.00000  Uiso   1.00
H172   H     0.40434   0.97411   0.45858   0.00000  Uiso   1.00
H173   H     0.27470   0.02450   0.30543   0.00000  Uiso   1.00
H174   H     0.47719   0.27088   0.46033   0.00000  Uiso   1.00
H175   H     0.46982   0.87854   0.49409   0.00000  Uiso   1.00
O176   O     0.37367   0.00871   0.25473   0.00000  Uiso   1.00
O177   O     0.63934   0.33195   0.45796   0.00000  Uiso   1.00
O178   O     0.62966   0.81721   0.50224   0.00000  Uiso   1.00
N179   N     0.49914   0.01841   0.28985   0.00000  Uiso   1.00
N180   N     0.68846   0.24877   0.43467   0.00000  Uiso   1.00
N181   N     0.68157   0.88197   0.46623   0.00000  Uiso   1.00
N182   N     0.34814   0.02419   0.30597   0.00000  Uiso   1.00
N183   N     0.53745   0.25454   0.45079   0.00000  Uiso   1.00
N184   N     0.53057   0.88775   0.48235   0.00000  Uiso   1.00
C185   C     0.13715   0.90787   0.89588   0.00000  Uiso   1.00
C186   C     0.06237   0.90152   0.87067   0.00000  Uiso   1.00
C187   C     0.08359   0.89445   0.84036   0.00000  Uiso   1.00
C188   C     0.00487   0.88944   0.82084   0.00000  Uiso   1.00
C189   C     0.90342   0.87932   0.78010   0.00000  Uiso   1.00
C190   C     0.11295   0.96310   0.91162   0.00000  Uiso   1.00
C191   C     0.17671   0.00779   0.91574   0.00000  Uiso   1.00
C192   C     0.14057   0.05461   0.93071   0.00000  Uiso   1.00
C193   C     0.11767   0.14006   0.95357   0.00000  Uiso   1.00
C194   C     0.11446   0.86152   0.91853   0.00000  Uiso   1.00
C195   C     0.17950   0.82081   0.92848   0.00000  Uiso   1.00
C196   C     0.14463   0.78213   0.94927   0.00000  Uiso   1.00
C197   C     0.12409   0.70987   0.98286   0.00000  Uiso   1.00
C198   C     0.95961   0.91156   0.91512   0.00000  Uiso   1.00
C199   C     0.96594   0.90353   0.88112   0.00000  Uiso   1.00
C200   C     0.88716   0.89853   0.86164   0.00000  Uiso   1.00
C201   C     0.90826   0.89145   0.83131   0.00000  Uiso   1.00
C202   C     0.01653   0.96510   0.92207   0.00000  Uiso   1.00
C203   C     0.98028   0.01187   0.93703   0.00000  Uiso   1.00
C204   C     0.04396   0.05662   0.94118   0.00000  Uiso   1.00
C205   C     0.01803   0.86353   0.92899   0.00000  Uiso   1.00
C206   C     0.98307   0.82490   0.94976   0.00000  Uiso   1.00
C207   C     0.04803   0.78414   0.95974   0.00000  Uiso   1.00
H208   H     0.21223   0.90631   0.88774   0.00000  Uiso   1.00
H209   H     0.15823   0.89290   0.83227   0.00000  Uiso   1.00
H210   H     0.25133   0.00622   0.90766   0.00000  Uiso   1.00
H211   H     0.25411   0.81928   0.92038   0.00000  Uiso   1.00
H212   H     0.05583   0.87894   0.77539   0.00000  Uiso   1.00
H213   H     0.25216   0.11787   0.93434   0.00000  Uiso   1.00
H214   H     0.25803   0.72366   0.96118   0.00000  Uiso   1.00
H215   H     0.88454   0.91312   0.92326   0.00000  Uiso   1.00
H216   H     0.81255   0.90009   0.86974   0.00000  Uiso   1.00
H217   H     0.90566   0.01341   0.94512   0.00000  Uiso   1.00
H218   H     0.90844   0.82646   0.95785   0.00000  Uiso   1.00
H219   H     0.77526   0.88478   0.80579   0.00000  Uiso   1.00
H220   H     0.97160   0.12370   0.96475   0.00000  Uiso   1.00
H221   H     0.97746   0.72950   0.99159   0.00000  Uiso   1.00
O222   O     0.87410   0.87318   0.75474   0.00000  Uiso   1.00
O223   O     0.13169   0.18664   0.96329   0.00000  Uiso   1.00
O224   O     0.13939   0.66945   0.99850   0.00000  Uiso   1.00
N225   N     0.99968   0.88209   0.78989   0.00000  Uiso   1.00
N226   N     0.18323   0.10548   0.93850   0.00000  Uiso   1.00
N227   N     0.18873   0.73694   0.96360   0.00000  Uiso   1.00
N228   N     0.84871   0.88523   0.80625   0.00000  Uiso   1.00
N229   N     0.03226   0.10862   0.95486   0.00000  Uiso   1.00
N230   N     0.03776   0.74008   0.97996   0.00000  Uiso   1.00
C231   C     0.13634   0.45082   0.60451   0.00000  Uiso   1.00
C232   C     0.06162   0.45790   0.62969   0.00000  Uiso   1.00
C233   C     0.08292   0.46705   0.65983   0.00000  Uiso   1.00
C234   C     0.00425   0.47240   0.67934   0.00000  Uiso   1.00
C235   C     0.90292   0.48392   0.72000   0.00000  Uiso   1.00
C236   C     0.11379   0.39440   0.58978   0.00000  Uiso   1.00
C237   C     0.17897   0.35018   0.58637   0.00000  Uiso   1.00
C238   C     0.14422   0.30208   0.57228   0.00000  Uiso   1.00
C239   C     0.12390   0.21505   0.55095   0.00000  Uiso   1.00
C240   C     0.11189   0.49550   0.58108   0.00000  Uiso   1.00
C241   C     0.17547   0.53627   0.57035   0.00000  Uiso   1.00
C242   C     0.13913   0.57327   0.54894   0.00000  Uiso   1.00
C243   C     0.11586   0.64320   0.51412   0.00000  Uiso   1.00
C244   C     0.95875   0.44403   0.58556   0.00000  Uiso   1.00
C245   C     0.96517   0.45420   0.61939   0.00000  Uiso   1.00
C246   C     0.88645   0.45954   0.63886   0.00000  Uiso   1.00
C247   C     0.90762   0.46871   0.66903   0.00000  Uiso   1.00
C248   C     0.01734   0.39071   0.57948   0.00000  Uiso   1.00
C249   C     0.98249   0.34267   0.56539   0.00000  Uiso   1.00
C250   C     0.04759   0.29838   0.56196   0.00000  Uiso   1.00
C251   C     0.01544   0.49181   0.57079   0.00000  Uiso   1.00
C252   C     0.97899   0.52875   0.54938   0.00000  Uiso   1.00
C253   C     0.04250   0.56958   0.53862   0.00000  Uiso   1.00
H254   H     0.21143   0.45369   0.61253   0.00000  Uiso   1.00
H255   H     0.15758   0.46990   0.66779   0.00000  Uiso   1.00
H256   H     0.25361   0.35305   0.59433   0.00000  Uiso   1.00
H257   H     0.25011   0.53911   0.57833   0.00000  Uiso   1.00
H258   H     0.05533   0.48623   0.72453   0.00000  Uiso   1.00
H259   H     0.25783   0.23985   0.56962   0.00000  Uiso   1.00
H260   H     0.25045   0.63219   0.53587   0.00000  Uiso   1.00
H261   H     0.88365   0.44115   0.57754   0.00000  Uiso   1.00
H262   H     0.81181   0.45668   0.63088   0.00000  Uiso   1.00
H263   H     0.90784   0.33983   0.55742   0.00000  Uiso   1.00
H264   H     0.90434   0.52589   0.54142   0.00000  Uiso   1.00
H265   H     0.77470   0.47550   0.69457   0.00000  Uiso   1.00
H266   H     0.97719   0.22912   0.53967   0.00000  Uiso   1.00
H267   H     0.96982   0.62146   0.50591   0.00000  Uiso   1.00
O268   O     0.87367   0.49129   0.74527   0.00000  Uiso   1.00
O269   O     0.13934   0.16805   0.54204   0.00000  Uiso   1.00
O270   O     0.12966   0.68279   0.49776   0.00000  Uiso   1.00
N271   N     0.99914   0.48159   0.71015   0.00000  Uiso   1.00
N272   N     0.18846   0.25123   0.56533   0.00000  Uiso   1.00
N273   N     0.18157   0.61803   0.53377   0.00000  Uiso   1.00
N274   N     0.84814   0.47581   0.69403   0.00000  Uiso   1.00
N275   N     0.03745   0.24546   0.54921   0.00000  Uiso   1.00
N276   N     0.03057   0.61225   0.51765   0.00000  Uiso   1.00
C277   C     0.36285   0.59213   0.39588   0.00000  Uiso   1.00
C278   C     0.43763   0.59848   0.37067   0.00000  Uiso   1.00
C279   C     0.41641   0.60555   0.34036   0.00000  Uiso   1.00
C280   C     0.49513   0.61056   0.32084   0.00000  Uiso   1.00
C281   C     0.59658   0.62068   0.28010   0.00000  Uiso   1.00
C282   C     0.38705   0.53690   0.41162   0.00000  Uiso   1.00
C283   C     0.32329   0.49221   0.41574   0.00000  Uiso   1.00
C284   C     0.35943   0.44539   0.43071   0.00000  Uiso   1.00
C285   C     0.38233   0.35994   0.45357   0.00000  Uiso   1.00
C286   C     0.38554   0.63848   0.41853   0.00000  Uiso   1.00
C287   C     0.32050   0.67919   0.42848   0.00000  Uiso   1.00
C288   C     0.35537   0.71787   0.44927   0.00000  Uiso   1.00
C289   C     0.37591   0.79013   0.48286   0.00000  Uiso   1.00
C290   C     0.54039   0.58844   0.41512   0.00000  Uiso   1.00
C291   C     0.53406   0.59647   0.38112   0.00000  Uiso   1.00
C292   C     0.61284   0.60147   0.36164   0.00000  Uiso   1.00
C293   C     0.59174   0.60855   0.33131   0.00000  Uiso   1.00
C294   C     0.48347   0.53490   0.42207   0.00000  Uiso   1.00
C295   C     0.51972   0.48813   0.43703   0.00000  Uiso   1.00
C296   C     0.45604   0.44338   0.44118   0.00000  Uiso   1.00
C297   C     0.48197   0.63647   0.42899   0.00000  Uiso   1.00
C298   C     0.51693   0.67510   0.44976   0.00000  Uiso   1.00
C299   C     0.45197   0.71586   0.45974   0.00000  Uiso   1.00
H300   H     0.28777   0.59369   0.38774   0.00000  Uiso   1.00
H301   H     0.34177   0.60710   0.33227   0.00000  Uiso   1.00
H302   H     0.24867   0.49378   0.40766   0.00000  Uiso   1.00
H303   H     0.24589   0.68072   0.42038   0.00000  Uiso   1.00
H304   H     0.44417   0.62106   0.27539   0.00000  Uiso   1.00
H305   H     0.24784   0.38213   0.43434   0.00000  Uiso   1.00
H306   H     0.24197   0.77634   0.46118   0.00000  Uiso   1.00
H307   H     0.61546   0.58688   0.42326   0.00000  Uiso   1.00
H308   H     0.68745   0.59991   0.36974   0.00000  Uiso   1.00
H309   H     0.59434   0.48659   0.44512   0.00000  Uiso   1.00
H310   H     0.59156   0.67354   0.45785   0.00000  Uiso   1.00
H311   H     0.72474   0.61522   0.30579   0.00000  Uiso   1.00
H312   H     0.52840   0.37630   0.46475   0.00000  Uiso   1.00
H313   H     0.52254   0.77050   0.49159   0.00000  Uiso   1.00
O314   O     0.62590   0.62682   0.25474   0.00000  Uiso   1.00
O315   O     0.36831   0.31336   0.46329   0.00000  Uiso   1.00
O316   O     0.36061   0.83055   0.49850   0.00000  Uiso   1.00
N317   N     0.50032   0.61791   0.28989   0.00000  Uiso   1.00
N318   N     0.31677   0.39452   0.43850   0.00000  Uiso   1.00
N319   N     0.31127   0.76306   0.46360   0.00000  Uiso   1.00
N320   N     0.65129   0.61477   0.30625   0.00000  Uiso   1.00
N321   N     0.46774   0.39138   0.45486   0.00000  Uiso   1.00
N322   N     0.46224   0.75992   0.47996   0.00000  Uiso   1.00
C323   C     0.36366   0.04918   0.10451   0.00000  Uiso   1.00
C324   C     0.43838   0.04210   0.12969   0.00000  Uiso   1.00
C325   C     0.41708   0.03295   0.15983   0.00000  Uiso   1.00
C326   C     0.49575   0.02760   0.17934   0.00000  Uiso   1.00
C327   C     0.59708   0.01608   0.22000   0.00000  Uiso   1.00
C328   C     0.38621   0.10560   0.08978   0.00000  Uiso   1.00
C329   C     0.32103   0.14982   0.08637   0.00000  Uiso   1.00
C330   C     0.35578   0.19792   0.07228   0.00000  Uiso   1.00
C331   C     0.37610   0.28495   0.05095   0.00000  Uiso   1.00
C332   C     0.38811   0.00450   0.08108   0.00000  Uiso   1.00
C333   C     0.32453   0.96373   0.07035   0.00000  Uiso   1.00
C334   C     0.36087   0.92673   0.04894   0.00000  Uiso   1.00
C335   C     0.38414   0.85680   0.01412   0.00000  Uiso   1.00
C336   C     0.54125   0.05597   0.08556   0.00000  Uiso   1.00
C337   C     0.53483   0.04580   0.11939   0.00000  Uiso   1.00
C338   C     0.61355   0.04046   0.13886   0.00000  Uiso   1.00
C339   C     0.59238   0.03129   0.16903   0.00000  Uiso   1.00
C340   C     0.48266   0.10929   0.07948   0.00000  Uiso   1.00
C341   C     0.51751   0.15733   0.06539   0.00000  Uiso   1.00
C342   C     0.45241   0.20162   0.06196   0.00000  Uiso   1.00
C343   C     0.48456   0.00819   0.07079   0.00000  Uiso   1.00
C344   C     0.52101   0.97125   0.04938   0.00000  Uiso   1.00
C345   C     0.45750   0.93042   0.03862   0.00000  Uiso   1.00
H346   H     0.28857   0.04631   0.11253   0.00000  Uiso   1.00
H347   H     0.34242   0.03010   0.16779   0.00000  Uiso   1.00
H348   H     0.24639   0.14695   0.09433   0.00000  Uiso   1.00
H349   H     0.24989   0.96089   0.07833   0.00000  Uiso   1.00
H350   H     0.44467   0.01377   0.22453   0.00000  Uiso   1.00
H351   H     0.24217   0.26015   0.06962   0.00000  Uiso   1.00
H352   H     0.24955   0.86781   0.03587   0.00000  Uiso   1.00
H353   H     0.61635   0.05885   0.07754   0.00000  Uiso   1.00
H354   H     0.68819   0.04332   0.13088   0.00000  Uiso   1.00
H355   H     0.59216   0.16017   0.05742   0.00000  Uiso   1.00
H356   H     0.59566   0.97411   0.04142   0.00000  Uiso   1.00
H357   H     0.72530   0.02450   0.19457   0.00000  Uiso   1.00
H358   H     0.52281   0.27088   0.03967   0.00000  Uiso   1.00
H359   H     0.53018   0.87854   0.00591   0.00000  Uiso   1.00
O360   O     0.62633   0.00871   0.24527   0.00000  Uiso   1.00
O361   O     0.36066   0.33195   0.04204   0.00000  Uiso   1.00
O362   O     0.37034   0.81721   0.99776   0.00000  Uiso   1.00
N363   N     0.50086   0.01841   0.21015   0.00000  Uiso   1.00
N364   N     0.31154   0.24877   0.06533   0.00000  Uiso   1.00
N365   N     0.31843   0.88197   0.03377   0.00000  Uiso   1.00
N366   N     0.65186   0.02419   0.19403   0.00000  Uiso   1.00
N367   N     0.46255   0.25454   0.04921   0.00000  Uiso   1.00
N368   N     0.46943   0.88775   0.01765   0.00000  Uiso   1.00
C369   C     0.13715   0.09213   0.39588   0.00000  Uiso   1.00
C370   C     0.06237   0.09848   0.37067   0.00000  Uiso   1.00
C371   C     0.08359   0.10555   0.34036   0.00000  Uiso   1.00
C372   C     0.00487   0.11056   0.32084   0.00000  Uiso   1.00
C373   C     0.90342   0.12068   0.28010   0.00000  Uiso   1.00
C374   C     0.11295   0.03690   0.41162   0.00000  Uiso   1.00
C375   C     0.17671   0.99221   0.41574   0.00000  Uiso   1.00
C376   C     0.14057   0.94539   0.43071   0.00000  Uiso   1.00
C377   C     0.11767   0.85994   0.45357   0.00000  Uiso   1.00
C378   C     0.11446   0.13848   0.41853   0.00000  Uiso   1.00
C379   C     0.17950   0.17919   0.42848   0.00000  Uiso   1.00
C380   C     0.14463   0.21787   0.44927   0.00000  Uiso   1.00
C381   C     0.12409   0.29013   0.48286   0.00000  Uiso   1.00
C382   C     0.95961   0.08844   0.41512   0.00000  Uiso   1.00
C383   C     0.96594   0.09647   0.38112   0.00000  Uiso   1.00
C384   C     0.88716   0.10147   0.36164   0.00000  Uiso   1.00
C385   C     0.90826   0.10855   0.33131   0.00000  Uiso   1.00
C386   C     0.01653   0.03490   0.42207   0.00000  Uiso   1.00
C387   C     0.98028   0.98813   0.43703   0.00000  Uiso   1.00
C388   C     0.04396   0.94338   0.44118   0.00000  Uiso   1.00
C389   C     0.01803   0.13647   0.42899   0.00000  Uiso   1.00
C390   C     0.98307   0.17510   0.44976   0.00000  Uiso   1.00
C391   C     0.04803   0.21586   0.45974   0.00000  Uiso   1.00
H392   H     0.21223   0.09369   0.38774   0.00000  Uiso   1.00
H393   H     0.15823   0.10710   0.33227   0.00000  Uiso   1.00
H394   H     0.25133   0.99378   0.40766   0.00000  Uiso   1.00
H395   H     0.25411   0.18072   0.42038   0.00000  Uiso   1.00
H396   H     0.05583   0.12106   0.27539   0.00000  Uiso   1.00
H397   H     0.25216   0.88213   0.43434   0.00000  Uiso   1.00
H398   H     0.25803   0.27634   0.46118   0.00000  Uiso   1.00
H399   H     0.88454   0.08688   0.42326   0.00000  Uiso   1.00
H400   H     0.81255   0.09991   0.36974   0.00000  Uiso   1.00
H401   H     0.90566   0.98659   0.44512   0.00000  Uiso   1.00
H402   H     0.90844   0.17354   0.45785   0.00000  Uiso   1.00
H403   H     0.77526   0.11522   0.30579   0.00000  Uiso   1.00
H404   H     0.97160   0.87630   0.46475   0.00000  Uiso   1.00
H405   H     0.97746   0.27050   0.49159   0.00000  Uiso   1.00
O406   O     0.87410   0.12682   0.25474   0.00000  Uiso   1.00
O407   O     0.13169   0.81336   0.46329   0.00000  Uiso   1.00
O408   O     0.13939   0.33055   0.49850   0.00000  Uiso   1.00
N409   N     0.99968   0.11791   0.28989   0.00000  Uiso   1.00
N410   N     0.18323   0.89452   0.43850   0.00000  Uiso   1.00
N411   N     0.18873   0.26306   0.46360   0.00000  Uiso   1.00
N412   N     0.84871   0.11477   0.30625   0.00000  Uiso   1.00
N413   N     0.03226   0.89138   0.45486   0.00000  Uiso   1.00
N414   N     0.03776   0.25992   0.47996   0.00000  Uiso   1.00
C415   C     0.13634   0.54918   0.10451   0.00000  Uiso   1.00
C416   C     0.06162   0.54210   0.12969   0.00000  Uiso   1.00
C417   C     0.08292   0.53295   0.15983   0.00000  Uiso   1.00
C418   C     0.00425   0.52760   0.17934   0.00000  Uiso   1.00
C419   C     0.90292   0.51608   0.22000   0.00000  Uiso   1.00
C420   C     0.11379   0.60560   0.08978   0.00000  Uiso   1.00
C421   C     0.17897   0.64982   0.08637   0.00000  Uiso   1.00
C422   C     0.14422   0.69792   0.07228   0.00000  Uiso   1.00
C423   C     0.12390   0.78495   0.05095   0.00000  Uiso   1.00
C424   C     0.11189   0.50450   0.08108   0.00000  Uiso   1.00
C425   C     0.17547   0.46373   0.07035   0.00000  Uiso   1.00
C426   C     0.13913   0.42673   0.04894   0.00000  Uiso   1.00
C427   C     0.11586   0.35680   0.01412   0.00000  Uiso   1.00
C428   C     0.95875   0.55597   0.08556   0.00000  Uiso   1.00
C429   C     0.96517   0.54580   0.11939   0.00000  Uiso   1.00
C430   C     0.88645   0.54046   0.13886   0.00000  Uiso   1.00
C431   C     0.90762   0.53129   0.16903   0.00000  Uiso   1.00
C432   C     0.01734   0.60929   0.07948   0.00000  Uiso   1.00
C433   C     0.98249   0.65733   0.06539   0.00000  Uiso   1.00
C434   C     0.04759   0.70162   0.06196   0.00000  Uiso   1.00
C435   C     0.01544   0.50819   0.07079   0.00000  Uiso   1.00
C436   C     0.97899   0.47125   0.04938   0.00000  Uiso   1.00
C437   C     0.04250   0.43042   0.03862   0.00000  Uiso   1.00
H438   H     0.21143   0.54631   0.11253   0.00000  Uiso   1.00
H439   H     0.15758   0.53010   0.16779   0.00000  Uiso   1.00
H440   H     0.25361   0.64695   0.09433   0.00000  Uiso   1.00
H441   H     0.25011   0.46089   0.07833   0.00000  Uiso   1.00
H442   H     0.05533   0.51377   0.22453   0.00000  Uiso   1.00
H443   H     0.25783   0.76015   0.06962   0.00000  Uiso   1.00
H444   H     0.25045   0.36781   0.03587   0.00000  Uiso   1.00
H445   H     0.88365   0.55885   0.07754   0.00000  Uiso   1.00
H446   H     0.81181   0.54332   0.13088   0.00000  Uiso   1.00
H447   H     0.90784   0.66017   0.05742   0.00000  Uiso   1.00
H448   H     0.90434   0.47411   0.04142   0.00000  Uiso   1.00
H449   H     0.77470   0.52450   0.19457   0.00000  Uiso   1.00
H450   H     0.97719   0.77088   0.03967   0.00000  Uiso   1.00
H451   H     0.96982   0.37854   0.00591   0.00000  Uiso   1.00
O452   O     0.87367   0.50871   0.24527   0.00000  Uiso   1.00
O453   O     0.13934   0.83195   0.04204   0.00000  Uiso   1.00
O454   O     0.12966   0.31721   0.99776   0.00000  Uiso   1.00
N455   N     0.99914   0.51841   0.21015   0.00000  Uiso   1.00
N456   N     0.18846   0.74877   0.06533   0.00000  Uiso   1.00
N457   N     0.18157   0.38197   0.03377   0.00000  Uiso   1.00
N458   N     0.84814   0.52419   0.19403   0.00000  Uiso   1.00
N459   N     0.03745   0.75454   0.04921   0.00000  Uiso   1.00
N460   N     0.03057   0.38775   0.01765   0.00000  Uiso   1.00
C461   C     0.36285   0.40787   0.89588   0.00000  Uiso   1.00
C462   C     0.43763   0.40152   0.87067   0.00000  Uiso   1.00
C463   C     0.41641   0.39445   0.84036   0.00000  Uiso   1.00
C464   C     0.49513   0.38944   0.82084   0.00000  Uiso   1.00
C465   C     0.59658   0.37932   0.78010   0.00000  Uiso   1.00
C466   C     0.38705   0.46310   0.91162   0.00000  Uiso   1.00
C467   C     0.32329   0.50779   0.91574   0.00000  Uiso   1.00
C468   C     0.35943   0.55461   0.93071   0.00000  Uiso   1.00
C469   C     0.38233   0.64006   0.95357   0.00000  Uiso   1.00
C470   C     0.38554   0.36152   0.91853   0.00000  Uiso   1.00
C471   C     0.32050   0.32081   0.92848   0.00000  Uiso   1.00
C472   C     0.35537   0.28213   0.94927   0.00000  Uiso   1.00
C473   C     0.37591   0.20987   0.98286   0.00000  Uiso   1.00
C474   C     0.54039   0.41156   0.91512   0.00000  Uiso   1.00
C475   C     0.53406   0.40353   0.88112   0.00000  Uiso   1.00
C476   C     0.61284   0.39853   0.86164   0.00000  Uiso   1.00
C477   C     0.59174   0.39145   0.83131   0.00000  Uiso   1.00
C478   C     0.48347   0.46510   0.92207   0.00000  Uiso   1.00
C479   C     0.51972   0.51187   0.93703   0.00000  Uiso   1.00
C480   C     0.45604   0.55662   0.94118   0.00000  Uiso   1.00
C481   C     0.48197   0.36353   0.92899   0.00000  Uiso   1.00
C482   C     0.51693   0.32490   0.94976   0.00000  Uiso   1.00
C483   C     0.45197   0.28414   0.95974   0.00000  Uiso   1.00
H484   H     0.28777   0.40631   0.88774   0.00000  Uiso   1.00
H485   H     0.34177   0.39290   0.83227   0.00000  Uiso   1.00
H486   H     0.24867   0.50622   0.90766   0.00000  Uiso   1.00
H487   H     0.24589   0.31928   0.92038   0.00000  Uiso   1.00
H488   H     0.44417   0.37894   0.77539   0.00000  Uiso   1.00
H489   H     0.24784   0.61787   0.93434   0.00000  Uiso   1.00
H490   H     0.24197   0.22366   0.96118   0.00000  Uiso   1.00
H491   H     0.61546   0.41312   0.92326   0.00000  Uiso   1.00
H492   H     0.68745   0.40009   0.86974   0.00000  Uiso   1.00
H493   H     0.59434   0.51341   0.94512   0.00000  Uiso   1.00
H494   H     0.59156   0.32646   0.95785   0.00000  Uiso   1.00
H495   H     0.72474   0.38478   0.80579   0.00000  Uiso   1.00
H496   H     0.52840   0.62370   0.96475   0.00000  Uiso   1.00
H497   H     0.52254   0.22950   0.99159   0.00000  Uiso   1.00
O498   O     0.62590   0.37318   0.75474   0.00000  Uiso   1.00
O499   O     0.36831   0.68664   0.96329   0.00000  Uiso   1.00
O500   O     0.36061   0.16945   0.99850   0.00000  Uiso   1.00
N501   N     0.50032   0.38209   0.78989   0.00000  Uiso   1.00
N502   N     0.31677   0.60548   0.93850   0.00000  Uiso   1.00
N503   N     0.31127   0.23694   0.96360   0.00000  Uiso   1.00
N504   N     0.65129   0.38523   0.80625   0.00000  Uiso   1.00
N505   N     0.46774   0.60862   0.95486   0.00000  Uiso   1.00
N506   N     0.46224   0.24008   0.97996   0.00000  Uiso   1.00
C507   C     0.36366   0.95082   0.60451   0.00000  Uiso   1.00
C508   C     0.43838   0.95790   0.62969   0.00000  Uiso   1.00
C509   C     0.41708   0.96705   0.65983   0.00000  Uiso   1.00
C510   C     0.49575   0.97240   0.67934   0.00000  Uiso   1.00
C511   C     0.59708   0.98392   0.72000   0.00000  Uiso   1.00
C512   C     0.38621   0.89440   0.58978   0.00000  Uiso   1.00
C513   C     0.32103   0.85018   0.58637   0.00000  Uiso   1.00
C514   C     0.35578   0.80208   0.57228   0.00000  Uiso   1.00
C515   C     0.37610   0.71505   0.55095   0.00000  Uiso   1.00
C516   C     0.38811   0.99550   0.58108   0.00000  Uiso   1.00
C517   C     0.32453   0.03627   0.57035   0.00000  Uiso   1.00
C518   C     0.36087   0.07327   0.54894   0.00000  Uiso   1.00
C519   C     0.38414   0.14320   0.51412   0.00000  Uiso   1.00
C520   C     0.54125   0.94403   0.58556   0.00000  Uiso   1.00
C521   C     0.53483   0.95420   0.61939   0.00000  Uiso   1.00
C522   C     0.61355   0.95954   0.63886   0.00000  Uiso   1.00
C523   C     0.59238   0.96871   0.66903   0.00000  Uiso   1.00
C524   C     0.48266   0.89071   0.57948   0.00000  Uiso   1.00
C525   C     0.51751   0.84267   0.56539   0.00000  Uiso   1.00
C526   C     0.45241   0.79838   0.56196   0.00000  Uiso   1.00
C527   C     0.48456   0.99181   0.57079   0.00000  Uiso   1.00
C528   C     0.52101   0.02875   0.54938   0.00000  Uiso   1.00
C529   C     0.45750   0.06958   0.53862   0.00000  Uiso   1.00
H530   H     0.28857   0.95369   0.61253   0.00000  Uiso   1.00
H531   H     0.34242   0.96990   0.66779   0.00000  Uiso   1.00
H532   H     0.24639   0.85305   0.59433   0.00000  Uiso   1.00
H533   H     0.24989   0.03911   0.57833   0.00000  Uiso   1.00
H534   H     0.44467   0.98623   0.72453   0.00000  Uiso   1.00
H535   H     0.24217   0.73985   0.56962   0.00000  Uiso   1.00
H536   H     0.24955   0.13219   0.53587   0.00000  Uiso   1.00
H537   H     0.61635   0.94115   0.57754   0.00000  Uiso   1.00
H538   H     0.68819   0.95668   0.63088   0.00000  Uiso   1.00
H539   H     0.59216   0.83983   0.55742   0.00000  Uiso   1.00
H540   H     0.59566   0.02589   0.54142   0.00000  Uiso   1.00
H541   H     0.72530   0.97550   0.69457   0.00000  Uiso   1.00
H542   H     0.52281   0.72912   0.53967   0.00000  Uiso   1.00
H543   H     0.53018   0.12146   0.50591   0.00000  Uiso   1.00
O544   O     0.62633   0.99129   0.74527   0.00000  Uiso   1.00
O545   O     0.36066   0.66805   0.54204   0.00000  Uiso   1.00
O546   O     0.37034   0.18279   0.49776   0.00000  Uiso   1.00
N547   N     0.50086   0.98159   0.71015   0.00000  Uiso   1.00
N548   N     0.31154   0.75123   0.56533   0.00000  Uiso   1.00
N549   N     0.31843   0.11803   0.53377   0.00000  Uiso   1.00
N550   N     0.65186   0.97581   0.69403   0.00000  Uiso   1.00
N551   N     0.46255   0.74546   0.54921   0.00000  Uiso   1.00
N552   N     0.46943   0.11225   0.51765   0.00000  Uiso   1.00
C553   C     0.86285   0.09213   0.10412   0.00000  Uiso   1.00
C554   C     0.93763   0.09848   0.12933   0.00000  Uiso   1.00
C555   C     0.91641   0.10555   0.15964   0.00000  Uiso   1.00
C556   C     0.99513   0.11056   0.17916   0.00000  Uiso   1.00
C557   C     0.09658   0.12068   0.21990   0.00000  Uiso   1.00
C558   C     0.88705   0.03690   0.08838   0.00000  Uiso   1.00
C559   C     0.82329   0.99221   0.08426   0.00000  Uiso   1.00
C560   C     0.85943   0.94539   0.06929   0.00000  Uiso   1.00
C561   C     0.88233   0.85994   0.04643   0.00000  Uiso   1.00
C562   C     0.88554   0.13848   0.08147   0.00000  Uiso   1.00
C563   C     0.82050   0.17919   0.07152   0.00000  Uiso   1.00
C564   C     0.85537   0.21787   0.05073   0.00000  Uiso   1.00
C565   C     0.87591   0.29013   0.01714   0.00000  Uiso   1.00
C566   C     0.04039   0.08844   0.08488   0.00000  Uiso   1.00
C567   C     0.03406   0.09647   0.11888   0.00000  Uiso   1.00
C568   C     0.11284   0.10147   0.13836   0.00000  Uiso   1.00
C569   C     0.09174   0.10855   0.16869   0.00000  Uiso   1.00
C570   C     0.98347   0.03490   0.07793   0.00000  Uiso   1.00
C571   C     0.01972   0.98813   0.06297   0.00000  Uiso   1.00
C572   C     0.95604   0.94338   0.05882   0.00000  Uiso   1.00
C573   C     0.98197   0.13647   0.07101   0.00000  Uiso   1.00
C574   C     0.01693   0.17510   0.05024   0.00000  Uiso   1.00
C575   C     0.95197   0.21586   0.04026   0.00000  Uiso   1.00
H576   H     0.78777   0.09369   0.11226   0.00000  Uiso   1.00
H577   H     0.84177   0.10710   0.16773   0.00000  Uiso   1.00
H578   H     0.74867   0.99378   0.09234   0.00000  Uiso   1.00
H579   H     0.74589   0.18072   0.07962   0.00000  Uiso   1.00
H580   H     0.94417   0.12106   0.22461   0.00000  Uiso   1.00
H581   H     0.74784   0.88213   0.06566   0.00000  Uiso   1.00
H582   H     0.74197   0.27634   0.03882   0.00000  Uiso   1.00
H583   H     0.11546   0.08688   0.07674   0.00000  Uiso   1.00
H584   H     0.18745   0.09991   0.13026   0.00000  Uiso   1.00
H585   H     0.09434   0.98659   0.05488   0.00000  Uiso   1.00
H586   H     0.09156   0.17354   0.04215   0.00000  Uiso   1.00
H587   H     0.22474   0.11522   0.19421   0.00000  Uiso   1.00
H588   H     0.02840   0.87630   0.03525   0.00000  Uiso   1.00
H589   H     0.02254   0.27050   0.00841   0.00000  Uiso   1.00
O590   O     0.12590   0.12682   0.24526   0.00000  Uiso   1.00
O591   O     0.86831   0.81336   0.03671   0.00000  Uiso   1.00
O592   O     0.86061   0.33055   0.00150   0.00000  Uiso   1.00
N593   N     0.00032   0.11791   0.21011   0.00000  Uiso   1.00
N594   N     0.81677   0.89452   0.06150   0.00000  Uiso   1.00
N595   N     0.81127   0.26306   0.03640   0.00000  Uiso   1.00
N596   N     0.15129   0.11477   0.19375   0.00000  Uiso   1.00
N597   N     0.96774   0.89138   0.04514   0.00000  Uiso   1.00
N598   N     0.96224   0.25992   0.02004   0.00000  Uiso   1.00
C599   C     0.86366   0.54918   0.39549   0.00000  Uiso   1.00
C600   C     0.93838   0.54210   0.37031   0.00000  Uiso   1.00
C601   C     0.91708   0.53295   0.34017   0.00000  Uiso   1.00
C602   C     0.99575   0.52760   0.32066   0.00000  Uiso   1.00
C603   C     0.09708   0.51608   0.28000   0.00000  Uiso   1.00
C604   C     0.88621   0.60560   0.41022   0.00000  Uiso   1.00
C605   C     0.82103   0.64982   0.41363   0.00000  Uiso   1.00
C606   C     0.85578   0.69792   0.42772   0.00000  Uiso   1.00
C607   C     0.87610   0.78495   0.44905   0.00000  Uiso   1.00
C608   C     0.88811   0.50450   0.41892   0.00000  Uiso   1.00
C609   C     0.82453   0.46373   0.42965   0.00000  Uiso   1.00
C610   C     0.86087   0.42673   0.45106   0.00000  Uiso   1.00
C611   C     0.88414   0.35680   0.48588   0.00000  Uiso   1.00
C612   C     0.04125   0.55597   0.41444   0.00000  Uiso   1.00
C613   C     0.03483   0.54580   0.38061   0.00000  Uiso   1.00
C614   C     0.11355   0.54046   0.36114   0.00000  Uiso   1.00
C615   C     0.09238   0.53129   0.33097   0.00000  Uiso   1.00
C616   C     0.98266   0.60929   0.42052   0.00000  Uiso   1.00
C617   C     0.01751   0.65733   0.43461   0.00000  Uiso   1.00
C618   C     0.95241   0.70162   0.43804   0.00000  Uiso   1.00
C619   C     0.98456   0.50819   0.42921   0.00000  Uiso   1.00
C620   C     0.02101   0.47125   0.45062   0.00000  Uiso   1.00
C621   C     0.95750   0.43042   0.46138   0.00000  Uiso   1.00
H622   H     0.78857   0.54631   0.38747   0.00000  Uiso   1.00
H623   H     0.84242   0.53010   0.33221   0.00000  Uiso   1.00
H624   H     0.74639   0.64695   0.40567   0.00000  Uiso   1.00
H625   H     0.74989   0.46089   0.42167   0.00000  Uiso   1.00
H626   H     0.94467   0.51377   0.27547   0.00000  Uiso   1.00
H627   H     0.74217   0.76015   0.43038   0.00000  Uiso   1.00
H628   H     0.74955   0.36781   0.46413   0.00000  Uiso   1.00
H629   H     0.11635   0.55885   0.42246   0.00000  Uiso   1.00
H630   H     0.18819   0.54332   0.36912   0.00000  Uiso   1.00
H631   H     0.09216   0.66017   0.44258   0.00000  Uiso   1.00
H632   H     0.09566   0.47411   0.45858   0.00000  Uiso   1.00
H633   H     0.22530   0.52450   0.30543   0.00000  Uiso   1.00
H634   H     0.02281   0.77088   0.46033   0.00000  Uiso   1.00
H635   H     0.03018   0.37854   0.49409   0.00000  Uiso   1.00
O636   O     0.12633   0.50871   0.25473   0.00000  Uiso   1.00
O637   O     0.86066   0.83195   0.45796   0.00000  Uiso   1.00
O638   O     0.87034   0.31721   0.50224   0.00000  Uiso   1.00
N639   N     0.00086   0.51841   0.28985   0.00000  Uiso   1.00
N640   N     0.81154   0.74877   0.43467   0.00000  Uiso   1.00
N641   N     0.81843   0.38197   0.46623   0.00000  Uiso   1.00
N642   N     0.15186   0.52419   0.30597   0.00000  Uiso   1.00
N643   N     0.96255   0.75454   0.45079   0.00000  Uiso   1.00
N644   N     0.96943   0.38775   0.48235   0.00000  Uiso   1.00
C645   C     0.63715   0.40787   0.60412   0.00000  Uiso   1.00
C646   C     0.56237   0.40152   0.62933   0.00000  Uiso   1.00
C647   C     0.58359   0.39445   0.65964   0.00000  Uiso   1.00
C648   C     0.50487   0.38944   0.67916   0.00000  Uiso   1.00
C649   C     0.40342   0.37932   0.71990   0.00000  Uiso   1.00
C650   C     0.61295   0.46310   0.58838   0.00000  Uiso   1.00
C651   C     0.67671   0.50779   0.58426   0.00000  Uiso   1.00
C652   C     0.64057   0.55461   0.56929   0.00000  Uiso   1.00
C653   C     0.61767   0.64006   0.54643   0.00000  Uiso   1.00
C654   C     0.61446   0.36152   0.58147   0.00000  Uiso   1.00
C655   C     0.67950   0.32081   0.57152   0.00000  Uiso   1.00
C656   C     0.64463   0.28213   0.55073   0.00000  Uiso   1.00
C657   C     0.62409   0.20987   0.51714   0.00000  Uiso   1.00
C658   C     0.45961   0.41156   0.58488   0.00000  Uiso   1.00
C659   C     0.46594   0.40353   0.61888   0.00000  Uiso   1.00
C660   C     0.38716   0.39853   0.63836   0.00000  Uiso   1.00
C661   C     0.40826   0.39145   0.66869   0.00000  Uiso   1.00
C662   C     0.51653   0.46510   0.57793   0.00000  Uiso   1.00
C663   C     0.48028   0.51187   0.56297   0.00000  Uiso   1.00
C664   C     0.54396   0.55662   0.55882   0.00000  Uiso   1.00
C665   C     0.51803   0.36353   0.57101   0.00000  Uiso   1.00
C666   C     0.48307   0.32490   0.55024   0.00000  Uiso   1.00
C667   C     0.54803   0.28414   0.54026   0.00000  Uiso   1.00
H668   H     0.71223   0.40631   0.61226   0.00000  Uiso   1.00
H669   H     0.65823   0.39290   0.66773   0.00000  Uiso   1.00
H670   H     0.75133   0.50622   0.59234   0.00000  Uiso   1.00
H671   H     0.75411   0.31928   0.57962   0.00000  Uiso   1.00
H672   H     0.55583   0.37894   0.72461   0.00000  Uiso   1.00
H673   H     0.75216   0.61787   0.56566   0.00000  Uiso   1.00
H674   H     0.75803   0.22366   0.53882   0.00000  Uiso   1.00
H675   H     0.38454   0.41312   0.57674   0.00000  Uiso   1.00
H676   H     0.31255   0.40009   0.63026   0.00000  Uiso   1.00
H677   H     0.40566   0.51341   0.55488   0.00000  Uiso   1.00
H678   H     0.40844   0.32646   0.54215   0.00000  Uiso   1.00
H679   H     0.27526   0.38478   0.69421   0.00000  Uiso   1.00
H680   H     0.47160   0.62370   0.53525   0.00000  Uiso   1.00
H681   H     0.47746   0.22950   0.50841   0.00000  Uiso   1.00
O682   O     0.37410   0.37318   0.74526   0.00000  Uiso   1.00
O683   O     0.63169   0.68664   0.53671   0.00000  Uiso   1.00
O684   O     0.63939   0.16945   0.50150   0.00000  Uiso   1.00
N685   N     0.49968   0.38209   0.71011   0.00000  Uiso   1.00
N686   N     0.68323   0.60548   0.56150   0.00000  Uiso   1.00
N687   N     0.68873   0.23694   0.53640   0.00000  Uiso   1.00
N688   N     0.34871   0.38523   0.69375   0.00000  Uiso   1.00
N689   N     0.53226   0.60862   0.54514   0.00000  Uiso   1.00
N690   N     0.53776   0.24008   0.52004   0.00000  Uiso   1.00
C691   C     0.63634   0.95082   0.89549   0.00000  Uiso   1.00
C692   C     0.56162   0.95790   0.87031   0.00000  Uiso   1.00
C693   C     0.58292   0.96705   0.84017   0.00000  Uiso   1.00
C694   C     0.50425   0.97240   0.82066   0.00000  Uiso   1.00
C695   C     0.40292   0.98392   0.78000   0.00000  Uiso   1.00
C696   C     0.61379   0.89440   0.91022   0.00000  Uiso   1.00
C697   C     0.67897   0.85018   0.91363   0.00000  Uiso   1.00
C698   C     0.64422   0.80208   0.92772   0.00000  Uiso   1.00
C699   C     0.62390   0.71505   0.94905   0.00000  Uiso   1.00
C700   C     0.61189   0.99550   0.91892   0.00000  Uiso   1.00
C701   C     0.67547   0.03627   0.92965   0.00000  Uiso   1.00
C702   C     0.63913   0.07327   0.95106   0.00000  Uiso   1.00
C703   C     0.61586   0.14320   0.98588   0.00000  Uiso   1.00
C704   C     0.45875   0.94403   0.91444   0.00000  Uiso   1.00
C705   C     0.46517   0.95420   0.88061   0.00000  Uiso   1.00
C706   C     0.38645   0.95954   0.86114   0.00000  Uiso   1.00
C707   C     0.40762   0.96871   0.83097   0.00000  Uiso   1.00
C708   C     0.51734   0.89071   0.92052   0.00000  Uiso   1.00
C709   C     0.48249   0.84267   0.93461   0.00000  Uiso   1.00
C710   C     0.54759   0.79838   0.93804   0.00000  Uiso   1.00
C711   C     0.51544   0.99181   0.92921   0.00000  Uiso   1.00
C712   C     0.47899   0.02875   0.95062   0.00000  Uiso   1.00
C713   C     0.54250   0.06958   0.96138   0.00000  Uiso   1.00
H714   H     0.71143   0.95369   0.88747   0.00000  Uiso   1.00
H715   H     0.65758   0.96990   0.83221   0.00000  Uiso   1.00
H716   H     0.75361   0.85305   0.90567   0.00000  Uiso   1.00
H717   H     0.75011   0.03911   0.92167   0.00000  Uiso   1.00
H718   H     0.55533   0.98623   0.77547   0.00000  Uiso   1.00
H719   H     0.75783   0.73985   0.93038   0.00000  Uiso   1.00
H720   H     0.75045   0.13219   0.96413   0.00000  Uiso   1.00
H721   H     0.38365   0.94115   0.92246   0.00000  Uiso   1.00
H722   H     0.31181   0.95668   0.86912   0.00000  Uiso   1.00
H723   H     0.40784   0.83983   0.94258   0.00000  Uiso   1.00
H724   H     0.40434   0.02589   0.95858   0.00000  Uiso   1.00
H725   H     0.27470   0.97550   0.80543   0.00000  Uiso   1.00
H726   H     0.47719   0.72912   0.96033   0.00000  Uiso   1.00
H727   H     0.46982   0.12146   0.99409   0.00000  Uiso   1.00
O728   O     0.37367   0.99129   0.75473   0.00000  Uiso   1.00
O729   O     0.63934   0.66805   0.95796   0.00000  Uiso   1.00
O730   O     0.62966   0.18279   0.00224   0.00000  Uiso   1.00
N731   N     0.49914   0.98159   0.78985   0.00000  Uiso   1.00
N732   N     0.68846   0.75123   0.93467   0.00000  Uiso   1.00
N733   N     0.68157   0.11803   0.96623   0.00000  Uiso   1.00
N734   N     0.34814   0.97581   0.80597   0.00000  Uiso   1.00
N735   N     0.53745   0.74546   0.95079   0.00000  Uiso   1.00
N736   N     0.53057   0.11225   0.98235   0.00000  Uiso   1.00
