data_job_03860
_audit_creation_date              2018-12-19
_audit_creation_method            'Materials Studio'
_symmetry_space_group_name_H-M    'P1'
_symmetry_Int_Tables_number       1
_symmetry_cell_setting            triclinic
loop_
_symmetry_equiv_pos_as_xyz
  x,y,z
_cell_length_a                    17.9541
_cell_length_b                    17.9541
_cell_length_c                    31.2933
_cell_angle_alpha                 90.0000
_cell_angle_beta                  90.0000
_cell_angle_gamma                 90.0000
loop_
_atom_site_label
_atom_site_type_symbol
_atom_site_fract_x
_atom_site_fract_y
_atom_site_fract_z
_atom_site_U_iso_or_equiv
_atom_site_adp_type
_atom_site_occupancy
C1     C     0.35046   0.45306   0.16398   0.00000  Uiso   1.00
C2     C     0.36979   0.40758   0.12434   0.00000  Uiso   1.00
C3     C     0.43567   0.36886   0.11770   0.00000  Uiso   1.00
C4     C     0.44265   0.33067   0.07933   0.00000  Uiso   1.00
C5     C     0.48134   0.26000   0.02243   0.00000  Uiso   1.00
C6     C     0.33226   0.53125   0.14807   0.00000  Uiso   1.00
C7     C     0.36659   0.59651   0.16138   0.00000  Uiso   1.00
C8     C     0.34196   0.66243   0.14299   0.00000  Uiso   1.00
C9     C     0.32235   0.78377   0.12295   0.00000  Uiso   1.00
C10    C     0.27752   0.42107   0.18090   0.00000  Uiso   1.00
C11    C     0.26582   0.39370   0.22183   0.00000  Uiso   1.00
C12    C     0.19510   0.36687   0.23109   0.00000  Uiso   1.00
C13    C     0.09051   0.31713   0.26203   0.00000  Uiso   1.00
C14    C     0.24568   0.45411   0.10764   0.00000  Uiso   1.00
C15    C     0.31288   0.40815   0.09374   0.00000  Uiso   1.00
C16    C     0.31975   0.37002   0.05537   0.00000  Uiso   1.00
C17    C     0.38564   0.33124   0.04867   0.00000  Uiso   1.00
C18    C     0.27535   0.53182   0.11747   0.00000  Uiso   1.00
C19    C     0.25067   0.59767   0.09905   0.00000  Uiso   1.00
C20    C     0.28495   0.66300   0.11233   0.00000  Uiso   1.00
C21    C     0.22061   0.42164   0.15030   0.00000  Uiso   1.00
C22    C     0.14990   0.39485   0.15950   0.00000  Uiso   1.00
C23    C     0.13809   0.36744   0.20043   0.00000  Uiso   1.00
H24    H     0.39476   0.45262   0.18780   0.00000  Uiso   1.00
H25    H     0.47971   0.36844   0.14139   0.00000  Uiso   1.00
H26    H     0.41062   0.59605   0.18507   0.00000  Uiso   1.00
H27    H     0.30987   0.39327   0.24551   0.00000  Uiso   1.00
H28    H     0.54879   0.27537   0.07643   0.00000  Uiso   1.00
H29    H     0.40312   0.75531   0.16854   0.00000  Uiso   1.00
H30    H     0.19066   0.32771   0.29599   0.00000  Uiso   1.00
H31    H     0.20137   0.45455   0.08381   0.00000  Uiso   1.00
H32    H     0.27570   0.37047   0.03169   0.00000  Uiso   1.00
H33    H     0.20662   0.59809   0.07537   0.00000  Uiso   1.00
H34    H     0.10587   0.39530   0.13581   0.00000  Uiso   1.00
H35    H     0.38322   0.27703   0.98740   0.00000  Uiso   1.00
H36    H     0.23754   0.75697   0.07951   0.00000  Uiso   1.00
H37    H     0.02508   0.32936   0.20695   0.00000  Uiso   1.00
O38    O     0.51840   0.22087   0.99950   0.00000  Uiso   1.00
O39    O     0.32727   0.85054   0.12035   0.00000  Uiso   1.00
O40    O     0.04853   0.28952   0.28756   0.00000  Uiso   1.00
N41    N     0.49962   0.28729   0.06263   0.00000  Uiso   1.00
N42    N     0.36343   0.73601   0.14875   0.00000  Uiso   1.00
N43    N     0.16479   0.33625   0.26790   0.00000  Uiso   1.00
N44    N     0.41052   0.28818   0.01473   0.00000  Uiso   1.00
N45    N     0.27433   0.73689   0.10084   0.00000  Uiso   1.00
N46    N     0.07570   0.33714   0.21999   0.00000  Uiso   1.00
C47    C     0.64954   0.54694   0.16398   0.00000  Uiso   1.00
C48    C     0.63021   0.59242   0.12434   0.00000  Uiso   1.00
C49    C     0.56433   0.63114   0.11770   0.00000  Uiso   1.00
C50    C     0.55735   0.66933   0.07933   0.00000  Uiso   1.00
C51    C     0.51866   0.74000   0.02243   0.00000  Uiso   1.00
C52    C     0.66774   0.46875   0.14807   0.00000  Uiso   1.00
C53    C     0.63341   0.40349   0.16138   0.00000  Uiso   1.00
C54    C     0.65804   0.33757   0.14299   0.00000  Uiso   1.00
C55    C     0.67765   0.21623   0.12295   0.00000  Uiso   1.00
C56    C     0.72248   0.57893   0.18090   0.00000  Uiso   1.00
C57    C     0.73418   0.60630   0.22183   0.00000  Uiso   1.00
C58    C     0.80490   0.63313   0.23109   0.00000  Uiso   1.00
C59    C     0.90949   0.68287   0.26203   0.00000  Uiso   1.00
C60    C     0.75432   0.54589   0.10764   0.00000  Uiso   1.00
C61    C     0.68712   0.59185   0.09374   0.00000  Uiso   1.00
C62    C     0.68025   0.62998   0.05537   0.00000  Uiso   1.00
C63    C     0.61436   0.66876   0.04867   0.00000  Uiso   1.00
C64    C     0.72465   0.46818   0.11747   0.00000  Uiso   1.00
C65    C     0.74933   0.40233   0.09905   0.00000  Uiso   1.00
C66    C     0.71505   0.33700   0.11233   0.00000  Uiso   1.00
C67    C     0.77939   0.57836   0.15030   0.00000  Uiso   1.00
C68    C     0.85010   0.60515   0.15950   0.00000  Uiso   1.00
C69    C     0.86191   0.63256   0.20043   0.00000  Uiso   1.00
H70    H     0.60524   0.54738   0.18780   0.00000  Uiso   1.00
H71    H     0.52029   0.63156   0.14139   0.00000  Uiso   1.00
H72    H     0.58938   0.40395   0.18507   0.00000  Uiso   1.00
H73    H     0.69013   0.60673   0.24551   0.00000  Uiso   1.00
H74    H     0.45121   0.72463   0.07643   0.00000  Uiso   1.00
H75    H     0.59688   0.24469   0.16854   0.00000  Uiso   1.00
H76    H     0.80934   0.67229   0.29599   0.00000  Uiso   1.00
H77    H     0.79863   0.54545   0.08381   0.00000  Uiso   1.00
H78    H     0.72430   0.62953   0.03169   0.00000  Uiso   1.00
H79    H     0.79338   0.40191   0.07537   0.00000  Uiso   1.00
H80    H     0.89413   0.60470   0.13581   0.00000  Uiso   1.00
H81    H     0.61678   0.72297   0.98740   0.00000  Uiso   1.00
H82    H     0.76246   0.24303   0.07951   0.00000  Uiso   1.00
H83    H     0.97492   0.67064   0.20695   0.00000  Uiso   1.00
O84    O     0.48160   0.77913   0.99950   0.00000  Uiso   1.00
O85    O     0.67273   0.14946   0.12035   0.00000  Uiso   1.00
O86    O     0.95147   0.71048   0.28756   0.00000  Uiso   1.00
N87    N     0.50038   0.71271   0.06263   0.00000  Uiso   1.00
N88    N     0.63657   0.26399   0.14875   0.00000  Uiso   1.00
N89    N     0.83521   0.66375   0.26790   0.00000  Uiso   1.00
N90    N     0.58948   0.71182   0.01473   0.00000  Uiso   1.00
N91    N     0.72567   0.26311   0.10084   0.00000  Uiso   1.00
N92    N     0.92430   0.66286   0.21999   0.00000  Uiso   1.00
C93    C     0.04694   0.85046   0.16398   0.00000  Uiso   1.00
C94    C     0.09242   0.86979   0.12434   0.00000  Uiso   1.00
C95    C     0.13114   0.93567   0.11770   0.00000  Uiso   1.00
C96    C     0.16933   0.94265   0.07933   0.00000  Uiso   1.00
C97    C     0.24000   0.98134   0.02243   0.00000  Uiso   1.00
C98    C     0.96875   0.83226   0.14807   0.00000  Uiso   1.00
C99    C     0.90349   0.86659   0.16138   0.00000  Uiso   1.00
C100   C     0.83757   0.84196   0.14299   0.00000  Uiso   1.00
C101   C     0.71623   0.82235   0.12295   0.00000  Uiso   1.00
C102   C     0.07893   0.77752   0.18090   0.00000  Uiso   1.00
C103   C     0.10630   0.76582   0.22183   0.00000  Uiso   1.00
C104   C     0.13313   0.69510   0.23109   0.00000  Uiso   1.00
C105   C     0.18287   0.59051   0.26203   0.00000  Uiso   1.00
C106   C     0.04589   0.74568   0.10764   0.00000  Uiso   1.00
C107   C     0.09185   0.81288   0.09374   0.00000  Uiso   1.00
C108   C     0.12998   0.81975   0.05537   0.00000  Uiso   1.00
C109   C     0.16876   0.88564   0.04867   0.00000  Uiso   1.00
C110   C     0.96818   0.77535   0.11747   0.00000  Uiso   1.00
C111   C     0.90233   0.75067   0.09905   0.00000  Uiso   1.00
C112   C     0.83700   0.78495   0.11233   0.00000  Uiso   1.00
C113   C     0.07836   0.72061   0.15030   0.00000  Uiso   1.00
C114   C     0.10515   0.64990   0.15950   0.00000  Uiso   1.00
C115   C     0.13256   0.63809   0.20043   0.00000  Uiso   1.00
H116   H     0.04738   0.89476   0.18780   0.00000  Uiso   1.00
H117   H     0.13156   0.97971   0.14139   0.00000  Uiso   1.00
H118   H     0.90395   0.91062   0.18507   0.00000  Uiso   1.00
H119   H     0.10673   0.80987   0.24551   0.00000  Uiso   1.00
H120   H     0.22463   0.04879   0.07643   0.00000  Uiso   1.00
H121   H     0.74469   0.90312   0.16854   0.00000  Uiso   1.00
H122   H     0.17229   0.69066   0.29599   0.00000  Uiso   1.00
H123   H     0.04545   0.70137   0.08381   0.00000  Uiso   1.00
H124   H     0.12953   0.77570   0.03169   0.00000  Uiso   1.00
H125   H     0.90191   0.70662   0.07537   0.00000  Uiso   1.00
H126   H     0.10470   0.60587   0.13581   0.00000  Uiso   1.00
H127   H     0.22297   0.88322   0.98740   0.00000  Uiso   1.00
H128   H     0.74303   0.73754   0.07951   0.00000  Uiso   1.00
H129   H     0.17064   0.52508   0.20695   0.00000  Uiso   1.00
O130   O     0.27913   0.01840   0.99950   0.00000  Uiso   1.00
O131   O     0.64946   0.82727   0.12035   0.00000  Uiso   1.00
O132   O     0.21048   0.54853   0.28756   0.00000  Uiso   1.00
N133   N     0.21271   0.99962   0.06263   0.00000  Uiso   1.00
N134   N     0.76399   0.86343   0.14875   0.00000  Uiso   1.00
N135   N     0.16375   0.66479   0.26790   0.00000  Uiso   1.00
N136   N     0.21182   0.91052   0.01473   0.00000  Uiso   1.00
N137   N     0.76311   0.77433   0.10084   0.00000  Uiso   1.00
N138   N     0.16286   0.57570   0.21999   0.00000  Uiso   1.00
C139   C     0.95306   0.14954   0.16398   0.00000  Uiso   1.00
C140   C     0.90758   0.13021   0.12434   0.00000  Uiso   1.00
C141   C     0.86886   0.06433   0.11770   0.00000  Uiso   1.00
C142   C     0.83067   0.05735   0.07933   0.00000  Uiso   1.00
C143   C     0.76000   0.01866   0.02243   0.00000  Uiso   1.00
C144   C     0.03125   0.16774   0.14807   0.00000  Uiso   1.00
C145   C     0.09651   0.13341   0.16138   0.00000  Uiso   1.00
C146   C     0.16243   0.15804   0.14299   0.00000  Uiso   1.00
C147   C     0.28377   0.17765   0.12295   0.00000  Uiso   1.00
C148   C     0.92107   0.22248   0.18090   0.00000  Uiso   1.00
C149   C     0.89370   0.23418   0.22183   0.00000  Uiso   1.00
C150   C     0.86687   0.30490   0.23109   0.00000  Uiso   1.00
C151   C     0.81713   0.40949   0.26203   0.00000  Uiso   1.00
C152   C     0.95411   0.25432   0.10764   0.00000  Uiso   1.00
C153   C     0.90815   0.18712   0.09374   0.00000  Uiso   1.00
C154   C     0.87002   0.18025   0.05537   0.00000  Uiso   1.00
C155   C     0.83124   0.11436   0.04867   0.00000  Uiso   1.00
C156   C     0.03182   0.22465   0.11747   0.00000  Uiso   1.00
C157   C     0.09767   0.24933   0.09905   0.00000  Uiso   1.00
C158   C     0.16300   0.21505   0.11233   0.00000  Uiso   1.00
C159   C     0.92164   0.27939   0.15030   0.00000  Uiso   1.00
C160   C     0.89485   0.35010   0.15950   0.00000  Uiso   1.00
C161   C     0.86744   0.36191   0.20043   0.00000  Uiso   1.00
H162   H     0.95262   0.10524   0.18780   0.00000  Uiso   1.00
H163   H     0.86844   0.02029   0.14139   0.00000  Uiso   1.00
H164   H     0.09605   0.08938   0.18507   0.00000  Uiso   1.00
H165   H     0.89327   0.19013   0.24551   0.00000  Uiso   1.00
H166   H     0.77537   0.95121   0.07643   0.00000  Uiso   1.00
H167   H     0.25531   0.09688   0.16854   0.00000  Uiso   1.00
H168   H     0.82771   0.30934   0.29599   0.00000  Uiso   1.00
H169   H     0.95455   0.29863   0.08381   0.00000  Uiso   1.00
H170   H     0.87047   0.22430   0.03169   0.00000  Uiso   1.00
H171   H     0.09809   0.29338   0.07537   0.00000  Uiso   1.00
H172   H     0.89530   0.39413   0.13581   0.00000  Uiso   1.00
H173   H     0.77703   0.11678   0.98740   0.00000  Uiso   1.00
H174   H     0.25697   0.26246   0.07951   0.00000  Uiso   1.00
H175   H     0.82936   0.47492   0.20695   0.00000  Uiso   1.00
O176   O     0.72087   0.98160   0.99950   0.00000  Uiso   1.00
O177   O     0.35054   0.17273   0.12035   0.00000  Uiso   1.00
O178   O     0.78952   0.45147   0.28756   0.00000  Uiso   1.00
N179   N     0.78729   0.00038   0.06263   0.00000  Uiso   1.00
N180   N     0.23601   0.13657   0.14875   0.00000  Uiso   1.00
N181   N     0.83625   0.33521   0.26790   0.00000  Uiso   1.00
N182   N     0.78818   0.08948   0.01473   0.00000  Uiso   1.00
N183   N     0.23689   0.22567   0.10084   0.00000  Uiso   1.00
N184   N     0.83714   0.42430   0.21999   0.00000  Uiso   1.00
C185   C     0.14954   0.95306   0.33602   0.00000  Uiso   1.00
C186   C     0.13021   0.90758   0.37566   0.00000  Uiso   1.00
C187   C     0.06433   0.86886   0.38230   0.00000  Uiso   1.00
C188   C     0.05735   0.83067   0.42067   0.00000  Uiso   1.00
C189   C     0.01866   0.76000   0.47757   0.00000  Uiso   1.00
C190   C     0.16774   0.03125   0.35193   0.00000  Uiso   1.00
C191   C     0.13341   0.09651   0.33862   0.00000  Uiso   1.00
C192   C     0.15804   0.16243   0.35701   0.00000  Uiso   1.00
C193   C     0.17765   0.28377   0.37705   0.00000  Uiso   1.00
C194   C     0.22248   0.92107   0.31910   0.00000  Uiso   1.00
C195   C     0.23418   0.89370   0.27817   0.00000  Uiso   1.00
C196   C     0.30490   0.86687   0.26891   0.00000  Uiso   1.00
C197   C     0.40949   0.81713   0.23797   0.00000  Uiso   1.00
C198   C     0.25432   0.95411   0.39236   0.00000  Uiso   1.00
C199   C     0.18712   0.90815   0.40626   0.00000  Uiso   1.00
C200   C     0.18025   0.87002   0.44463   0.00000  Uiso   1.00
C201   C     0.11436   0.83124   0.45133   0.00000  Uiso   1.00
C202   C     0.22465   0.03182   0.38253   0.00000  Uiso   1.00
C203   C     0.24933   0.09767   0.40095   0.00000  Uiso   1.00
C204   C     0.21505   0.16300   0.38767   0.00000  Uiso   1.00
C205   C     0.27939   0.92164   0.34970   0.00000  Uiso   1.00
C206   C     0.35010   0.89485   0.34050   0.00000  Uiso   1.00
C207   C     0.36191   0.86744   0.29957   0.00000  Uiso   1.00
H208   H     0.10524   0.95262   0.31220   0.00000  Uiso   1.00
H209   H     0.02029   0.86844   0.35861   0.00000  Uiso   1.00
H210   H     0.08938   0.09605   0.31493   0.00000  Uiso   1.00
H211   H     0.19013   0.89327   0.25449   0.00000  Uiso   1.00
H212   H     0.95121   0.77537   0.42357   0.00000  Uiso   1.00
H213   H     0.09688   0.25531   0.33146   0.00000  Uiso   1.00
H214   H     0.30934   0.82771   0.20401   0.00000  Uiso   1.00
H215   H     0.29863   0.95455   0.41619   0.00000  Uiso   1.00
H216   H     0.22430   0.87047   0.46831   0.00000  Uiso   1.00
H217   H     0.29338   0.09809   0.42463   0.00000  Uiso   1.00
H218   H     0.39413   0.89530   0.36419   0.00000  Uiso   1.00
H219   H     0.11678   0.77703   0.51260   0.00000  Uiso   1.00
H220   H     0.26246   0.25697   0.42049   0.00000  Uiso   1.00
H221   H     0.47492   0.82936   0.29305   0.00000  Uiso   1.00
O222   O     0.98160   0.72087   0.50050   0.00000  Uiso   1.00
O223   O     0.17273   0.35054   0.37965   0.00000  Uiso   1.00
O224   O     0.45147   0.78952   0.21244   0.00000  Uiso   1.00
N225   N     0.00038   0.78729   0.43737   0.00000  Uiso   1.00
N226   N     0.13657   0.23601   0.35125   0.00000  Uiso   1.00
N227   N     0.33521   0.83625   0.23210   0.00000  Uiso   1.00
N228   N     0.08948   0.78818   0.48527   0.00000  Uiso   1.00
N229   N     0.22567   0.23689   0.39916   0.00000  Uiso   1.00
N230   N     0.42430   0.83714   0.28001   0.00000  Uiso   1.00
C231   C     0.85046   0.04694   0.33602   0.00000  Uiso   1.00
C232   C     0.86979   0.09242   0.37566   0.00000  Uiso   1.00
C233   C     0.93567   0.13114   0.38230   0.00000  Uiso   1.00
C234   C     0.94265   0.16933   0.42067   0.00000  Uiso   1.00
C235   C     0.98134   0.24000   0.47757   0.00000  Uiso   1.00
C236   C     0.83226   0.96875   0.35193   0.00000  Uiso   1.00
C237   C     0.86659   0.90349   0.33862   0.00000  Uiso   1.00
C238   C     0.84196   0.83757   0.35701   0.00000  Uiso   1.00
C239   C     0.82235   0.71623   0.37705   0.00000  Uiso   1.00
C240   C     0.77752   0.07893   0.31910   0.00000  Uiso   1.00
C241   C     0.76582   0.10630   0.27817   0.00000  Uiso   1.00
C242   C     0.69510   0.13313   0.26891   0.00000  Uiso   1.00
C243   C     0.59051   0.18287   0.23797   0.00000  Uiso   1.00
C244   C     0.74568   0.04589   0.39236   0.00000  Uiso   1.00
C245   C     0.81288   0.09185   0.40626   0.00000  Uiso   1.00
C246   C     0.81975   0.12998   0.44463   0.00000  Uiso   1.00
C247   C     0.88564   0.16876   0.45133   0.00000  Uiso   1.00
C248   C     0.77535   0.96818   0.38253   0.00000  Uiso   1.00
C249   C     0.75067   0.90233   0.40095   0.00000  Uiso   1.00
C250   C     0.78495   0.83700   0.38767   0.00000  Uiso   1.00
C251   C     0.72061   0.07836   0.34970   0.00000  Uiso   1.00
C252   C     0.64990   0.10515   0.34050   0.00000  Uiso   1.00
C253   C     0.63809   0.13256   0.29957   0.00000  Uiso   1.00
H254   H     0.89476   0.04738   0.31220   0.00000  Uiso   1.00
H255   H     0.97971   0.13156   0.35861   0.00000  Uiso   1.00
H256   H     0.91062   0.90395   0.31493   0.00000  Uiso   1.00
H257   H     0.80987   0.10673   0.25449   0.00000  Uiso   1.00
H258   H     0.04879   0.22463   0.42357   0.00000  Uiso   1.00
H259   H     0.90312   0.74469   0.33146   0.00000  Uiso   1.00
H260   H     0.69066   0.17229   0.20401   0.00000  Uiso   1.00
H261   H     0.70137   0.04545   0.41619   0.00000  Uiso   1.00
H262   H     0.77570   0.12953   0.46831   0.00000  Uiso   1.00
H263   H     0.70662   0.90191   0.42463   0.00000  Uiso   1.00
H264   H     0.60587   0.10470   0.36419   0.00000  Uiso   1.00
H265   H     0.88322   0.22297   0.51260   0.00000  Uiso   1.00
H266   H     0.73754   0.74303   0.42049   0.00000  Uiso   1.00
H267   H     0.52508   0.17064   0.29305   0.00000  Uiso   1.00
O268   O     0.01840   0.27913   0.50050   0.00000  Uiso   1.00
O269   O     0.82727   0.64946   0.37965   0.00000  Uiso   1.00
O270   O     0.54853   0.21048   0.21244   0.00000  Uiso   1.00
N271   N     0.99962   0.21271   0.43737   0.00000  Uiso   1.00
N272   N     0.86343   0.76399   0.35125   0.00000  Uiso   1.00
N273   N     0.66479   0.16375   0.23210   0.00000  Uiso   1.00
N274   N     0.91052   0.21182   0.48527   0.00000  Uiso   1.00
N275   N     0.77433   0.76311   0.39916   0.00000  Uiso   1.00
N276   N     0.57570   0.16286   0.28001   0.00000  Uiso   1.00
C277   C     0.45306   0.35046   0.33602   0.00000  Uiso   1.00
C278   C     0.40758   0.36979   0.37566   0.00000  Uiso   1.00
C279   C     0.36886   0.43567   0.38230   0.00000  Uiso   1.00
C280   C     0.33067   0.44265   0.42067   0.00000  Uiso   1.00
C281   C     0.26000   0.48134   0.47757   0.00000  Uiso   1.00
C282   C     0.53125   0.33226   0.35193   0.00000  Uiso   1.00
C283   C     0.59651   0.36659   0.33862   0.00000  Uiso   1.00
C284   C     0.66243   0.34196   0.35701   0.00000  Uiso   1.00
C285   C     0.78377   0.32235   0.37705   0.00000  Uiso   1.00
C286   C     0.42107   0.27752   0.31910   0.00000  Uiso   1.00
C287   C     0.39370   0.26582   0.27817   0.00000  Uiso   1.00
C288   C     0.36687   0.19510   0.26891   0.00000  Uiso   1.00
C289   C     0.31713   0.09051   0.23797   0.00000  Uiso   1.00
C290   C     0.45411   0.24568   0.39236   0.00000  Uiso   1.00
C291   C     0.40815   0.31288   0.40626   0.00000  Uiso   1.00
C292   C     0.37002   0.31975   0.44463   0.00000  Uiso   1.00
C293   C     0.33124   0.38564   0.45133   0.00000  Uiso   1.00
C294   C     0.53182   0.27535   0.38253   0.00000  Uiso   1.00
C295   C     0.59767   0.25067   0.40095   0.00000  Uiso   1.00
C296   C     0.66300   0.28495   0.38767   0.00000  Uiso   1.00
C297   C     0.42164   0.22061   0.34970   0.00000  Uiso   1.00
C298   C     0.39485   0.14990   0.34050   0.00000  Uiso   1.00
C299   C     0.36744   0.13809   0.29957   0.00000  Uiso   1.00
H300   H     0.45262   0.39476   0.31220   0.00000  Uiso   1.00
H301   H     0.36844   0.47971   0.35861   0.00000  Uiso   1.00
H302   H     0.59605   0.41062   0.31493   0.00000  Uiso   1.00
H303   H     0.39327   0.30987   0.25449   0.00000  Uiso   1.00
H304   H     0.27537   0.54879   0.42357   0.00000  Uiso   1.00
H305   H     0.75531   0.40312   0.33146   0.00000  Uiso   1.00
H306   H     0.32771   0.19066   0.20401   0.00000  Uiso   1.00
H307   H     0.45455   0.20137   0.41619   0.00000  Uiso   1.00
H308   H     0.37047   0.27570   0.46831   0.00000  Uiso   1.00
H309   H     0.59809   0.20662   0.42463   0.00000  Uiso   1.00
H310   H     0.39530   0.10587   0.36419   0.00000  Uiso   1.00
H311   H     0.27703   0.38322   0.51260   0.00000  Uiso   1.00
H312   H     0.75697   0.23754   0.42049   0.00000  Uiso   1.00
H313   H     0.32936   0.02508   0.29305   0.00000  Uiso   1.00
O314   O     0.22087   0.51840   0.50050   0.00000  Uiso   1.00
O315   O     0.85054   0.32727   0.37965   0.00000  Uiso   1.00
O316   O     0.28952   0.04853   0.21244   0.00000  Uiso   1.00
N317   N     0.28729   0.49962   0.43737   0.00000  Uiso   1.00
N318   N     0.73601   0.36343   0.35125   0.00000  Uiso   1.00
N319   N     0.33625   0.16479   0.23210   0.00000  Uiso   1.00
N320   N     0.28818   0.41052   0.48527   0.00000  Uiso   1.00
N321   N     0.73689   0.27433   0.39916   0.00000  Uiso   1.00
N322   N     0.33714   0.07570   0.28001   0.00000  Uiso   1.00
C323   C     0.54694   0.64954   0.33602   0.00000  Uiso   1.00
C324   C     0.59242   0.63021   0.37566   0.00000  Uiso   1.00
C325   C     0.63114   0.56433   0.38230   0.00000  Uiso   1.00
C326   C     0.66933   0.55735   0.42067   0.00000  Uiso   1.00
C327   C     0.74000   0.51866   0.47757   0.00000  Uiso   1.00
C328   C     0.46875   0.66774   0.35193   0.00000  Uiso   1.00
C329   C     0.40349   0.63341   0.33862   0.00000  Uiso   1.00
C330   C     0.33757   0.65804   0.35701   0.00000  Uiso   1.00
C331   C     0.21623   0.67765   0.37705   0.00000  Uiso   1.00
C332   C     0.57893   0.72248   0.31910   0.00000  Uiso   1.00
C333   C     0.60630   0.73418   0.27817   0.00000  Uiso   1.00
C334   C     0.63313   0.80490   0.26891   0.00000  Uiso   1.00
C335   C     0.68287   0.90949   0.23797   0.00000  Uiso   1.00
C336   C     0.54589   0.75432   0.39236   0.00000  Uiso   1.00
C337   C     0.59185   0.68712   0.40626   0.00000  Uiso   1.00
C338   C     0.62998   0.68025   0.44463   0.00000  Uiso   1.00
C339   C     0.66876   0.61436   0.45133   0.00000  Uiso   1.00
C340   C     0.46818   0.72465   0.38253   0.00000  Uiso   1.00
C341   C     0.40233   0.74933   0.40095   0.00000  Uiso   1.00
C342   C     0.33700   0.71505   0.38767   0.00000  Uiso   1.00
C343   C     0.57836   0.77939   0.34970   0.00000  Uiso   1.00
C344   C     0.60515   0.85010   0.34050   0.00000  Uiso   1.00
C345   C     0.63256   0.86191   0.29957   0.00000  Uiso   1.00
H346   H     0.54738   0.60524   0.31220   0.00000  Uiso   1.00
H347   H     0.63156   0.52029   0.35861   0.00000  Uiso   1.00
H348   H     0.40395   0.58938   0.31493   0.00000  Uiso   1.00
H349   H     0.60673   0.69013   0.25449   0.00000  Uiso   1.00
H350   H     0.72463   0.45121   0.42357   0.00000  Uiso   1.00
H351   H     0.24469   0.59688   0.33146   0.00000  Uiso   1.00
H352   H     0.67229   0.80934   0.20401   0.00000  Uiso   1.00
H353   H     0.54545   0.79863   0.41619   0.00000  Uiso   1.00
H354   H     0.62953   0.72430   0.46831   0.00000  Uiso   1.00
H355   H     0.40191   0.79338   0.42463   0.00000  Uiso   1.00
H356   H     0.60470   0.89413   0.36419   0.00000  Uiso   1.00
H357   H     0.72297   0.61678   0.51260   0.00000  Uiso   1.00
H358   H     0.24303   0.76246   0.42049   0.00000  Uiso   1.00
H359   H     0.67064   0.97492   0.29305   0.00000  Uiso   1.00
O360   O     0.77913   0.48160   0.50050   0.00000  Uiso   1.00
O361   O     0.14946   0.67273   0.37965   0.00000  Uiso   1.00
O362   O     0.71048   0.95147   0.21244   0.00000  Uiso   1.00
N363   N     0.71271   0.50038   0.43737   0.00000  Uiso   1.00
N364   N     0.26399   0.63657   0.35125   0.00000  Uiso   1.00
N365   N     0.66375   0.83521   0.23210   0.00000  Uiso   1.00
N366   N     0.71182   0.58948   0.48527   0.00000  Uiso   1.00
N367   N     0.26311   0.72567   0.39916   0.00000  Uiso   1.00
N368   N     0.66286   0.92430   0.28001   0.00000  Uiso   1.00
C369   C     0.14954   0.04694   0.83602   0.00000  Uiso   1.00
C370   C     0.13021   0.09242   0.87566   0.00000  Uiso   1.00
C371   C     0.06433   0.13114   0.88230   0.00000  Uiso   1.00
C372   C     0.05735   0.16933   0.92067   0.00000  Uiso   1.00
C373   C     0.01866   0.24000   0.97757   0.00000  Uiso   1.00
C374   C     0.16774   0.96875   0.85193   0.00000  Uiso   1.00
C375   C     0.13341   0.90349   0.83862   0.00000  Uiso   1.00
C376   C     0.15804   0.83757   0.85701   0.00000  Uiso   1.00
C377   C     0.17765   0.71623   0.87705   0.00000  Uiso   1.00
C378   C     0.22248   0.07893   0.81910   0.00000  Uiso   1.00
C379   C     0.23418   0.10630   0.77817   0.00000  Uiso   1.00
C380   C     0.30490   0.13313   0.76891   0.00000  Uiso   1.00
C381   C     0.40949   0.18287   0.73797   0.00000  Uiso   1.00
C382   C     0.25432   0.04589   0.89236   0.00000  Uiso   1.00
C383   C     0.18712   0.09185   0.90626   0.00000  Uiso   1.00
C384   C     0.18025   0.12998   0.94463   0.00000  Uiso   1.00
C385   C     0.11436   0.16876   0.95133   0.00000  Uiso   1.00
C386   C     0.22465   0.96818   0.88253   0.00000  Uiso   1.00
C387   C     0.24933   0.90233   0.90095   0.00000  Uiso   1.00
C388   C     0.21505   0.83700   0.88767   0.00000  Uiso   1.00
C389   C     0.27939   0.07836   0.84970   0.00000  Uiso   1.00
C390   C     0.35010   0.10515   0.84050   0.00000  Uiso   1.00
C391   C     0.36191   0.13256   0.79957   0.00000  Uiso   1.00
H392   H     0.10524   0.04738   0.81220   0.00000  Uiso   1.00
H393   H     0.02029   0.13156   0.85861   0.00000  Uiso   1.00
H394   H     0.08938   0.90395   0.81493   0.00000  Uiso   1.00
H395   H     0.19013   0.10673   0.75449   0.00000  Uiso   1.00
H396   H     0.95121   0.22463   0.92357   0.00000  Uiso   1.00
H397   H     0.09688   0.74469   0.83146   0.00000  Uiso   1.00
H398   H     0.30934   0.17229   0.70401   0.00000  Uiso   1.00
H399   H     0.29863   0.04545   0.91619   0.00000  Uiso   1.00
H400   H     0.22430   0.12953   0.96831   0.00000  Uiso   1.00
H401   H     0.29338   0.90191   0.92463   0.00000  Uiso   1.00
H402   H     0.39413   0.10470   0.86419   0.00000  Uiso   1.00
H403   H     0.11678   0.22297   0.01260   0.00000  Uiso   1.00
H404   H     0.26246   0.74303   0.92049   0.00000  Uiso   1.00
H405   H     0.47492   0.17064   0.79305   0.00000  Uiso   1.00
O406   O     0.98160   0.27913   0.00050   0.00000  Uiso   1.00
O407   O     0.17273   0.64946   0.87965   0.00000  Uiso   1.00
O408   O     0.45147   0.21048   0.71244   0.00000  Uiso   1.00
N409   N     0.00038   0.21271   0.93737   0.00000  Uiso   1.00
N410   N     0.13657   0.76399   0.85125   0.00000  Uiso   1.00
N411   N     0.33521   0.16375   0.73210   0.00000  Uiso   1.00
N412   N     0.08948   0.21182   0.98527   0.00000  Uiso   1.00
N413   N     0.22567   0.76311   0.89916   0.00000  Uiso   1.00
N414   N     0.42430   0.16286   0.78001   0.00000  Uiso   1.00
C415   C     0.85046   0.95306   0.83602   0.00000  Uiso   1.00
C416   C     0.86979   0.90758   0.87566   0.00000  Uiso   1.00
C417   C     0.93567   0.86886   0.88230   0.00000  Uiso   1.00
C418   C     0.94265   0.83067   0.92067   0.00000  Uiso   1.00
C419   C     0.98134   0.76000   0.97757   0.00000  Uiso   1.00
C420   C     0.83226   0.03125   0.85193   0.00000  Uiso   1.00
C421   C     0.86659   0.09651   0.83862   0.00000  Uiso   1.00
C422   C     0.84196   0.16243   0.85701   0.00000  Uiso   1.00
C423   C     0.82235   0.28377   0.87705   0.00000  Uiso   1.00
C424   C     0.77752   0.92107   0.81910   0.00000  Uiso   1.00
C425   C     0.76582   0.89370   0.77817   0.00000  Uiso   1.00
C426   C     0.69510   0.86687   0.76891   0.00000  Uiso   1.00
C427   C     0.59051   0.81713   0.73797   0.00000  Uiso   1.00
C428   C     0.74568   0.95411   0.89236   0.00000  Uiso   1.00
C429   C     0.81288   0.90815   0.90626   0.00000  Uiso   1.00
C430   C     0.81975   0.87002   0.94463   0.00000  Uiso   1.00
C431   C     0.88564   0.83124   0.95133   0.00000  Uiso   1.00
C432   C     0.77535   0.03182   0.88253   0.00000  Uiso   1.00
C433   C     0.75067   0.09767   0.90095   0.00000  Uiso   1.00
C434   C     0.78495   0.16300   0.88767   0.00000  Uiso   1.00
C435   C     0.72061   0.92164   0.84970   0.00000  Uiso   1.00
C436   C     0.64990   0.89485   0.84050   0.00000  Uiso   1.00
C437   C     0.63809   0.86744   0.79957   0.00000  Uiso   1.00
H438   H     0.89476   0.95262   0.81220   0.00000  Uiso   1.00
H439   H     0.97971   0.86844   0.85861   0.00000  Uiso   1.00
H440   H     0.91062   0.09605   0.81493   0.00000  Uiso   1.00
H441   H     0.80987   0.89327   0.75449   0.00000  Uiso   1.00
H442   H     0.04879   0.77537   0.92357   0.00000  Uiso   1.00
H443   H     0.90312   0.25531   0.83146   0.00000  Uiso   1.00
H444   H     0.69066   0.82771   0.70401   0.00000  Uiso   1.00
H445   H     0.70137   0.95455   0.91619   0.00000  Uiso   1.00
H446   H     0.77570   0.87047   0.96831   0.00000  Uiso   1.00
H447   H     0.70662   0.09809   0.92463   0.00000  Uiso   1.00
H448   H     0.60587   0.89530   0.86419   0.00000  Uiso   1.00
H449   H     0.88322   0.77703   0.01260   0.00000  Uiso   1.00
H450   H     0.73754   0.25697   0.92049   0.00000  Uiso   1.00
H451   H     0.52508   0.82936   0.79305   0.00000  Uiso   1.00
O452   O     0.01840   0.72087   0.00050   0.00000  Uiso   1.00
O453   O     0.82727   0.35054   0.87965   0.00000  Uiso   1.00
O454   O     0.54853   0.78952   0.71244   0.00000  Uiso   1.00
N455   N     0.99962   0.78729   0.93737   0.00000  Uiso   1.00
N456   N     0.86343   0.23601   0.85125   0.00000  Uiso   1.00
N457   N     0.66479   0.83625   0.73210   0.00000  Uiso   1.00
N458   N     0.91052   0.78818   0.98527   0.00000  Uiso   1.00
N459   N     0.77433   0.23689   0.89916   0.00000  Uiso   1.00
N460   N     0.57570   0.83714   0.78001   0.00000  Uiso   1.00
C461   C     0.45306   0.64954   0.83602   0.00000  Uiso   1.00
C462   C     0.40758   0.63021   0.87566   0.00000  Uiso   1.00
C463   C     0.36886   0.56433   0.88230   0.00000  Uiso   1.00
C464   C     0.33067   0.55735   0.92067   0.00000  Uiso   1.00
C465   C     0.26000   0.51866   0.97757   0.00000  Uiso   1.00
C466   C     0.53125   0.66774   0.85193   0.00000  Uiso   1.00
C467   C     0.59651   0.63341   0.83862   0.00000  Uiso   1.00
C468   C     0.66243   0.65804   0.85701   0.00000  Uiso   1.00
C469   C     0.78377   0.67765   0.87705   0.00000  Uiso   1.00
C470   C     0.42107   0.72248   0.81910   0.00000  Uiso   1.00
C471   C     0.39370   0.73418   0.77817   0.00000  Uiso   1.00
C472   C     0.36687   0.80490   0.76891   0.00000  Uiso   1.00
C473   C     0.31713   0.90949   0.73797   0.00000  Uiso   1.00
C474   C     0.45411   0.75432   0.89236   0.00000  Uiso   1.00
C475   C     0.40815   0.68712   0.90626   0.00000  Uiso   1.00
C476   C     0.37002   0.68025   0.94463   0.00000  Uiso   1.00
C477   C     0.33124   0.61436   0.95133   0.00000  Uiso   1.00
C478   C     0.53182   0.72465   0.88253   0.00000  Uiso   1.00
C479   C     0.59767   0.74933   0.90095   0.00000  Uiso   1.00
C480   C     0.66300   0.71505   0.88767   0.00000  Uiso   1.00
C481   C     0.42164   0.77939   0.84970   0.00000  Uiso   1.00
C482   C     0.39485   0.85010   0.84050   0.00000  Uiso   1.00
C483   C     0.36744   0.86191   0.79957   0.00000  Uiso   1.00
H484   H     0.45262   0.60524   0.81220   0.00000  Uiso   1.00
H485   H     0.36844   0.52029   0.85861   0.00000  Uiso   1.00
H486   H     0.59605   0.58938   0.81493   0.00000  Uiso   1.00
H487   H     0.39327   0.69013   0.75449   0.00000  Uiso   1.00
H488   H     0.27537   0.45121   0.92357   0.00000  Uiso   1.00
H489   H     0.75531   0.59688   0.83146   0.00000  Uiso   1.00
H490   H     0.32771   0.80934   0.70401   0.00000  Uiso   1.00
H491   H     0.45455   0.79863   0.91619   0.00000  Uiso   1.00
H492   H     0.37047   0.72430   0.96831   0.00000  Uiso   1.00
H493   H     0.59809   0.79338   0.92463   0.00000  Uiso   1.00
H494   H     0.39530   0.89413   0.86419   0.00000  Uiso   1.00
H495   H     0.27703   0.61678   0.01260   0.00000  Uiso   1.00
H496   H     0.75697   0.76246   0.92049   0.00000  Uiso   1.00
H497   H     0.32936   0.97492   0.79305   0.00000  Uiso   1.00
O498   O     0.22087   0.48160   0.00050   0.00000  Uiso   1.00
O499   O     0.85054   0.67273   0.87965   0.00000  Uiso   1.00
O500   O     0.28952   0.95147   0.71244   0.00000  Uiso   1.00
N501   N     0.28729   0.50038   0.93737   0.00000  Uiso   1.00
N502   N     0.73601   0.63657   0.85125   0.00000  Uiso   1.00
N503   N     0.33625   0.83521   0.73210   0.00000  Uiso   1.00
N504   N     0.28818   0.58948   0.98527   0.00000  Uiso   1.00
N505   N     0.73689   0.72567   0.89916   0.00000  Uiso   1.00
N506   N     0.33714   0.92430   0.78001   0.00000  Uiso   1.00
C507   C     0.54694   0.35046   0.83602   0.00000  Uiso   1.00
C508   C     0.59242   0.36979   0.87566   0.00000  Uiso   1.00
C509   C     0.63114   0.43567   0.88230   0.00000  Uiso   1.00
C510   C     0.66933   0.44265   0.92067   0.00000  Uiso   1.00
C511   C     0.74000   0.48134   0.97757   0.00000  Uiso   1.00
C512   C     0.46875   0.33226   0.85193   0.00000  Uiso   1.00
C513   C     0.40349   0.36659   0.83862   0.00000  Uiso   1.00
C514   C     0.33757   0.34196   0.85701   0.00000  Uiso   1.00
C515   C     0.21623   0.32235   0.87705   0.00000  Uiso   1.00
C516   C     0.57893   0.27752   0.81910   0.00000  Uiso   1.00
C517   C     0.60630   0.26582   0.77817   0.00000  Uiso   1.00
C518   C     0.63313   0.19510   0.76891   0.00000  Uiso   1.00
C519   C     0.68287   0.09051   0.73797   0.00000  Uiso   1.00
C520   C     0.54589   0.24568   0.89236   0.00000  Uiso   1.00
C521   C     0.59185   0.31288   0.90626   0.00000  Uiso   1.00
C522   C     0.62998   0.31975   0.94463   0.00000  Uiso   1.00
C523   C     0.66876   0.38564   0.95133   0.00000  Uiso   1.00
C524   C     0.46818   0.27535   0.88253   0.00000  Uiso   1.00
C525   C     0.40233   0.25067   0.90095   0.00000  Uiso   1.00
C526   C     0.33700   0.28495   0.88767   0.00000  Uiso   1.00
C527   C     0.57836   0.22061   0.84970   0.00000  Uiso   1.00
C528   C     0.60515   0.14990   0.84050   0.00000  Uiso   1.00
C529   C     0.63256   0.13809   0.79957   0.00000  Uiso   1.00
H530   H     0.54738   0.39476   0.81220   0.00000  Uiso   1.00
H531   H     0.63156   0.47971   0.85861   0.00000  Uiso   1.00
H532   H     0.40395   0.41062   0.81493   0.00000  Uiso   1.00
H533   H     0.60673   0.30987   0.75449   0.00000  Uiso   1.00
H534   H     0.72463   0.54879   0.92357   0.00000  Uiso   1.00
H535   H     0.24469   0.40312   0.83146   0.00000  Uiso   1.00
H536   H     0.67229   0.19066   0.70401   0.00000  Uiso   1.00
H537   H     0.54545   0.20137   0.91619   0.00000  Uiso   1.00
H538   H     0.62953   0.27570   0.96831   0.00000  Uiso   1.00
H539   H     0.40191   0.20662   0.92463   0.00000  Uiso   1.00
H540   H     0.60470   0.10587   0.86419   0.00000  Uiso   1.00
H541   H     0.72297   0.38322   0.01260   0.00000  Uiso   1.00
H542   H     0.24303   0.23754   0.92049   0.00000  Uiso   1.00
H543   H     0.67064   0.02508   0.79305   0.00000  Uiso   1.00
O544   O     0.77913   0.51840   0.00050   0.00000  Uiso   1.00
O545   O     0.14946   0.32727   0.87965   0.00000  Uiso   1.00
O546   O     0.71048   0.04853   0.71244   0.00000  Uiso   1.00
N547   N     0.71271   0.49962   0.93737   0.00000  Uiso   1.00
N548   N     0.26399   0.36343   0.85125   0.00000  Uiso   1.00
N549   N     0.66375   0.16479   0.73210   0.00000  Uiso   1.00
N550   N     0.71182   0.41052   0.98527   0.00000  Uiso   1.00
N551   N     0.26311   0.27433   0.89916   0.00000  Uiso   1.00
N552   N     0.66286   0.07570   0.78001   0.00000  Uiso   1.00
C553   C     0.35046   0.54694   0.66398   0.00000  Uiso   1.00
C554   C     0.36979   0.59242   0.62434   0.00000  Uiso   1.00
C555   C     0.43567   0.63114   0.61770   0.00000  Uiso   1.00
C556   C     0.44265   0.66933   0.57933   0.00000  Uiso   1.00
C557   C     0.48134   0.74000   0.52243   0.00000  Uiso   1.00
C558   C     0.33226   0.46875   0.64807   0.00000  Uiso   1.00
C559   C     0.36659   0.40349   0.66138   0.00000  Uiso   1.00
C560   C     0.34196   0.33757   0.64299   0.00000  Uiso   1.00
C561   C     0.32235   0.21623   0.62295   0.00000  Uiso   1.00
C562   C     0.27752   0.57893   0.68090   0.00000  Uiso   1.00
C563   C     0.26582   0.60630   0.72183   0.00000  Uiso   1.00
C564   C     0.19510   0.63313   0.73109   0.00000  Uiso   1.00
C565   C     0.09051   0.68287   0.76203   0.00000  Uiso   1.00
C566   C     0.24568   0.54589   0.60764   0.00000  Uiso   1.00
C567   C     0.31288   0.59185   0.59374   0.00000  Uiso   1.00
C568   C     0.31975   0.62998   0.55537   0.00000  Uiso   1.00
C569   C     0.38564   0.66876   0.54867   0.00000  Uiso   1.00
C570   C     0.27535   0.46818   0.61747   0.00000  Uiso   1.00
C571   C     0.25067   0.40233   0.59905   0.00000  Uiso   1.00
C572   C     0.28495   0.33700   0.61233   0.00000  Uiso   1.00
C573   C     0.22061   0.57836   0.65030   0.00000  Uiso   1.00
C574   C     0.14990   0.60515   0.65950   0.00000  Uiso   1.00
C575   C     0.13809   0.63256   0.70043   0.00000  Uiso   1.00
H576   H     0.39476   0.54738   0.68780   0.00000  Uiso   1.00
H577   H     0.47971   0.63156   0.64139   0.00000  Uiso   1.00
H578   H     0.41062   0.40395   0.68507   0.00000  Uiso   1.00
H579   H     0.30987   0.60673   0.74551   0.00000  Uiso   1.00
H580   H     0.54879   0.72463   0.57643   0.00000  Uiso   1.00
H581   H     0.40312   0.24469   0.66854   0.00000  Uiso   1.00
H582   H     0.19066   0.67229   0.79599   0.00000  Uiso   1.00
H583   H     0.20137   0.54545   0.58381   0.00000  Uiso   1.00
H584   H     0.27570   0.62953   0.53169   0.00000  Uiso   1.00
H585   H     0.20662   0.40191   0.57537   0.00000  Uiso   1.00
H586   H     0.10587   0.60470   0.63581   0.00000  Uiso   1.00
H587   H     0.38322   0.72297   0.48740   0.00000  Uiso   1.00
H588   H     0.23754   0.24303   0.57951   0.00000  Uiso   1.00
H589   H     0.02508   0.67064   0.70695   0.00000  Uiso   1.00
O590   O     0.51840   0.77913   0.49950   0.00000  Uiso   1.00
O591   O     0.32727   0.14946   0.62035   0.00000  Uiso   1.00
O592   O     0.04853   0.71048   0.78756   0.00000  Uiso   1.00
N593   N     0.49962   0.71271   0.56263   0.00000  Uiso   1.00
N594   N     0.36343   0.26399   0.64875   0.00000  Uiso   1.00
N595   N     0.16479   0.66375   0.76790   0.00000  Uiso   1.00
N596   N     0.41052   0.71182   0.51473   0.00000  Uiso   1.00
N597   N     0.27433   0.26311   0.60084   0.00000  Uiso   1.00
N598   N     0.07570   0.66286   0.71999   0.00000  Uiso   1.00
C599   C     0.64954   0.45306   0.66398   0.00000  Uiso   1.00
C600   C     0.63021   0.40758   0.62434   0.00000  Uiso   1.00
C601   C     0.56433   0.36886   0.61770   0.00000  Uiso   1.00
C602   C     0.55735   0.33067   0.57933   0.00000  Uiso   1.00
C603   C     0.51866   0.26000   0.52243   0.00000  Uiso   1.00
C604   C     0.66774   0.53125   0.64807   0.00000  Uiso   1.00
C605   C     0.63341   0.59651   0.66138   0.00000  Uiso   1.00
C606   C     0.65804   0.66243   0.64299   0.00000  Uiso   1.00
C607   C     0.67765   0.78377   0.62295   0.00000  Uiso   1.00
C608   C     0.72248   0.42107   0.68090   0.00000  Uiso   1.00
C609   C     0.73418   0.39370   0.72183   0.00000  Uiso   1.00
C610   C     0.80490   0.36687   0.73109   0.00000  Uiso   1.00
C611   C     0.90949   0.31713   0.76203   0.00000  Uiso   1.00
C612   C     0.75432   0.45411   0.60764   0.00000  Uiso   1.00
C613   C     0.68712   0.40815   0.59374   0.00000  Uiso   1.00
C614   C     0.68025   0.37002   0.55537   0.00000  Uiso   1.00
C615   C     0.61436   0.33124   0.54867   0.00000  Uiso   1.00
C616   C     0.72465   0.53182   0.61747   0.00000  Uiso   1.00
C617   C     0.74933   0.59767   0.59905   0.00000  Uiso   1.00
C618   C     0.71505   0.66300   0.61233   0.00000  Uiso   1.00
C619   C     0.77939   0.42164   0.65030   0.00000  Uiso   1.00
C620   C     0.85010   0.39485   0.65950   0.00000  Uiso   1.00
C621   C     0.86191   0.36744   0.70043   0.00000  Uiso   1.00
H622   H     0.60524   0.45262   0.68780   0.00000  Uiso   1.00
H623   H     0.52029   0.36844   0.64139   0.00000  Uiso   1.00
H624   H     0.58938   0.59605   0.68507   0.00000  Uiso   1.00
H625   H     0.69013   0.39327   0.74551   0.00000  Uiso   1.00
H626   H     0.45121   0.27537   0.57643   0.00000  Uiso   1.00
H627   H     0.59688   0.75531   0.66854   0.00000  Uiso   1.00
H628   H     0.80934   0.32771   0.79599   0.00000  Uiso   1.00
H629   H     0.79863   0.45455   0.58381   0.00000  Uiso   1.00
H630   H     0.72430   0.37047   0.53169   0.00000  Uiso   1.00
H631   H     0.79338   0.59809   0.57537   0.00000  Uiso   1.00
H632   H     0.89413   0.39530   0.63581   0.00000  Uiso   1.00
H633   H     0.61678   0.27703   0.48740   0.00000  Uiso   1.00
H634   H     0.76246   0.75697   0.57951   0.00000  Uiso   1.00
H635   H     0.97492   0.32936   0.70695   0.00000  Uiso   1.00
O636   O     0.48160   0.22087   0.49950   0.00000  Uiso   1.00
O637   O     0.67273   0.85054   0.62035   0.00000  Uiso   1.00
O638   O     0.95147   0.28952   0.78756   0.00000  Uiso   1.00
N639   N     0.50038   0.28729   0.56263   0.00000  Uiso   1.00
N640   N     0.63657   0.73601   0.64875   0.00000  Uiso   1.00
N641   N     0.83521   0.33625   0.76790   0.00000  Uiso   1.00
N642   N     0.58948   0.28818   0.51473   0.00000  Uiso   1.00
N643   N     0.72567   0.73689   0.60084   0.00000  Uiso   1.00
N644   N     0.92430   0.33714   0.71999   0.00000  Uiso   1.00
C645   C     0.04694   0.14954   0.66398   0.00000  Uiso   1.00
C646   C     0.09242   0.13021   0.62434   0.00000  Uiso   1.00
C647   C     0.13114   0.06433   0.61770   0.00000  Uiso   1.00
C648   C     0.16933   0.05735   0.57933   0.00000  Uiso   1.00
C649   C     0.24000   0.01866   0.52243   0.00000  Uiso   1.00
C650   C     0.96875   0.16774   0.64807   0.00000  Uiso   1.00
C651   C     0.90349   0.13341   0.66138   0.00000  Uiso   1.00
C652   C     0.83757   0.15804   0.64299   0.00000  Uiso   1.00
C653   C     0.71623   0.17765   0.62295   0.00000  Uiso   1.00
C654   C     0.07893   0.22248   0.68090   0.00000  Uiso   1.00
C655   C     0.10630   0.23418   0.72183   0.00000  Uiso   1.00
C656   C     0.13313   0.30490   0.73109   0.00000  Uiso   1.00
C657   C     0.18287   0.40949   0.76203   0.00000  Uiso   1.00
C658   C     0.04589   0.25432   0.60764   0.00000  Uiso   1.00
C659   C     0.09185   0.18712   0.59374   0.00000  Uiso   1.00
C660   C     0.12998   0.18025   0.55537   0.00000  Uiso   1.00
C661   C     0.16876   0.11436   0.54867   0.00000  Uiso   1.00
C662   C     0.96818   0.22465   0.61747   0.00000  Uiso   1.00
C663   C     0.90233   0.24933   0.59905   0.00000  Uiso   1.00
C664   C     0.83700   0.21505   0.61233   0.00000  Uiso   1.00
C665   C     0.07836   0.27939   0.65030   0.00000  Uiso   1.00
C666   C     0.10515   0.35010   0.65950   0.00000  Uiso   1.00
C667   C     0.13256   0.36191   0.70043   0.00000  Uiso   1.00
H668   H     0.04738   0.10524   0.68780   0.00000  Uiso   1.00
H669   H     0.13156   0.02029   0.64139   0.00000  Uiso   1.00
H670   H     0.90395   0.08938   0.68507   0.00000  Uiso   1.00
H671   H     0.10673   0.19013   0.74551   0.00000  Uiso   1.00
H672   H     0.22463   0.95121   0.57643   0.00000  Uiso   1.00
H673   H     0.74469   0.09688   0.66854   0.00000  Uiso   1.00
H674   H     0.17229   0.30934   0.79599   0.00000  Uiso   1.00
H675   H     0.04545   0.29863   0.58381   0.00000  Uiso   1.00
H676   H     0.12953   0.22430   0.53169   0.00000  Uiso   1.00
H677   H     0.90191   0.29338   0.57537   0.00000  Uiso   1.00
H678   H     0.10470   0.39413   0.63581   0.00000  Uiso   1.00
H679   H     0.22297   0.11678   0.48740   0.00000  Uiso   1.00
H680   H     0.74303   0.26246   0.57951   0.00000  Uiso   1.00
H681   H     0.17064   0.47492   0.70695   0.00000  Uiso   1.00
O682   O     0.27913   0.98160   0.49950   0.00000  Uiso   1.00
O683   O     0.64946   0.17273   0.62035   0.00000  Uiso   1.00
O684   O     0.21048   0.45147   0.78756   0.00000  Uiso   1.00
N685   N     0.21271   0.00038   0.56263   0.00000  Uiso   1.00
N686   N     0.76399   0.13657   0.64875   0.00000  Uiso   1.00
N687   N     0.16375   0.33521   0.76790   0.00000  Uiso   1.00
N688   N     0.21182   0.08948   0.51473   0.00000  Uiso   1.00
N689   N     0.76311   0.22567   0.60084   0.00000  Uiso   1.00
N690   N     0.16286   0.42430   0.71999   0.00000  Uiso   1.00
C691   C     0.95306   0.85046   0.66398   0.00000  Uiso   1.00
C692   C     0.90758   0.86979   0.62434   0.00000  Uiso   1.00
C693   C     0.86886   0.93567   0.61770   0.00000  Uiso   1.00
C694   C     0.83067   0.94265   0.57933   0.00000  Uiso   1.00
C695   C     0.76000   0.98134   0.52243   0.00000  Uiso   1.00
C696   C     0.03125   0.83226   0.64807   0.00000  Uiso   1.00
C697   C     0.09651   0.86659   0.66138   0.00000  Uiso   1.00
C698   C     0.16243   0.84196   0.64299   0.00000  Uiso   1.00
C699   C     0.28377   0.82235   0.62295   0.00000  Uiso   1.00
C700   C     0.92107   0.77752   0.68090   0.00000  Uiso   1.00
C701   C     0.89370   0.76582   0.72183   0.00000  Uiso   1.00
C702   C     0.86687   0.69510   0.73109   0.00000  Uiso   1.00
C703   C     0.81713   0.59051   0.76203   0.00000  Uiso   1.00
C704   C     0.95411   0.74568   0.60764   0.00000  Uiso   1.00
C705   C     0.90815   0.81288   0.59374   0.00000  Uiso   1.00
C706   C     0.87002   0.81975   0.55537   0.00000  Uiso   1.00
C707   C     0.83124   0.88564   0.54867   0.00000  Uiso   1.00
C708   C     0.03182   0.77535   0.61747   0.00000  Uiso   1.00
C709   C     0.09767   0.75067   0.59905   0.00000  Uiso   1.00
C710   C     0.16300   0.78495   0.61233   0.00000  Uiso   1.00
C711   C     0.92164   0.72061   0.65030   0.00000  Uiso   1.00
C712   C     0.89485   0.64990   0.65950   0.00000  Uiso   1.00
C713   C     0.86744   0.63809   0.70043   0.00000  Uiso   1.00
H714   H     0.95262   0.89476   0.68780   0.00000  Uiso   1.00
H715   H     0.86844   0.97971   0.64139   0.00000  Uiso   1.00
H716   H     0.09605   0.91062   0.68507   0.00000  Uiso   1.00
H717   H     0.89327   0.80987   0.74551   0.00000  Uiso   1.00
H718   H     0.77537   0.04879   0.57643   0.00000  Uiso   1.00
H719   H     0.25531   0.90312   0.66854   0.00000  Uiso   1.00
H720   H     0.82771   0.69066   0.79599   0.00000  Uiso   1.00
H721   H     0.95455   0.70137   0.58381   0.00000  Uiso   1.00
H722   H     0.87047   0.77570   0.53169   0.00000  Uiso   1.00
H723   H     0.09809   0.70662   0.57537   0.00000  Uiso   1.00
H724   H     0.89530   0.60587   0.63581   0.00000  Uiso   1.00
H725   H     0.77703   0.88322   0.48740   0.00000  Uiso   1.00
H726   H     0.25697   0.73754   0.57951   0.00000  Uiso   1.00
H727   H     0.82936   0.52508   0.70695   0.00000  Uiso   1.00
O728   O     0.72087   0.01840   0.49950   0.00000  Uiso   1.00
O729   O     0.35054   0.82727   0.62035   0.00000  Uiso   1.00
O730   O     0.78952   0.54853   0.78756   0.00000  Uiso   1.00
N731   N     0.78729   0.99962   0.56263   0.00000  Uiso   1.00
N732   N     0.23601   0.86343   0.64875   0.00000  Uiso   1.00
N733   N     0.83625   0.66479   0.76790   0.00000  Uiso   1.00
N734   N     0.78818   0.91052   0.51473   0.00000  Uiso   1.00
N735   N     0.23689   0.77433   0.60084   0.00000  Uiso   1.00
N736   N     0.83714   0.57570   0.71999   0.00000  Uiso   1.00
