data_job_03333
_audit_creation_date              2018-12-19
_audit_creation_method            'Materials Studio'
_symmetry_space_group_name_H-M    'P1'
_symmetry_Int_Tables_number       1
_symmetry_cell_setting            triclinic
loop_
_symmetry_equiv_pos_as_xyz
  x,y,z
_cell_length_a                    21.9938
_cell_length_b                    21.9938
_cell_length_c                    25.1630
_cell_angle_alpha                 90.0000
_cell_angle_beta                  90.0000
_cell_angle_gamma                 90.0000
loop_
_atom_site_label
_atom_site_type_symbol
_atom_site_fract_x
_atom_site_fract_y
_atom_site_fract_z
_atom_site_U_iso_or_equiv
_atom_site_adp_type
_atom_site_occupancy
C1     C     0.76128   0.70582   0.57629   0.00000  Uiso   1.00
C2     C     0.69779   0.69989   0.60009   0.00000  Uiso   1.00
C3     C     0.64558   0.72782   0.58104   0.00000  Uiso   1.00
C4     C     0.59192   0.71666   0.60841   0.00000  Uiso   1.00
C5     C     0.49355   0.71321   0.63857   0.00000  Uiso   1.00
C6     C     0.80202   0.72874   0.62105   0.00000  Uiso   1.00
C7     C     0.83744   0.78093   0.61961   0.00000  Uiso   1.00
C8     C     0.87152   0.79405   0.66462   0.00000  Uiso   1.00
C9     C     0.93500   0.83537   0.72730   0.00000  Uiso   1.00
C10    C     0.78234   0.64122   0.56425   0.00000  Uiso   1.00
C11    C     0.80123   0.61983   0.51506   0.00000  Uiso   1.00
C12    C     0.81876   0.55926   0.51226   0.00000  Uiso   1.00
C13    C     0.85168   0.46469   0.48675   0.00000  Uiso   1.00
C14    C     0.75882   0.63632   0.65877   0.00000  Uiso   1.00
C15    C     0.69646   0.66213   0.64489   0.00000  Uiso   1.00
C16    C     0.64286   0.65092   0.67230   0.00000  Uiso   1.00
C17    C     0.59058   0.67884   0.65329   0.00000  Uiso   1.00
C18    C     0.80068   0.69099   0.66585   0.00000  Uiso   1.00
C19    C     0.83472   0.70403   0.71087   0.00000  Uiso   1.00
C20    C     0.87019   0.75623   0.70950   0.00000  Uiso   1.00
C21    C     0.78100   0.60346   0.60905   0.00000  Uiso   1.00
C22    C     0.79850   0.54292   0.60632   0.00000  Uiso   1.00
C23    C     0.81742   0.52144   0.55714   0.00000  Uiso   1.00
H24    H     0.76232   0.73522   0.54141   0.00000  Uiso   1.00
H25    H     0.64664   0.75704   0.54637   0.00000  Uiso   1.00
H26    H     0.83847   0.81014   0.58493   0.00000  Uiso   1.00
H27    H     0.80226   0.64906   0.48040   0.00000  Uiso   1.00
H28    H     0.51779   0.76461   0.57164   0.00000  Uiso   1.00
H29    H     0.92231   0.87655   0.65295   0.00000  Uiso   1.00
H30    H     0.84595   0.53688   0.43252   0.00000  Uiso   1.00
H31    H     0.75778   0.60692   0.69365   0.00000  Uiso   1.00
H32    H     0.64184   0.62170   0.70697   0.00000  Uiso   1.00
H33    H     0.83368   0.67480   0.74553   0.00000  Uiso   1.00
H34    H     0.79746   0.51372   0.64100   0.00000  Uiso   1.00
H35    H     0.51390   0.65476   0.70199   0.00000  Uiso   1.00
H36    H     0.91842   0.76671   0.78329   0.00000  Uiso   1.00
H37    H     0.84206   0.42703   0.56287   0.00000  Uiso   1.00
O38    O     0.43966   0.72174   0.64284   0.00000  Uiso   1.00
O39    O     0.97038   0.86860   0.74950   0.00000  Uiso   1.00
O40    O     0.87020   0.42296   0.46031   0.00000  Uiso   1.00
N41    N     0.53279   0.73672   0.60049   0.00000  Uiso   1.00
N42    N     0.91098   0.84138   0.67650   0.00000  Uiso   1.00
N43    N     0.83960   0.52382   0.47043   0.00000  Uiso   1.00
N44    N     0.53069   0.67761   0.67062   0.00000  Uiso   1.00
N45    N     0.90888   0.78228   0.74664   0.00000  Uiso   1.00
N46    N     0.83751   0.46471   0.54056   0.00000  Uiso   1.00
C47    C     0.23872   0.29418   0.57629   0.00000  Uiso   1.00
C48    C     0.30221   0.30011   0.60009   0.00000  Uiso   1.00
C49    C     0.35442   0.27218   0.58104   0.00000  Uiso   1.00
C50    C     0.40808   0.28334   0.60841   0.00000  Uiso   1.00
C51    C     0.50645   0.28679   0.63857   0.00000  Uiso   1.00
C52    C     0.19798   0.27126   0.62105   0.00000  Uiso   1.00
C53    C     0.16256   0.21907   0.61961   0.00000  Uiso   1.00
C54    C     0.12848   0.20595   0.66462   0.00000  Uiso   1.00
C55    C     0.06500   0.16463   0.72730   0.00000  Uiso   1.00
C56    C     0.21766   0.35878   0.56425   0.00000  Uiso   1.00
C57    C     0.19877   0.38017   0.51506   0.00000  Uiso   1.00
C58    C     0.18124   0.44074   0.51226   0.00000  Uiso   1.00
C59    C     0.14832   0.53531   0.48675   0.00000  Uiso   1.00
C60    C     0.24118   0.36368   0.65877   0.00000  Uiso   1.00
C61    C     0.30354   0.33787   0.64489   0.00000  Uiso   1.00
C62    C     0.35714   0.34908   0.67230   0.00000  Uiso   1.00
C63    C     0.40942   0.32116   0.65329   0.00000  Uiso   1.00
C64    C     0.19932   0.30901   0.66585   0.00000  Uiso   1.00
C65    C     0.16528   0.29597   0.71087   0.00000  Uiso   1.00
C66    C     0.12981   0.24377   0.70950   0.00000  Uiso   1.00
C67    C     0.21900   0.39654   0.60905   0.00000  Uiso   1.00
C68    C     0.20150   0.45708   0.60632   0.00000  Uiso   1.00
C69    C     0.18258   0.47856   0.55714   0.00000  Uiso   1.00
H70    H     0.23768   0.26478   0.54141   0.00000  Uiso   1.00
H71    H     0.35336   0.24296   0.54637   0.00000  Uiso   1.00
H72    H     0.16153   0.18986   0.58493   0.00000  Uiso   1.00
H73    H     0.19774   0.35094   0.48040   0.00000  Uiso   1.00
H74    H     0.48221   0.23539   0.57164   0.00000  Uiso   1.00
H75    H     0.07769   0.12345   0.65295   0.00000  Uiso   1.00
H76    H     0.15405   0.46312   0.43252   0.00000  Uiso   1.00
H77    H     0.24222   0.39308   0.69365   0.00000  Uiso   1.00
H78    H     0.35816   0.37830   0.70697   0.00000  Uiso   1.00
H79    H     0.16632   0.32520   0.74553   0.00000  Uiso   1.00
H80    H     0.20254   0.48628   0.64100   0.00000  Uiso   1.00
H81    H     0.48610   0.34524   0.70199   0.00000  Uiso   1.00
H82    H     0.08158   0.23329   0.78329   0.00000  Uiso   1.00
H83    H     0.15794   0.57297   0.56287   0.00000  Uiso   1.00
O84    O     0.56034   0.27826   0.64284   0.00000  Uiso   1.00
O85    O     0.02962   0.13140   0.74950   0.00000  Uiso   1.00
O86    O     0.12980   0.57704   0.46031   0.00000  Uiso   1.00
N87    N     0.46721   0.26328   0.60049   0.00000  Uiso   1.00
N88    N     0.08902   0.15862   0.67650   0.00000  Uiso   1.00
N89    N     0.16040   0.47618   0.47043   0.00000  Uiso   1.00
N90    N     0.46931   0.32239   0.67062   0.00000  Uiso   1.00
N91    N     0.09112   0.21772   0.74664   0.00000  Uiso   1.00
N92    N     0.16249   0.53529   0.54056   0.00000  Uiso   1.00
C93    C     0.79418   0.26128   0.57629   0.00000  Uiso   1.00
C94    C     0.80011   0.19779   0.60009   0.00000  Uiso   1.00
C95    C     0.77218   0.14558   0.58104   0.00000  Uiso   1.00
C96    C     0.78334   0.09192   0.60841   0.00000  Uiso   1.00
C97    C     0.78679   0.99355   0.63857   0.00000  Uiso   1.00
C98    C     0.77126   0.30202   0.62105   0.00000  Uiso   1.00
C99    C     0.71907   0.33744   0.61961   0.00000  Uiso   1.00
C100   C     0.70595   0.37152   0.66462   0.00000  Uiso   1.00
C101   C     0.66463   0.43500   0.72730   0.00000  Uiso   1.00
C102   C     0.85878   0.28234   0.56425   0.00000  Uiso   1.00
C103   C     0.88017   0.30123   0.51506   0.00000  Uiso   1.00
C104   C     0.94074   0.31876   0.51226   0.00000  Uiso   1.00
C105   C     0.03531   0.35168   0.48675   0.00000  Uiso   1.00
C106   C     0.86368   0.25882   0.65877   0.00000  Uiso   1.00
C107   C     0.83787   0.19646   0.64489   0.00000  Uiso   1.00
C108   C     0.84908   0.14286   0.67230   0.00000  Uiso   1.00
C109   C     0.82116   0.09058   0.65329   0.00000  Uiso   1.00
C110   C     0.80901   0.30068   0.66585   0.00000  Uiso   1.00
C111   C     0.79597   0.33472   0.71087   0.00000  Uiso   1.00
C112   C     0.74377   0.37019   0.70950   0.00000  Uiso   1.00
C113   C     0.89654   0.28100   0.60905   0.00000  Uiso   1.00
C114   C     0.95708   0.29850   0.60632   0.00000  Uiso   1.00
C115   C     0.97856   0.31742   0.55714   0.00000  Uiso   1.00
H116   H     0.76478   0.26232   0.54141   0.00000  Uiso   1.00
H117   H     0.74296   0.14664   0.54637   0.00000  Uiso   1.00
H118   H     0.68986   0.33847   0.58493   0.00000  Uiso   1.00
H119   H     0.85094   0.30226   0.48040   0.00000  Uiso   1.00
H120   H     0.73539   0.01779   0.57164   0.00000  Uiso   1.00
H121   H     0.62345   0.42231   0.65295   0.00000  Uiso   1.00
H122   H     0.96312   0.34595   0.43252   0.00000  Uiso   1.00
H123   H     0.89308   0.25778   0.69365   0.00000  Uiso   1.00
H124   H     0.87830   0.14184   0.70697   0.00000  Uiso   1.00
H125   H     0.82520   0.33368   0.74553   0.00000  Uiso   1.00
H126   H     0.98628   0.29746   0.64100   0.00000  Uiso   1.00
H127   H     0.84524   0.01390   0.70199   0.00000  Uiso   1.00
H128   H     0.73329   0.41842   0.78329   0.00000  Uiso   1.00
H129   H     0.07297   0.34206   0.56287   0.00000  Uiso   1.00
O130   O     0.77826   0.93966   0.64284   0.00000  Uiso   1.00
O131   O     0.63140   0.47038   0.74950   0.00000  Uiso   1.00
O132   O     0.07704   0.37020   0.46031   0.00000  Uiso   1.00
N133   N     0.76328   0.03279   0.60049   0.00000  Uiso   1.00
N134   N     0.65862   0.41098   0.67650   0.00000  Uiso   1.00
N135   N     0.97618   0.33960   0.47043   0.00000  Uiso   1.00
N136   N     0.82239   0.03069   0.67062   0.00000  Uiso   1.00
N137   N     0.71772   0.40888   0.74664   0.00000  Uiso   1.00
N138   N     0.03529   0.33751   0.54056   0.00000  Uiso   1.00
C139   C     0.20582   0.73872   0.57629   0.00000  Uiso   1.00
C140   C     0.19989   0.80221   0.60009   0.00000  Uiso   1.00
C141   C     0.22782   0.85442   0.58104   0.00000  Uiso   1.00
C142   C     0.21666   0.90808   0.60841   0.00000  Uiso   1.00
C143   C     0.21321   0.00645   0.63857   0.00000  Uiso   1.00
C144   C     0.22874   0.69798   0.62105   0.00000  Uiso   1.00
C145   C     0.28093   0.66256   0.61961   0.00000  Uiso   1.00
C146   C     0.29405   0.62848   0.66462   0.00000  Uiso   1.00
C147   C     0.33537   0.56500   0.72730   0.00000  Uiso   1.00
C148   C     0.14122   0.71766   0.56425   0.00000  Uiso   1.00
C149   C     0.11983   0.69877   0.51506   0.00000  Uiso   1.00
C150   C     0.05926   0.68124   0.51226   0.00000  Uiso   1.00
C151   C     0.96469   0.64832   0.48675   0.00000  Uiso   1.00
C152   C     0.13632   0.74118   0.65877   0.00000  Uiso   1.00
C153   C     0.16213   0.80354   0.64489   0.00000  Uiso   1.00
C154   C     0.15092   0.85714   0.67230   0.00000  Uiso   1.00
C155   C     0.17884   0.90942   0.65329   0.00000  Uiso   1.00
C156   C     0.19099   0.69932   0.66585   0.00000  Uiso   1.00
C157   C     0.20403   0.66528   0.71087   0.00000  Uiso   1.00
C158   C     0.25623   0.62981   0.70950   0.00000  Uiso   1.00
C159   C     0.10346   0.71900   0.60905   0.00000  Uiso   1.00
C160   C     0.04292   0.70150   0.60632   0.00000  Uiso   1.00
C161   C     0.02144   0.68258   0.55714   0.00000  Uiso   1.00
H162   H     0.23522   0.73768   0.54141   0.00000  Uiso   1.00
H163   H     0.25704   0.85336   0.54637   0.00000  Uiso   1.00
H164   H     0.31014   0.66153   0.58493   0.00000  Uiso   1.00
H165   H     0.14906   0.69774   0.48040   0.00000  Uiso   1.00
H166   H     0.26461   0.98221   0.57164   0.00000  Uiso   1.00
H167   H     0.37655   0.57769   0.65295   0.00000  Uiso   1.00
H168   H     0.03688   0.65405   0.43252   0.00000  Uiso   1.00
H169   H     0.10692   0.74222   0.69365   0.00000  Uiso   1.00
H170   H     0.12170   0.85816   0.70697   0.00000  Uiso   1.00
H171   H     0.17480   0.66632   0.74553   0.00000  Uiso   1.00
H172   H     0.01372   0.70254   0.64100   0.00000  Uiso   1.00
H173   H     0.15476   0.98610   0.70199   0.00000  Uiso   1.00
H174   H     0.26671   0.58158   0.78329   0.00000  Uiso   1.00
H175   H     0.92703   0.65794   0.56287   0.00000  Uiso   1.00
O176   O     0.22174   0.06034   0.64284   0.00000  Uiso   1.00
O177   O     0.36860   0.52962   0.74950   0.00000  Uiso   1.00
O178   O     0.92296   0.62980   0.46031   0.00000  Uiso   1.00
N179   N     0.23672   0.96721   0.60049   0.00000  Uiso   1.00
N180   N     0.34138   0.58902   0.67650   0.00000  Uiso   1.00
N181   N     0.02382   0.66040   0.47043   0.00000  Uiso   1.00
N182   N     0.17761   0.96931   0.67062   0.00000  Uiso   1.00
N183   N     0.28228   0.59112   0.74664   0.00000  Uiso   1.00
N184   N     0.96471   0.66249   0.54056   0.00000  Uiso   1.00
C185   C     0.73872   0.20582   0.92371   0.00000  Uiso   1.00
C186   C     0.80221   0.19989   0.89991   0.00000  Uiso   1.00
C187   C     0.85442   0.22782   0.91896   0.00000  Uiso   1.00
C188   C     0.90808   0.21666   0.89159   0.00000  Uiso   1.00
C189   C     0.00645   0.21321   0.86143   0.00000  Uiso   1.00
C190   C     0.69798   0.22874   0.87895   0.00000  Uiso   1.00
C191   C     0.66256   0.28093   0.88039   0.00000  Uiso   1.00
C192   C     0.62848   0.29405   0.83538   0.00000  Uiso   1.00
C193   C     0.56500   0.33537   0.77270   0.00000  Uiso   1.00
C194   C     0.71766   0.14122   0.93575   0.00000  Uiso   1.00
C195   C     0.69877   0.11983   0.98494   0.00000  Uiso   1.00
C196   C     0.68124   0.05926   0.98774   0.00000  Uiso   1.00
C197   C     0.64832   0.96469   0.01325   0.00000  Uiso   1.00
C198   C     0.74118   0.13632   0.84123   0.00000  Uiso   1.00
C199   C     0.80354   0.16213   0.85511   0.00000  Uiso   1.00
C200   C     0.85714   0.15092   0.82770   0.00000  Uiso   1.00
C201   C     0.90942   0.17884   0.84671   0.00000  Uiso   1.00
C202   C     0.69932   0.19099   0.83415   0.00000  Uiso   1.00
C203   C     0.66528   0.20403   0.78913   0.00000  Uiso   1.00
C204   C     0.62981   0.25623   0.79050   0.00000  Uiso   1.00
C205   C     0.71900   0.10346   0.89095   0.00000  Uiso   1.00
C206   C     0.70150   0.04292   0.89368   0.00000  Uiso   1.00
C207   C     0.68258   0.02144   0.94286   0.00000  Uiso   1.00
H208   H     0.73768   0.23522   0.95859   0.00000  Uiso   1.00
H209   H     0.85336   0.25704   0.95363   0.00000  Uiso   1.00
H210   H     0.66153   0.31014   0.91507   0.00000  Uiso   1.00
H211   H     0.69774   0.14906   0.01960   0.00000  Uiso   1.00
H212   H     0.98221   0.26461   0.92836   0.00000  Uiso   1.00
H213   H     0.57769   0.37655   0.84705   0.00000  Uiso   1.00
H214   H     0.65405   0.03688   0.06748   0.00000  Uiso   1.00
H215   H     0.74222   0.10692   0.80635   0.00000  Uiso   1.00
H216   H     0.85816   0.12170   0.79303   0.00000  Uiso   1.00
H217   H     0.66632   0.17480   0.75447   0.00000  Uiso   1.00
H218   H     0.70254   0.01372   0.85900   0.00000  Uiso   1.00
H219   H     0.98610   0.15476   0.79801   0.00000  Uiso   1.00
H220   H     0.58158   0.26671   0.71671   0.00000  Uiso   1.00
H221   H     0.65794   0.92703   0.93713   0.00000  Uiso   1.00
O222   O     0.06034   0.22174   0.85716   0.00000  Uiso   1.00
O223   O     0.52962   0.36860   0.75050   0.00000  Uiso   1.00
O224   O     0.62980   0.92296   0.03969   0.00000  Uiso   1.00
N225   N     0.96721   0.23672   0.89951   0.00000  Uiso   1.00
N226   N     0.58902   0.34138   0.82350   0.00000  Uiso   1.00
N227   N     0.66040   0.02382   0.02957   0.00000  Uiso   1.00
N228   N     0.96931   0.17761   0.82938   0.00000  Uiso   1.00
N229   N     0.59112   0.28228   0.75336   0.00000  Uiso   1.00
N230   N     0.66249   0.96471   0.95944   0.00000  Uiso   1.00
C231   C     0.26128   0.79418   0.92371   0.00000  Uiso   1.00
C232   C     0.19779   0.80011   0.89991   0.00000  Uiso   1.00
C233   C     0.14558   0.77218   0.91896   0.00000  Uiso   1.00
C234   C     0.09192   0.78334   0.89159   0.00000  Uiso   1.00
C235   C     0.99355   0.78679   0.86143   0.00000  Uiso   1.00
C236   C     0.30202   0.77126   0.87895   0.00000  Uiso   1.00
C237   C     0.33744   0.71907   0.88039   0.00000  Uiso   1.00
C238   C     0.37152   0.70595   0.83538   0.00000  Uiso   1.00
C239   C     0.43500   0.66463   0.77270   0.00000  Uiso   1.00
C240   C     0.28234   0.85878   0.93575   0.00000  Uiso   1.00
C241   C     0.30123   0.88017   0.98494   0.00000  Uiso   1.00
C242   C     0.31876   0.94074   0.98774   0.00000  Uiso   1.00
C243   C     0.35168   0.03531   0.01325   0.00000  Uiso   1.00
C244   C     0.25882   0.86368   0.84123   0.00000  Uiso   1.00
C245   C     0.19646   0.83787   0.85511   0.00000  Uiso   1.00
C246   C     0.14286   0.84908   0.82770   0.00000  Uiso   1.00
C247   C     0.09058   0.82116   0.84671   0.00000  Uiso   1.00
C248   C     0.30068   0.80901   0.83415   0.00000  Uiso   1.00
C249   C     0.33472   0.79597   0.78913   0.00000  Uiso   1.00
C250   C     0.37019   0.74377   0.79050   0.00000  Uiso   1.00
C251   C     0.28100   0.89654   0.89095   0.00000  Uiso   1.00
C252   C     0.29850   0.95708   0.89368   0.00000  Uiso   1.00
C253   C     0.31742   0.97856   0.94286   0.00000  Uiso   1.00
H254   H     0.26232   0.76478   0.95859   0.00000  Uiso   1.00
H255   H     0.14664   0.74296   0.95363   0.00000  Uiso   1.00
H256   H     0.33847   0.68986   0.91507   0.00000  Uiso   1.00
H257   H     0.30226   0.85094   0.01960   0.00000  Uiso   1.00
H258   H     0.01779   0.73539   0.92836   0.00000  Uiso   1.00
H259   H     0.42231   0.62345   0.84705   0.00000  Uiso   1.00
H260   H     0.34595   0.96312   0.06748   0.00000  Uiso   1.00
H261   H     0.25778   0.89308   0.80635   0.00000  Uiso   1.00
H262   H     0.14184   0.87830   0.79303   0.00000  Uiso   1.00
H263   H     0.33368   0.82520   0.75447   0.00000  Uiso   1.00
H264   H     0.29746   0.98628   0.85900   0.00000  Uiso   1.00
H265   H     0.01390   0.84524   0.79801   0.00000  Uiso   1.00
H266   H     0.41842   0.73329   0.71671   0.00000  Uiso   1.00
H267   H     0.34206   0.07297   0.93713   0.00000  Uiso   1.00
O268   O     0.93966   0.77826   0.85716   0.00000  Uiso   1.00
O269   O     0.47038   0.63140   0.75050   0.00000  Uiso   1.00
O270   O     0.37020   0.07704   0.03969   0.00000  Uiso   1.00
N271   N     0.03279   0.76328   0.89951   0.00000  Uiso   1.00
N272   N     0.41098   0.65862   0.82350   0.00000  Uiso   1.00
N273   N     0.33960   0.97618   0.02957   0.00000  Uiso   1.00
N274   N     0.03069   0.82239   0.82938   0.00000  Uiso   1.00
N275   N     0.40888   0.71772   0.75336   0.00000  Uiso   1.00
N276   N     0.33751   0.03529   0.95944   0.00000  Uiso   1.00
C277   C     0.70582   0.76128   0.92371   0.00000  Uiso   1.00
C278   C     0.69989   0.69779   0.89991   0.00000  Uiso   1.00
C279   C     0.72782   0.64558   0.91896   0.00000  Uiso   1.00
C280   C     0.71666   0.59192   0.89159   0.00000  Uiso   1.00
C281   C     0.71321   0.49355   0.86143   0.00000  Uiso   1.00
C282   C     0.72874   0.80202   0.87895   0.00000  Uiso   1.00
C283   C     0.78093   0.83744   0.88039   0.00000  Uiso   1.00
C284   C     0.79405   0.87152   0.83538   0.00000  Uiso   1.00
C285   C     0.83537   0.93500   0.77270   0.00000  Uiso   1.00
C286   C     0.64122   0.78234   0.93575   0.00000  Uiso   1.00
C287   C     0.61983   0.80123   0.98494   0.00000  Uiso   1.00
C288   C     0.55926   0.81876   0.98774   0.00000  Uiso   1.00
C289   C     0.46469   0.85168   0.01325   0.00000  Uiso   1.00
C290   C     0.63632   0.75882   0.84123   0.00000  Uiso   1.00
C291   C     0.66213   0.69646   0.85511   0.00000  Uiso   1.00
C292   C     0.65092   0.64286   0.82770   0.00000  Uiso   1.00
C293   C     0.67884   0.59058   0.84671   0.00000  Uiso   1.00
C294   C     0.69099   0.80068   0.83415   0.00000  Uiso   1.00
C295   C     0.70403   0.83472   0.78913   0.00000  Uiso   1.00
C296   C     0.75623   0.87019   0.79050   0.00000  Uiso   1.00
C297   C     0.60346   0.78100   0.89095   0.00000  Uiso   1.00
C298   C     0.54292   0.79850   0.89368   0.00000  Uiso   1.00
C299   C     0.52144   0.81742   0.94286   0.00000  Uiso   1.00
H300   H     0.73522   0.76232   0.95859   0.00000  Uiso   1.00
H301   H     0.75704   0.64664   0.95363   0.00000  Uiso   1.00
H302   H     0.81014   0.83847   0.91507   0.00000  Uiso   1.00
H303   H     0.64906   0.80226   0.01960   0.00000  Uiso   1.00
H304   H     0.76461   0.51779   0.92836   0.00000  Uiso   1.00
H305   H     0.87655   0.92231   0.84705   0.00000  Uiso   1.00
H306   H     0.53688   0.84595   0.06748   0.00000  Uiso   1.00
H307   H     0.60692   0.75778   0.80635   0.00000  Uiso   1.00
H308   H     0.62170   0.64184   0.79303   0.00000  Uiso   1.00
H309   H     0.67480   0.83368   0.75447   0.00000  Uiso   1.00
H310   H     0.51372   0.79746   0.85900   0.00000  Uiso   1.00
H311   H     0.65476   0.51390   0.79801   0.00000  Uiso   1.00
H312   H     0.76671   0.91842   0.71671   0.00000  Uiso   1.00
H313   H     0.42703   0.84206   0.93713   0.00000  Uiso   1.00
O314   O     0.72174   0.43966   0.85716   0.00000  Uiso   1.00
O315   O     0.86860   0.97038   0.75050   0.00000  Uiso   1.00
O316   O     0.42296   0.87020   0.03969   0.00000  Uiso   1.00
N317   N     0.73672   0.53279   0.89951   0.00000  Uiso   1.00
N318   N     0.84138   0.91098   0.82350   0.00000  Uiso   1.00
N319   N     0.52382   0.83960   0.02957   0.00000  Uiso   1.00
N320   N     0.67761   0.53069   0.82938   0.00000  Uiso   1.00
N321   N     0.78228   0.90888   0.75336   0.00000  Uiso   1.00
N322   N     0.46471   0.83751   0.95944   0.00000  Uiso   1.00
C323   C     0.29418   0.23872   0.92371   0.00000  Uiso   1.00
C324   C     0.30011   0.30221   0.89991   0.00000  Uiso   1.00
C325   C     0.27218   0.35442   0.91896   0.00000  Uiso   1.00
C326   C     0.28334   0.40808   0.89159   0.00000  Uiso   1.00
C327   C     0.28679   0.50645   0.86143   0.00000  Uiso   1.00
C328   C     0.27126   0.19798   0.87895   0.00000  Uiso   1.00
C329   C     0.21907   0.16256   0.88039   0.00000  Uiso   1.00
C330   C     0.20595   0.12848   0.83538   0.00000  Uiso   1.00
C331   C     0.16463   0.06500   0.77270   0.00000  Uiso   1.00
C332   C     0.35878   0.21766   0.93575   0.00000  Uiso   1.00
C333   C     0.38017   0.19877   0.98494   0.00000  Uiso   1.00
C334   C     0.44074   0.18124   0.98774   0.00000  Uiso   1.00
C335   C     0.53531   0.14832   0.01325   0.00000  Uiso   1.00
C336   C     0.36368   0.24118   0.84123   0.00000  Uiso   1.00
C337   C     0.33787   0.30354   0.85511   0.00000  Uiso   1.00
C338   C     0.34908   0.35714   0.82770   0.00000  Uiso   1.00
C339   C     0.32116   0.40942   0.84671   0.00000  Uiso   1.00
C340   C     0.30901   0.19932   0.83415   0.00000  Uiso   1.00
C341   C     0.29597   0.16528   0.78913   0.00000  Uiso   1.00
C342   C     0.24377   0.12981   0.79050   0.00000  Uiso   1.00
C343   C     0.39654   0.21900   0.89095   0.00000  Uiso   1.00
C344   C     0.45708   0.20150   0.89368   0.00000  Uiso   1.00
C345   C     0.47856   0.18258   0.94286   0.00000  Uiso   1.00
H346   H     0.26478   0.23768   0.95859   0.00000  Uiso   1.00
H347   H     0.24296   0.35336   0.95363   0.00000  Uiso   1.00
H348   H     0.18986   0.16153   0.91507   0.00000  Uiso   1.00
H349   H     0.35094   0.19774   0.01960   0.00000  Uiso   1.00
H350   H     0.23539   0.48221   0.92836   0.00000  Uiso   1.00
H351   H     0.12345   0.07769   0.84705   0.00000  Uiso   1.00
H352   H     0.46312   0.15405   0.06748   0.00000  Uiso   1.00
H353   H     0.39308   0.24222   0.80635   0.00000  Uiso   1.00
H354   H     0.37830   0.35816   0.79303   0.00000  Uiso   1.00
H355   H     0.32520   0.16632   0.75447   0.00000  Uiso   1.00
H356   H     0.48628   0.20254   0.85900   0.00000  Uiso   1.00
H357   H     0.34524   0.48610   0.79801   0.00000  Uiso   1.00
H358   H     0.23329   0.08158   0.71671   0.00000  Uiso   1.00
H359   H     0.57297   0.15794   0.93713   0.00000  Uiso   1.00
O360   O     0.27826   0.56034   0.85716   0.00000  Uiso   1.00
O361   O     0.13140   0.02962   0.75050   0.00000  Uiso   1.00
O362   O     0.57704   0.12980   0.03969   0.00000  Uiso   1.00
N363   N     0.26328   0.46721   0.89951   0.00000  Uiso   1.00
N364   N     0.15862   0.08902   0.82350   0.00000  Uiso   1.00
N365   N     0.47618   0.16040   0.02957   0.00000  Uiso   1.00
N366   N     0.32239   0.46931   0.82938   0.00000  Uiso   1.00
N367   N     0.21772   0.09112   0.75336   0.00000  Uiso   1.00
N368   N     0.53529   0.16249   0.95944   0.00000  Uiso   1.00
C369   C     0.73872   0.79418   0.42371   0.00000  Uiso   1.00
C370   C     0.80221   0.80011   0.39991   0.00000  Uiso   1.00
C371   C     0.85442   0.77218   0.41896   0.00000  Uiso   1.00
C372   C     0.90808   0.78334   0.39159   0.00000  Uiso   1.00
C373   C     0.00645   0.78679   0.36143   0.00000  Uiso   1.00
C374   C     0.69798   0.77126   0.37895   0.00000  Uiso   1.00
C375   C     0.66256   0.71907   0.38039   0.00000  Uiso   1.00
C376   C     0.62848   0.70595   0.33538   0.00000  Uiso   1.00
C377   C     0.56500   0.66463   0.27270   0.00000  Uiso   1.00
C378   C     0.71766   0.85878   0.43575   0.00000  Uiso   1.00
C379   C     0.69877   0.88017   0.48494   0.00000  Uiso   1.00
C380   C     0.68124   0.94074   0.48774   0.00000  Uiso   1.00
C381   C     0.64832   0.03531   0.51325   0.00000  Uiso   1.00
C382   C     0.74118   0.86368   0.34123   0.00000  Uiso   1.00
C383   C     0.80354   0.83787   0.35511   0.00000  Uiso   1.00
C384   C     0.85714   0.84908   0.32770   0.00000  Uiso   1.00
C385   C     0.90942   0.82116   0.34671   0.00000  Uiso   1.00
C386   C     0.69932   0.80901   0.33415   0.00000  Uiso   1.00
C387   C     0.66528   0.79597   0.28913   0.00000  Uiso   1.00
C388   C     0.62981   0.74377   0.29050   0.00000  Uiso   1.00
C389   C     0.71900   0.89654   0.39095   0.00000  Uiso   1.00
C390   C     0.70150   0.95708   0.39368   0.00000  Uiso   1.00
C391   C     0.68258   0.97856   0.44286   0.00000  Uiso   1.00
H392   H     0.73768   0.76478   0.45859   0.00000  Uiso   1.00
H393   H     0.85336   0.74296   0.45363   0.00000  Uiso   1.00
H394   H     0.66153   0.68986   0.41507   0.00000  Uiso   1.00
H395   H     0.69774   0.85094   0.51960   0.00000  Uiso   1.00
H396   H     0.98221   0.73539   0.42836   0.00000  Uiso   1.00
H397   H     0.57769   0.62345   0.34705   0.00000  Uiso   1.00
H398   H     0.65405   0.96312   0.56748   0.00000  Uiso   1.00
H399   H     0.74222   0.89308   0.30635   0.00000  Uiso   1.00
H400   H     0.85816   0.87830   0.29303   0.00000  Uiso   1.00
H401   H     0.66632   0.82520   0.25447   0.00000  Uiso   1.00
H402   H     0.70254   0.98628   0.35900   0.00000  Uiso   1.00
H403   H     0.98610   0.84524   0.29801   0.00000  Uiso   1.00
H404   H     0.58158   0.73329   0.21671   0.00000  Uiso   1.00
H405   H     0.65794   0.07297   0.43713   0.00000  Uiso   1.00
O406   O     0.06034   0.77826   0.35716   0.00000  Uiso   1.00
O407   O     0.52962   0.63140   0.25050   0.00000  Uiso   1.00
O408   O     0.62980   0.07704   0.53969   0.00000  Uiso   1.00
N409   N     0.96721   0.76328   0.39951   0.00000  Uiso   1.00
N410   N     0.58902   0.65862   0.32350   0.00000  Uiso   1.00
N411   N     0.66040   0.97618   0.52957   0.00000  Uiso   1.00
N412   N     0.96931   0.82239   0.32938   0.00000  Uiso   1.00
N413   N     0.59112   0.71772   0.25336   0.00000  Uiso   1.00
N414   N     0.66249   0.03529   0.45944   0.00000  Uiso   1.00
C415   C     0.26128   0.20582   0.42371   0.00000  Uiso   1.00
C416   C     0.19779   0.19989   0.39991   0.00000  Uiso   1.00
C417   C     0.14558   0.22782   0.41896   0.00000  Uiso   1.00
C418   C     0.09192   0.21666   0.39159   0.00000  Uiso   1.00
C419   C     0.99355   0.21321   0.36143   0.00000  Uiso   1.00
C420   C     0.30202   0.22874   0.37895   0.00000  Uiso   1.00
C421   C     0.33744   0.28093   0.38039   0.00000  Uiso   1.00
C422   C     0.37152   0.29405   0.33538   0.00000  Uiso   1.00
C423   C     0.43500   0.33537   0.27270   0.00000  Uiso   1.00
C424   C     0.28234   0.14122   0.43575   0.00000  Uiso   1.00
C425   C     0.30123   0.11983   0.48494   0.00000  Uiso   1.00
C426   C     0.31876   0.05926   0.48774   0.00000  Uiso   1.00
C427   C     0.35168   0.96469   0.51325   0.00000  Uiso   1.00
C428   C     0.25882   0.13632   0.34123   0.00000  Uiso   1.00
C429   C     0.19646   0.16213   0.35511   0.00000  Uiso   1.00
C430   C     0.14286   0.15092   0.32770   0.00000  Uiso   1.00
C431   C     0.09058   0.17884   0.34671   0.00000  Uiso   1.00
C432   C     0.30068   0.19099   0.33415   0.00000  Uiso   1.00
C433   C     0.33472   0.20403   0.28913   0.00000  Uiso   1.00
C434   C     0.37019   0.25623   0.29050   0.00000  Uiso   1.00
C435   C     0.28100   0.10346   0.39095   0.00000  Uiso   1.00
C436   C     0.29850   0.04292   0.39368   0.00000  Uiso   1.00
C437   C     0.31742   0.02144   0.44286   0.00000  Uiso   1.00
H438   H     0.26232   0.23522   0.45859   0.00000  Uiso   1.00
H439   H     0.14664   0.25704   0.45363   0.00000  Uiso   1.00
H440   H     0.33847   0.31014   0.41507   0.00000  Uiso   1.00
H441   H     0.30226   0.14906   0.51960   0.00000  Uiso   1.00
H442   H     0.01779   0.26461   0.42836   0.00000  Uiso   1.00
H443   H     0.42231   0.37655   0.34705   0.00000  Uiso   1.00
H444   H     0.34595   0.03688   0.56748   0.00000  Uiso   1.00
H445   H     0.25778   0.10692   0.30635   0.00000  Uiso   1.00
H446   H     0.14184   0.12170   0.29303   0.00000  Uiso   1.00
H447   H     0.33368   0.17480   0.25447   0.00000  Uiso   1.00
H448   H     0.29746   0.01372   0.35900   0.00000  Uiso   1.00
H449   H     0.01390   0.15476   0.29801   0.00000  Uiso   1.00
H450   H     0.41842   0.26671   0.21671   0.00000  Uiso   1.00
H451   H     0.34206   0.92703   0.43713   0.00000  Uiso   1.00
O452   O     0.93966   0.22174   0.35716   0.00000  Uiso   1.00
O453   O     0.47038   0.36860   0.25050   0.00000  Uiso   1.00
O454   O     0.37020   0.92296   0.53969   0.00000  Uiso   1.00
N455   N     0.03279   0.23672   0.39951   0.00000  Uiso   1.00
N456   N     0.41098   0.34138   0.32350   0.00000  Uiso   1.00
N457   N     0.33960   0.02382   0.52957   0.00000  Uiso   1.00
N458   N     0.03069   0.17761   0.32938   0.00000  Uiso   1.00
N459   N     0.40888   0.28228   0.25336   0.00000  Uiso   1.00
N460   N     0.33751   0.96471   0.45944   0.00000  Uiso   1.00
C461   C     0.70582   0.23872   0.42371   0.00000  Uiso   1.00
C462   C     0.69989   0.30221   0.39991   0.00000  Uiso   1.00
C463   C     0.72782   0.35442   0.41896   0.00000  Uiso   1.00
C464   C     0.71666   0.40808   0.39159   0.00000  Uiso   1.00
C465   C     0.71321   0.50645   0.36143   0.00000  Uiso   1.00
C466   C     0.72874   0.19798   0.37895   0.00000  Uiso   1.00
C467   C     0.78093   0.16256   0.38039   0.00000  Uiso   1.00
C468   C     0.79405   0.12848   0.33538   0.00000  Uiso   1.00
C469   C     0.83537   0.06500   0.27270   0.00000  Uiso   1.00
C470   C     0.64122   0.21766   0.43575   0.00000  Uiso   1.00
C471   C     0.61983   0.19877   0.48494   0.00000  Uiso   1.00
C472   C     0.55926   0.18124   0.48774   0.00000  Uiso   1.00
C473   C     0.46469   0.14832   0.51325   0.00000  Uiso   1.00
C474   C     0.63632   0.24118   0.34123   0.00000  Uiso   1.00
C475   C     0.66213   0.30354   0.35511   0.00000  Uiso   1.00
C476   C     0.65092   0.35714   0.32770   0.00000  Uiso   1.00
C477   C     0.67884   0.40942   0.34671   0.00000  Uiso   1.00
C478   C     0.69099   0.19932   0.33415   0.00000  Uiso   1.00
C479   C     0.70403   0.16528   0.28913   0.00000  Uiso   1.00
C480   C     0.75623   0.12981   0.29050   0.00000  Uiso   1.00
C481   C     0.60346   0.21900   0.39095   0.00000  Uiso   1.00
C482   C     0.54292   0.20150   0.39368   0.00000  Uiso   1.00
C483   C     0.52144   0.18258   0.44286   0.00000  Uiso   1.00
H484   H     0.73522   0.23768   0.45859   0.00000  Uiso   1.00
H485   H     0.75704   0.35336   0.45363   0.00000  Uiso   1.00
H486   H     0.81014   0.16153   0.41507   0.00000  Uiso   1.00
H487   H     0.64906   0.19774   0.51960   0.00000  Uiso   1.00
H488   H     0.76461   0.48221   0.42836   0.00000  Uiso   1.00
H489   H     0.87655   0.07769   0.34705   0.00000  Uiso   1.00
H490   H     0.53688   0.15405   0.56748   0.00000  Uiso   1.00
H491   H     0.60692   0.24222   0.30635   0.00000  Uiso   1.00
H492   H     0.62170   0.35816   0.29303   0.00000  Uiso   1.00
H493   H     0.67480   0.16632   0.25447   0.00000  Uiso   1.00
H494   H     0.51372   0.20254   0.35900   0.00000  Uiso   1.00
H495   H     0.65476   0.48610   0.29801   0.00000  Uiso   1.00
H496   H     0.76671   0.08158   0.21671   0.00000  Uiso   1.00
H497   H     0.42703   0.15794   0.43713   0.00000  Uiso   1.00
O498   O     0.72174   0.56034   0.35716   0.00000  Uiso   1.00
O499   O     0.86860   0.02962   0.25050   0.00000  Uiso   1.00
O500   O     0.42296   0.12980   0.53969   0.00000  Uiso   1.00
N501   N     0.73672   0.46721   0.39951   0.00000  Uiso   1.00
N502   N     0.84138   0.08902   0.32350   0.00000  Uiso   1.00
N503   N     0.52382   0.16040   0.52957   0.00000  Uiso   1.00
N504   N     0.67761   0.46931   0.32938   0.00000  Uiso   1.00
N505   N     0.78228   0.09112   0.25336   0.00000  Uiso   1.00
N506   N     0.46471   0.16249   0.45944   0.00000  Uiso   1.00
C507   C     0.29418   0.76128   0.42371   0.00000  Uiso   1.00
C508   C     0.30011   0.69779   0.39991   0.00000  Uiso   1.00
C509   C     0.27218   0.64558   0.41896   0.00000  Uiso   1.00
C510   C     0.28334   0.59192   0.39159   0.00000  Uiso   1.00
C511   C     0.28679   0.49355   0.36143   0.00000  Uiso   1.00
C512   C     0.27126   0.80202   0.37895   0.00000  Uiso   1.00
C513   C     0.21907   0.83744   0.38039   0.00000  Uiso   1.00
C514   C     0.20595   0.87152   0.33538   0.00000  Uiso   1.00
C515   C     0.16463   0.93500   0.27270   0.00000  Uiso   1.00
C516   C     0.35878   0.78234   0.43575   0.00000  Uiso   1.00
C517   C     0.38017   0.80123   0.48494   0.00000  Uiso   1.00
C518   C     0.44074   0.81876   0.48774   0.00000  Uiso   1.00
C519   C     0.53531   0.85168   0.51325   0.00000  Uiso   1.00
C520   C     0.36368   0.75882   0.34123   0.00000  Uiso   1.00
C521   C     0.33787   0.69646   0.35511   0.00000  Uiso   1.00
C522   C     0.34908   0.64286   0.32770   0.00000  Uiso   1.00
C523   C     0.32116   0.59058   0.34671   0.00000  Uiso   1.00
C524   C     0.30901   0.80068   0.33415   0.00000  Uiso   1.00
C525   C     0.29597   0.83472   0.28913   0.00000  Uiso   1.00
C526   C     0.24377   0.87019   0.29050   0.00000  Uiso   1.00
C527   C     0.39654   0.78100   0.39095   0.00000  Uiso   1.00
C528   C     0.45708   0.79850   0.39368   0.00000  Uiso   1.00
C529   C     0.47856   0.81742   0.44286   0.00000  Uiso   1.00
H530   H     0.26478   0.76232   0.45859   0.00000  Uiso   1.00
H531   H     0.24296   0.64664   0.45363   0.00000  Uiso   1.00
H532   H     0.18986   0.83847   0.41507   0.00000  Uiso   1.00
H533   H     0.35094   0.80226   0.51960   0.00000  Uiso   1.00
H534   H     0.23539   0.51779   0.42836   0.00000  Uiso   1.00
H535   H     0.12345   0.92231   0.34705   0.00000  Uiso   1.00
H536   H     0.46312   0.84595   0.56748   0.00000  Uiso   1.00
H537   H     0.39308   0.75778   0.30635   0.00000  Uiso   1.00
H538   H     0.37830   0.64184   0.29303   0.00000  Uiso   1.00
H539   H     0.32520   0.83368   0.25447   0.00000  Uiso   1.00
H540   H     0.48628   0.79746   0.35900   0.00000  Uiso   1.00
H541   H     0.34524   0.51390   0.29801   0.00000  Uiso   1.00
H542   H     0.23329   0.91842   0.21671   0.00000  Uiso   1.00
H543   H     0.57297   0.84206   0.43713   0.00000  Uiso   1.00
O544   O     0.27826   0.43966   0.35716   0.00000  Uiso   1.00
O545   O     0.13140   0.97038   0.25050   0.00000  Uiso   1.00
O546   O     0.57704   0.87020   0.53969   0.00000  Uiso   1.00
N547   N     0.26328   0.53279   0.39951   0.00000  Uiso   1.00
N548   N     0.15862   0.91098   0.32350   0.00000  Uiso   1.00
N549   N     0.47618   0.83960   0.52957   0.00000  Uiso   1.00
N550   N     0.32239   0.53069   0.32938   0.00000  Uiso   1.00
N551   N     0.21772   0.90888   0.25336   0.00000  Uiso   1.00
N552   N     0.53529   0.83751   0.45944   0.00000  Uiso   1.00
C553   C     0.76128   0.29418   0.07629   0.00000  Uiso   1.00
C554   C     0.69779   0.30011   0.10009   0.00000  Uiso   1.00
C555   C     0.64558   0.27218   0.08104   0.00000  Uiso   1.00
C556   C     0.59192   0.28334   0.10841   0.00000  Uiso   1.00
C557   C     0.49355   0.28679   0.13857   0.00000  Uiso   1.00
C558   C     0.80202   0.27126   0.12105   0.00000  Uiso   1.00
C559   C     0.83744   0.21907   0.11961   0.00000  Uiso   1.00
C560   C     0.87152   0.20595   0.16462   0.00000  Uiso   1.00
C561   C     0.93500   0.16463   0.22730   0.00000  Uiso   1.00
C562   C     0.78234   0.35878   0.06425   0.00000  Uiso   1.00
C563   C     0.80123   0.38017   0.01506   0.00000  Uiso   1.00
C564   C     0.81876   0.44074   0.01226   0.00000  Uiso   1.00
C565   C     0.85168   0.53531   0.98675   0.00000  Uiso   1.00
C566   C     0.75882   0.36368   0.15877   0.00000  Uiso   1.00
C567   C     0.69646   0.33787   0.14489   0.00000  Uiso   1.00
C568   C     0.64286   0.34908   0.17230   0.00000  Uiso   1.00
C569   C     0.59058   0.32116   0.15329   0.00000  Uiso   1.00
C570   C     0.80068   0.30901   0.16585   0.00000  Uiso   1.00
C571   C     0.83472   0.29597   0.21087   0.00000  Uiso   1.00
C572   C     0.87019   0.24377   0.20950   0.00000  Uiso   1.00
C573   C     0.78100   0.39654   0.10905   0.00000  Uiso   1.00
C574   C     0.79850   0.45708   0.10632   0.00000  Uiso   1.00
C575   C     0.81742   0.47856   0.05714   0.00000  Uiso   1.00
H576   H     0.76232   0.26478   0.04141   0.00000  Uiso   1.00
H577   H     0.64664   0.24296   0.04637   0.00000  Uiso   1.00
H578   H     0.83847   0.18986   0.08493   0.00000  Uiso   1.00
H579   H     0.80226   0.35094   0.98040   0.00000  Uiso   1.00
H580   H     0.51779   0.23539   0.07164   0.00000  Uiso   1.00
H581   H     0.92231   0.12345   0.15295   0.00000  Uiso   1.00
H582   H     0.84595   0.46312   0.93252   0.00000  Uiso   1.00
H583   H     0.75778   0.39308   0.19365   0.00000  Uiso   1.00
H584   H     0.64184   0.37830   0.20697   0.00000  Uiso   1.00
H585   H     0.83368   0.32520   0.24553   0.00000  Uiso   1.00
H586   H     0.79746   0.48628   0.14100   0.00000  Uiso   1.00
H587   H     0.51390   0.34524   0.20199   0.00000  Uiso   1.00
H588   H     0.91842   0.23329   0.28329   0.00000  Uiso   1.00
H589   H     0.84206   0.57297   0.06287   0.00000  Uiso   1.00
O590   O     0.43966   0.27826   0.14284   0.00000  Uiso   1.00
O591   O     0.97038   0.13140   0.24950   0.00000  Uiso   1.00
O592   O     0.87020   0.57704   0.96031   0.00000  Uiso   1.00
N593   N     0.53279   0.26328   0.10049   0.00000  Uiso   1.00
N594   N     0.91098   0.15862   0.17650   0.00000  Uiso   1.00
N595   N     0.83960   0.47618   0.97043   0.00000  Uiso   1.00
N596   N     0.53069   0.32239   0.17062   0.00000  Uiso   1.00
N597   N     0.90888   0.21772   0.24664   0.00000  Uiso   1.00
N598   N     0.83751   0.53529   0.04056   0.00000  Uiso   1.00
C599   C     0.23872   0.70582   0.07629   0.00000  Uiso   1.00
C600   C     0.30221   0.69989   0.10009   0.00000  Uiso   1.00
C601   C     0.35442   0.72782   0.08104   0.00000  Uiso   1.00
C602   C     0.40808   0.71666   0.10841   0.00000  Uiso   1.00
C603   C     0.50645   0.71321   0.13857   0.00000  Uiso   1.00
C604   C     0.19798   0.72874   0.12105   0.00000  Uiso   1.00
C605   C     0.16256   0.78093   0.11961   0.00000  Uiso   1.00
C606   C     0.12848   0.79405   0.16462   0.00000  Uiso   1.00
C607   C     0.06500   0.83537   0.22730   0.00000  Uiso   1.00
C608   C     0.21766   0.64122   0.06425   0.00000  Uiso   1.00
C609   C     0.19877   0.61983   0.01506   0.00000  Uiso   1.00
C610   C     0.18124   0.55926   0.01226   0.00000  Uiso   1.00
C611   C     0.14832   0.46469   0.98675   0.00000  Uiso   1.00
C612   C     0.24118   0.63632   0.15877   0.00000  Uiso   1.00
C613   C     0.30354   0.66213   0.14489   0.00000  Uiso   1.00
C614   C     0.35714   0.65092   0.17230   0.00000  Uiso   1.00
C615   C     0.40942   0.67884   0.15329   0.00000  Uiso   1.00
C616   C     0.19932   0.69099   0.16585   0.00000  Uiso   1.00
C617   C     0.16528   0.70403   0.21087   0.00000  Uiso   1.00
C618   C     0.12981   0.75623   0.20950   0.00000  Uiso   1.00
C619   C     0.21900   0.60346   0.10905   0.00000  Uiso   1.00
C620   C     0.20150   0.54292   0.10632   0.00000  Uiso   1.00
C621   C     0.18258   0.52144   0.05714   0.00000  Uiso   1.00
H622   H     0.23768   0.73522   0.04141   0.00000  Uiso   1.00
H623   H     0.35336   0.75704   0.04637   0.00000  Uiso   1.00
H624   H     0.16153   0.81014   0.08493   0.00000  Uiso   1.00
H625   H     0.19774   0.64906   0.98040   0.00000  Uiso   1.00
H626   H     0.48221   0.76461   0.07164   0.00000  Uiso   1.00
H627   H     0.07769   0.87655   0.15295   0.00000  Uiso   1.00
H628   H     0.15405   0.53688   0.93252   0.00000  Uiso   1.00
H629   H     0.24222   0.60692   0.19365   0.00000  Uiso   1.00
H630   H     0.35816   0.62170   0.20697   0.00000  Uiso   1.00
H631   H     0.16632   0.67480   0.24553   0.00000  Uiso   1.00
H632   H     0.20254   0.51372   0.14100   0.00000  Uiso   1.00
H633   H     0.48610   0.65476   0.20199   0.00000  Uiso   1.00
H634   H     0.08158   0.76671   0.28329   0.00000  Uiso   1.00
H635   H     0.15794   0.42703   0.06287   0.00000  Uiso   1.00
O636   O     0.56034   0.72174   0.14284   0.00000  Uiso   1.00
O637   O     0.02962   0.86860   0.24950   0.00000  Uiso   1.00
O638   O     0.12980   0.42296   0.96031   0.00000  Uiso   1.00
N639   N     0.46721   0.73672   0.10049   0.00000  Uiso   1.00
N640   N     0.08902   0.84138   0.17650   0.00000  Uiso   1.00
N641   N     0.16040   0.52382   0.97043   0.00000  Uiso   1.00
N642   N     0.46931   0.67761   0.17062   0.00000  Uiso   1.00
N643   N     0.09112   0.78228   0.24664   0.00000  Uiso   1.00
N644   N     0.16249   0.46471   0.04056   0.00000  Uiso   1.00
C645   C     0.79418   0.73872   0.07629   0.00000  Uiso   1.00
C646   C     0.80011   0.80221   0.10009   0.00000  Uiso   1.00
C647   C     0.77218   0.85442   0.08104   0.00000  Uiso   1.00
C648   C     0.78334   0.90808   0.10841   0.00000  Uiso   1.00
C649   C     0.78679   0.00645   0.13857   0.00000  Uiso   1.00
C650   C     0.77126   0.69798   0.12105   0.00000  Uiso   1.00
C651   C     0.71907   0.66256   0.11961   0.00000  Uiso   1.00
C652   C     0.70595   0.62848   0.16462   0.00000  Uiso   1.00
C653   C     0.66463   0.56500   0.22730   0.00000  Uiso   1.00
C654   C     0.85878   0.71766   0.06425   0.00000  Uiso   1.00
C655   C     0.88017   0.69877   0.01506   0.00000  Uiso   1.00
C656   C     0.94074   0.68124   0.01226   0.00000  Uiso   1.00
C657   C     0.03531   0.64832   0.98675   0.00000  Uiso   1.00
C658   C     0.86368   0.74118   0.15877   0.00000  Uiso   1.00
C659   C     0.83787   0.80354   0.14489   0.00000  Uiso   1.00
C660   C     0.84908   0.85714   0.17230   0.00000  Uiso   1.00
C661   C     0.82116   0.90942   0.15329   0.00000  Uiso   1.00
C662   C     0.80901   0.69932   0.16585   0.00000  Uiso   1.00
C663   C     0.79597   0.66528   0.21087   0.00000  Uiso   1.00
C664   C     0.74377   0.62981   0.20950   0.00000  Uiso   1.00
C665   C     0.89654   0.71900   0.10905   0.00000  Uiso   1.00
C666   C     0.95708   0.70150   0.10632   0.00000  Uiso   1.00
C667   C     0.97856   0.68258   0.05714   0.00000  Uiso   1.00
H668   H     0.76478   0.73768   0.04141   0.00000  Uiso   1.00
H669   H     0.74296   0.85336   0.04637   0.00000  Uiso   1.00
H670   H     0.68986   0.66153   0.08493   0.00000  Uiso   1.00
H671   H     0.85094   0.69774   0.98040   0.00000  Uiso   1.00
H672   H     0.73539   0.98221   0.07164   0.00000  Uiso   1.00
H673   H     0.62345   0.57769   0.15295   0.00000  Uiso   1.00
H674   H     0.96312   0.65405   0.93252   0.00000  Uiso   1.00
H675   H     0.89308   0.74222   0.19365   0.00000  Uiso   1.00
H676   H     0.87830   0.85816   0.20697   0.00000  Uiso   1.00
H677   H     0.82520   0.66632   0.24553   0.00000  Uiso   1.00
H678   H     0.98628   0.70254   0.14100   0.00000  Uiso   1.00
H679   H     0.84524   0.98610   0.20199   0.00000  Uiso   1.00
H680   H     0.73329   0.58158   0.28329   0.00000  Uiso   1.00
H681   H     0.07297   0.65794   0.06287   0.00000  Uiso   1.00
O682   O     0.77826   0.06034   0.14284   0.00000  Uiso   1.00
O683   O     0.63140   0.52962   0.24950   0.00000  Uiso   1.00
O684   O     0.07704   0.62980   0.96031   0.00000  Uiso   1.00
N685   N     0.76328   0.96721   0.10049   0.00000  Uiso   1.00
N686   N     0.65862   0.58902   0.17650   0.00000  Uiso   1.00
N687   N     0.97618   0.66040   0.97043   0.00000  Uiso   1.00
N688   N     0.82239   0.96931   0.17062   0.00000  Uiso   1.00
N689   N     0.71772   0.59112   0.24664   0.00000  Uiso   1.00
N690   N     0.03529   0.66249   0.04056   0.00000  Uiso   1.00
C691   C     0.20582   0.26128   0.07629   0.00000  Uiso   1.00
C692   C     0.19989   0.19779   0.10009   0.00000  Uiso   1.00
C693   C     0.22782   0.14558   0.08104   0.00000  Uiso   1.00
C694   C     0.21666   0.09192   0.10841   0.00000  Uiso   1.00
C695   C     0.21321   0.99355   0.13857   0.00000  Uiso   1.00
C696   C     0.22874   0.30202   0.12105   0.00000  Uiso   1.00
C697   C     0.28093   0.33744   0.11961   0.00000  Uiso   1.00
C698   C     0.29405   0.37152   0.16462   0.00000  Uiso   1.00
C699   C     0.33537   0.43500   0.22730   0.00000  Uiso   1.00
C700   C     0.14122   0.28234   0.06425   0.00000  Uiso   1.00
C701   C     0.11983   0.30123   0.01506   0.00000  Uiso   1.00
C702   C     0.05926   0.31876   0.01226   0.00000  Uiso   1.00
C703   C     0.96469   0.35168   0.98675   0.00000  Uiso   1.00
C704   C     0.13632   0.25882   0.15877   0.00000  Uiso   1.00
C705   C     0.16213   0.19646   0.14489   0.00000  Uiso   1.00
C706   C     0.15092   0.14286   0.17230   0.00000  Uiso   1.00
C707   C     0.17884   0.09058   0.15329   0.00000  Uiso   1.00
C708   C     0.19099   0.30068   0.16585   0.00000  Uiso   1.00
C709   C     0.20403   0.33472   0.21087   0.00000  Uiso   1.00
C710   C     0.25623   0.37019   0.20950   0.00000  Uiso   1.00
C711   C     0.10346   0.28100   0.10905   0.00000  Uiso   1.00
C712   C     0.04292   0.29850   0.10632   0.00000  Uiso   1.00
C713   C     0.02144   0.31742   0.05714   0.00000  Uiso   1.00
H714   H     0.23522   0.26232   0.04141   0.00000  Uiso   1.00
H715   H     0.25704   0.14664   0.04637   0.00000  Uiso   1.00
H716   H     0.31014   0.33847   0.08493   0.00000  Uiso   1.00
H717   H     0.14906   0.30226   0.98040   0.00000  Uiso   1.00
H718   H     0.26461   0.01779   0.07164   0.00000  Uiso   1.00
H719   H     0.37655   0.42231   0.15295   0.00000  Uiso   1.00
H720   H     0.03688   0.34595   0.93252   0.00000  Uiso   1.00
H721   H     0.10692   0.25778   0.19365   0.00000  Uiso   1.00
H722   H     0.12170   0.14184   0.20697   0.00000  Uiso   1.00
H723   H     0.17480   0.33368   0.24553   0.00000  Uiso   1.00
H724   H     0.01372   0.29746   0.14100   0.00000  Uiso   1.00
H725   H     0.15476   0.01390   0.20199   0.00000  Uiso   1.00
H726   H     0.26671   0.41842   0.28329   0.00000  Uiso   1.00
H727   H     0.92703   0.34206   0.06287   0.00000  Uiso   1.00
O728   O     0.22174   0.93966   0.14284   0.00000  Uiso   1.00
O729   O     0.36860   0.47038   0.24950   0.00000  Uiso   1.00
O730   O     0.92296   0.37020   0.96031   0.00000  Uiso   1.00
N731   N     0.23672   0.03279   0.10049   0.00000  Uiso   1.00
N732   N     0.34138   0.41098   0.17650   0.00000  Uiso   1.00
N733   N     0.02382   0.33960   0.97043   0.00000  Uiso   1.00
N734   N     0.17761   0.03069   0.17062   0.00000  Uiso   1.00
N735   N     0.28228   0.40888   0.24664   0.00000  Uiso   1.00
N736   N     0.96471   0.33751   0.04056   0.00000  Uiso   1.00
