data_job_00655
_audit_creation_date              2018-12-19
_audit_creation_method            'Materials Studio'
_symmetry_space_group_name_H-M    'P1'
_symmetry_Int_Tables_number       1
_symmetry_cell_setting            triclinic
loop_
_symmetry_equiv_pos_as_xyz
  x,y,z
_cell_length_a                    27.4885
_cell_length_b                    27.4885
_cell_length_c                    13.1506
_cell_angle_alpha                 90.0000
_cell_angle_beta                  90.0000
_cell_angle_gamma                 90.0000
loop_
_atom_site_label
_atom_site_type_symbol
_atom_site_fract_x
_atom_site_fract_y
_atom_site_fract_z
_atom_site_U_iso_or_equiv
_atom_site_adp_type
_atom_site_occupancy
C1     C     0.28517   0.40347   0.67996   0.00000  Uiso   1.00
C2     C     0.29652   0.38009   0.57751   0.00000  Uiso   1.00
C3     C     0.27786   0.33629   0.54239   0.00000  Uiso   1.00
C4     C     0.29271   0.32113   0.44659   0.00000  Uiso   1.00
C5     C     0.30544   0.28060   0.29644   0.00000  Uiso   1.00
C6     C     0.33408   0.41107   0.73232   0.00000  Uiso   1.00
C7     C     0.34699   0.39332   0.82736   0.00000  Uiso   1.00
C8     C     0.39346   0.40424   0.86188   0.00000  Uiso   1.00
C9     C     0.46448   0.41184   0.95210   0.00000  Uiso   1.00
C10    C     0.26572   0.45417   0.65626   0.00000  Uiso   1.00
C11    C     0.22116   0.47267   0.68737   0.00000  Uiso   1.00
C12    C     0.21008   0.51988   0.65786   0.00000  Uiso   1.00
C13    C     0.17497   0.59440   0.62998   0.00000  Uiso   1.00
C14    C     0.34472   0.45443   0.57228   0.00000  Uiso   1.00
C15    C     0.32887   0.40777   0.51903   0.00000  Uiso   1.00
C16    C     0.34375   0.39267   0.42325   0.00000  Uiso   1.00
C17    C     0.32512   0.34886   0.38799   0.00000  Uiso   1.00
C18    C     0.36643   0.43875   0.67384   0.00000  Uiso   1.00
C19    C     0.41288   0.44970   0.70822   0.00000  Uiso   1.00
C20    C     0.42587   0.43197   0.80329   0.00000  Uiso   1.00
C21    C     0.29807   0.48185   0.59777   0.00000  Uiso   1.00
C22    C     0.28705   0.52905   0.56822   0.00000  Uiso   1.00
C23    C     0.24249   0.54761   0.59927   0.00000  Uiso   1.00
H24    H     0.25998   0.38192   0.72550   0.00000  Uiso   1.00
H25    H     0.25283   0.31488   0.58768   0.00000  Uiso   1.00
H26    H     0.32195   0.37191   0.87261   0.00000  Uiso   1.00
H27    H     0.19614   0.45124   0.73263   0.00000  Uiso   1.00
H28    H     0.25918   0.25275   0.40911   0.00000  Uiso   1.00
H29    H     0.40491   0.37301   0.00991   0.00000  Uiso   1.00
H30    H     0.13962   0.54030   0.71473   0.00000  Uiso   1.00
H31    H     0.36991   0.47598   0.52674   0.00000  Uiso   1.00
H32    H     0.36879   0.41410   0.37801   0.00000  Uiso   1.00
H33    H     0.43791   0.47112   0.66294   0.00000  Uiso   1.00
H34    H     0.31210   0.55046   0.52296   0.00000  Uiso   1.00
H35    H     0.35330   0.33328   0.23893   0.00000  Uiso   1.00
H36    H     0.49903   0.45354   0.83974   0.00000  Uiso   1.00
H37    H     0.23373   0.62082   0.54456   0.00000  Uiso   1.00
O38    O     0.30353   0.25060   0.22978   0.00000  Uiso   1.00
O39    O     0.49472   0.40838   0.01801   0.00000  Uiso   1.00
O40    O     0.14666   0.62786   0.63075   0.00000  Uiso   1.00
N41    N     0.28148   0.28020   0.38946   0.00000  Uiso   1.00
N42    N     0.41773   0.39263   0.95116   0.00000  Uiso   1.00
N43    N     0.16971   0.54903   0.67522   0.00000  Uiso   1.00
N44    N     0.33212   0.32353   0.29789   0.00000  Uiso   1.00
N45    N     0.46837   0.43596   0.85959   0.00000  Uiso   1.00
N46    N     0.22035   0.59236   0.58365   0.00000  Uiso   1.00
C47    C     0.78517   0.90347   0.17996   0.00000  Uiso   1.00
C48    C     0.79652   0.88009   0.07751   0.00000  Uiso   1.00
C49    C     0.77786   0.83629   0.04239   0.00000  Uiso   1.00
C50    C     0.79271   0.82113   0.94659   0.00000  Uiso   1.00
C51    C     0.80544   0.78060   0.79644   0.00000  Uiso   1.00
C52    C     0.83408   0.91107   0.23232   0.00000  Uiso   1.00
C53    C     0.84699   0.89332   0.32736   0.00000  Uiso   1.00
C54    C     0.89346   0.90424   0.36188   0.00000  Uiso   1.00
C55    C     0.96448   0.91184   0.45210   0.00000  Uiso   1.00
C56    C     0.76572   0.95417   0.15626   0.00000  Uiso   1.00
C57    C     0.72116   0.97267   0.18737   0.00000  Uiso   1.00
C58    C     0.71008   0.01988   0.15786   0.00000  Uiso   1.00
C59    C     0.67497   0.09440   0.12998   0.00000  Uiso   1.00
C60    C     0.84472   0.95443   0.07228   0.00000  Uiso   1.00
C61    C     0.82887   0.90777   0.01903   0.00000  Uiso   1.00
C62    C     0.84375   0.89267   0.92325   0.00000  Uiso   1.00
C63    C     0.82512   0.84886   0.88799   0.00000  Uiso   1.00
C64    C     0.86643   0.93875   0.17384   0.00000  Uiso   1.00
C65    C     0.91288   0.94970   0.20822   0.00000  Uiso   1.00
C66    C     0.92587   0.93197   0.30329   0.00000  Uiso   1.00
C67    C     0.79807   0.98185   0.09777   0.00000  Uiso   1.00
C68    C     0.78705   0.02905   0.06822   0.00000  Uiso   1.00
C69    C     0.74249   0.04761   0.09927   0.00000  Uiso   1.00
H70    H     0.75998   0.88192   0.22550   0.00000  Uiso   1.00
H71    H     0.75283   0.81488   0.08768   0.00000  Uiso   1.00
H72    H     0.82195   0.87191   0.37261   0.00000  Uiso   1.00
H73    H     0.69614   0.95124   0.23263   0.00000  Uiso   1.00
H74    H     0.75918   0.75275   0.90911   0.00000  Uiso   1.00
H75    H     0.90491   0.87301   0.50991   0.00000  Uiso   1.00
H76    H     0.63962   0.04030   0.21473   0.00000  Uiso   1.00
H77    H     0.86991   0.97598   0.02674   0.00000  Uiso   1.00
H78    H     0.86879   0.91410   0.87801   0.00000  Uiso   1.00
H79    H     0.93791   0.97112   0.16294   0.00000  Uiso   1.00
H80    H     0.81210   0.05046   0.02296   0.00000  Uiso   1.00
H81    H     0.85330   0.83328   0.73893   0.00000  Uiso   1.00
H82    H     0.99903   0.95354   0.33974   0.00000  Uiso   1.00
H83    H     0.73373   0.12082   0.04456   0.00000  Uiso   1.00
O84    O     0.80353   0.75060   0.72978   0.00000  Uiso   1.00
O85    O     0.99472   0.90838   0.51801   0.00000  Uiso   1.00
O86    O     0.64666   0.12786   0.13075   0.00000  Uiso   1.00
N87    N     0.78148   0.78020   0.88946   0.00000  Uiso   1.00
N88    N     0.91773   0.89263   0.45116   0.00000  Uiso   1.00
N89    N     0.66971   0.04903   0.17522   0.00000  Uiso   1.00
N90    N     0.83212   0.82353   0.79789   0.00000  Uiso   1.00
N91    N     0.96837   0.93596   0.35959   0.00000  Uiso   1.00
N92    N     0.72035   0.09236   0.08365   0.00000  Uiso   1.00
C93    C     0.21483   0.09653   0.17996   0.00000  Uiso   1.00
C94    C     0.20348   0.11991   0.07751   0.00000  Uiso   1.00
C95    C     0.22214   0.16371   0.04239   0.00000  Uiso   1.00
C96    C     0.20729   0.17887   0.94659   0.00000  Uiso   1.00
C97    C     0.19456   0.21940   0.79644   0.00000  Uiso   1.00
C98    C     0.16592   0.08893   0.23232   0.00000  Uiso   1.00
C99    C     0.15301   0.10668   0.32736   0.00000  Uiso   1.00
C100   C     0.10654   0.09576   0.36188   0.00000  Uiso   1.00
C101   C     0.03552   0.08816   0.45210   0.00000  Uiso   1.00
C102   C     0.23428   0.04583   0.15626   0.00000  Uiso   1.00
C103   C     0.27884   0.02733   0.18737   0.00000  Uiso   1.00
C104   C     0.28992   0.98012   0.15786   0.00000  Uiso   1.00
C105   C     0.32503   0.90560   0.12998   0.00000  Uiso   1.00
C106   C     0.15528   0.04557   0.07228   0.00000  Uiso   1.00
C107   C     0.17113   0.09223   0.01903   0.00000  Uiso   1.00
C108   C     0.15625   0.10733   0.92325   0.00000  Uiso   1.00
C109   C     0.17488   0.15114   0.88799   0.00000  Uiso   1.00
C110   C     0.13357   0.06125   0.17384   0.00000  Uiso   1.00
C111   C     0.08712   0.05030   0.20822   0.00000  Uiso   1.00
C112   C     0.07413   0.06803   0.30329   0.00000  Uiso   1.00
C113   C     0.20193   0.01815   0.09777   0.00000  Uiso   1.00
C114   C     0.21295   0.97095   0.06822   0.00000  Uiso   1.00
C115   C     0.25751   0.95239   0.09927   0.00000  Uiso   1.00
H116   H     0.24002   0.11808   0.22550   0.00000  Uiso   1.00
H117   H     0.24717   0.18512   0.08768   0.00000  Uiso   1.00
H118   H     0.17805   0.12809   0.37261   0.00000  Uiso   1.00
H119   H     0.30386   0.04876   0.23263   0.00000  Uiso   1.00
H120   H     0.24082   0.24725   0.90911   0.00000  Uiso   1.00
H121   H     0.09509   0.12699   0.50991   0.00000  Uiso   1.00
H122   H     0.36038   0.95970   0.21473   0.00000  Uiso   1.00
H123   H     0.13009   0.02402   0.02674   0.00000  Uiso   1.00
H124   H     0.13121   0.08590   0.87801   0.00000  Uiso   1.00
H125   H     0.06209   0.02888   0.16294   0.00000  Uiso   1.00
H126   H     0.18790   0.94954   0.02296   0.00000  Uiso   1.00
H127   H     0.14670   0.16672   0.73893   0.00000  Uiso   1.00
H128   H     0.00097   0.04646   0.33974   0.00000  Uiso   1.00
H129   H     0.26627   0.87918   0.04456   0.00000  Uiso   1.00
O130   O     0.19647   0.24940   0.72978   0.00000  Uiso   1.00
O131   O     0.00528   0.09162   0.51801   0.00000  Uiso   1.00
O132   O     0.35334   0.87214   0.13075   0.00000  Uiso   1.00
N133   N     0.21852   0.21980   0.88946   0.00000  Uiso   1.00
N134   N     0.08227   0.10737   0.45116   0.00000  Uiso   1.00
N135   N     0.33029   0.95097   0.17522   0.00000  Uiso   1.00
N136   N     0.16788   0.17647   0.79789   0.00000  Uiso   1.00
N137   N     0.03163   0.06404   0.35959   0.00000  Uiso   1.00
N138   N     0.27965   0.90764   0.08365   0.00000  Uiso   1.00
C139   C     0.71483   0.59653   0.67996   0.00000  Uiso   1.00
C140   C     0.70348   0.61991   0.57751   0.00000  Uiso   1.00
C141   C     0.72214   0.66371   0.54239   0.00000  Uiso   1.00
C142   C     0.70729   0.67887   0.44659   0.00000  Uiso   1.00
C143   C     0.69456   0.71940   0.29644   0.00000  Uiso   1.00
C144   C     0.66592   0.58893   0.73232   0.00000  Uiso   1.00
C145   C     0.65301   0.60668   0.82736   0.00000  Uiso   1.00
C146   C     0.60654   0.59576   0.86188   0.00000  Uiso   1.00
C147   C     0.53552   0.58816   0.95210   0.00000  Uiso   1.00
C148   C     0.73428   0.54583   0.65626   0.00000  Uiso   1.00
C149   C     0.77884   0.52733   0.68737   0.00000  Uiso   1.00
C150   C     0.78992   0.48012   0.65786   0.00000  Uiso   1.00
C151   C     0.82503   0.40560   0.62998   0.00000  Uiso   1.00
C152   C     0.65528   0.54557   0.57228   0.00000  Uiso   1.00
C153   C     0.67113   0.59223   0.51903   0.00000  Uiso   1.00
C154   C     0.65625   0.60733   0.42325   0.00000  Uiso   1.00
C155   C     0.67488   0.65114   0.38799   0.00000  Uiso   1.00
C156   C     0.63357   0.56125   0.67384   0.00000  Uiso   1.00
C157   C     0.58712   0.55030   0.70822   0.00000  Uiso   1.00
C158   C     0.57413   0.56803   0.80329   0.00000  Uiso   1.00
C159   C     0.70193   0.51815   0.59777   0.00000  Uiso   1.00
C160   C     0.71295   0.47095   0.56822   0.00000  Uiso   1.00
C161   C     0.75751   0.45239   0.59927   0.00000  Uiso   1.00
H162   H     0.74002   0.61808   0.72550   0.00000  Uiso   1.00
H163   H     0.74717   0.68512   0.58768   0.00000  Uiso   1.00
H164   H     0.67805   0.62809   0.87261   0.00000  Uiso   1.00
H165   H     0.80386   0.54876   0.73263   0.00000  Uiso   1.00
H166   H     0.74082   0.74725   0.40911   0.00000  Uiso   1.00
H167   H     0.59509   0.62699   0.00991   0.00000  Uiso   1.00
H168   H     0.86038   0.45970   0.71473   0.00000  Uiso   1.00
H169   H     0.63009   0.52402   0.52674   0.00000  Uiso   1.00
H170   H     0.63121   0.58590   0.37801   0.00000  Uiso   1.00
H171   H     0.56209   0.52888   0.66294   0.00000  Uiso   1.00
H172   H     0.68790   0.44954   0.52296   0.00000  Uiso   1.00
H173   H     0.64670   0.66672   0.23893   0.00000  Uiso   1.00
H174   H     0.50097   0.54646   0.83974   0.00000  Uiso   1.00
H175   H     0.76627   0.37918   0.54456   0.00000  Uiso   1.00
O176   O     0.69647   0.74940   0.22978   0.00000  Uiso   1.00
O177   O     0.50528   0.59162   0.01801   0.00000  Uiso   1.00
O178   O     0.85334   0.37214   0.63075   0.00000  Uiso   1.00
N179   N     0.71852   0.71980   0.38946   0.00000  Uiso   1.00
N180   N     0.58227   0.60737   0.95116   0.00000  Uiso   1.00
N181   N     0.83029   0.45097   0.67522   0.00000  Uiso   1.00
N182   N     0.66788   0.67647   0.29789   0.00000  Uiso   1.00
N183   N     0.53163   0.56404   0.85959   0.00000  Uiso   1.00
N184   N     0.77965   0.40764   0.58365   0.00000  Uiso   1.00
C185   C     0.59653   0.78517   0.92996   0.00000  Uiso   1.00
C186   C     0.61991   0.79652   0.82751   0.00000  Uiso   1.00
C187   C     0.66371   0.77786   0.79239   0.00000  Uiso   1.00
C188   C     0.67887   0.79271   0.69659   0.00000  Uiso   1.00
C189   C     0.71940   0.80544   0.54644   0.00000  Uiso   1.00
C190   C     0.58893   0.83408   0.98232   0.00000  Uiso   1.00
C191   C     0.60668   0.84699   0.07736   0.00000  Uiso   1.00
C192   C     0.59576   0.89346   0.11188   0.00000  Uiso   1.00
C193   C     0.58816   0.96448   0.20210   0.00000  Uiso   1.00
C194   C     0.54583   0.76572   0.90626   0.00000  Uiso   1.00
C195   C     0.52733   0.72116   0.93737   0.00000  Uiso   1.00
C196   C     0.48012   0.71008   0.90786   0.00000  Uiso   1.00
C197   C     0.40560   0.67497   0.87998   0.00000  Uiso   1.00
C198   C     0.54557   0.84472   0.82228   0.00000  Uiso   1.00
C199   C     0.59223   0.82887   0.76903   0.00000  Uiso   1.00
C200   C     0.60733   0.84375   0.67325   0.00000  Uiso   1.00
C201   C     0.65114   0.82512   0.63799   0.00000  Uiso   1.00
C202   C     0.56125   0.86643   0.92384   0.00000  Uiso   1.00
C203   C     0.55030   0.91288   0.95822   0.00000  Uiso   1.00
C204   C     0.56803   0.92587   0.05329   0.00000  Uiso   1.00
C205   C     0.51815   0.79807   0.84777   0.00000  Uiso   1.00
C206   C     0.47095   0.78705   0.81822   0.00000  Uiso   1.00
C207   C     0.45239   0.74249   0.84927   0.00000  Uiso   1.00
H208   H     0.61808   0.75998   0.97550   0.00000  Uiso   1.00
H209   H     0.68512   0.75283   0.83768   0.00000  Uiso   1.00
H210   H     0.62809   0.82195   0.12261   0.00000  Uiso   1.00
H211   H     0.54876   0.69614   0.98263   0.00000  Uiso   1.00
H212   H     0.74725   0.75918   0.65911   0.00000  Uiso   1.00
H213   H     0.62699   0.90491   0.25991   0.00000  Uiso   1.00
H214   H     0.45970   0.63962   0.96473   0.00000  Uiso   1.00
H215   H     0.52402   0.86991   0.77674   0.00000  Uiso   1.00
H216   H     0.58590   0.86879   0.62801   0.00000  Uiso   1.00
H217   H     0.52888   0.93791   0.91294   0.00000  Uiso   1.00
H218   H     0.44954   0.81210   0.77296   0.00000  Uiso   1.00
H219   H     0.66672   0.85330   0.48893   0.00000  Uiso   1.00
H220   H     0.54646   0.99903   0.08974   0.00000  Uiso   1.00
H221   H     0.37918   0.73373   0.79456   0.00000  Uiso   1.00
O222   O     0.74940   0.80353   0.47978   0.00000  Uiso   1.00
O223   O     0.59162   0.99472   0.26801   0.00000  Uiso   1.00
O224   O     0.37214   0.64666   0.88075   0.00000  Uiso   1.00
N225   N     0.71980   0.78148   0.63946   0.00000  Uiso   1.00
N226   N     0.60737   0.91773   0.20116   0.00000  Uiso   1.00
N227   N     0.45097   0.66971   0.92522   0.00000  Uiso   1.00
N228   N     0.67647   0.83212   0.54789   0.00000  Uiso   1.00
N229   N     0.56404   0.96837   0.10959   0.00000  Uiso   1.00
N230   N     0.40764   0.72035   0.83365   0.00000  Uiso   1.00
C231   C     0.09653   0.28517   0.42996   0.00000  Uiso   1.00
C232   C     0.11991   0.29652   0.32751   0.00000  Uiso   1.00
C233   C     0.16371   0.27786   0.29239   0.00000  Uiso   1.00
C234   C     0.17887   0.29271   0.19659   0.00000  Uiso   1.00
C235   C     0.21940   0.30544   0.04644   0.00000  Uiso   1.00
C236   C     0.08893   0.33408   0.48232   0.00000  Uiso   1.00
C237   C     0.10668   0.34699   0.57736   0.00000  Uiso   1.00
C238   C     0.09576   0.39346   0.61188   0.00000  Uiso   1.00
C239   C     0.08816   0.46448   0.70210   0.00000  Uiso   1.00
C240   C     0.04583   0.26572   0.40626   0.00000  Uiso   1.00
C241   C     0.02733   0.22116   0.43737   0.00000  Uiso   1.00
C242   C     0.98012   0.21008   0.40786   0.00000  Uiso   1.00
C243   C     0.90560   0.17497   0.37998   0.00000  Uiso   1.00
C244   C     0.04557   0.34472   0.32228   0.00000  Uiso   1.00
C245   C     0.09223   0.32887   0.26903   0.00000  Uiso   1.00
C246   C     0.10733   0.34375   0.17325   0.00000  Uiso   1.00
C247   C     0.15114   0.32512   0.13799   0.00000  Uiso   1.00
C248   C     0.06125   0.36643   0.42384   0.00000  Uiso   1.00
C249   C     0.05030   0.41288   0.45822   0.00000  Uiso   1.00
C250   C     0.06803   0.42587   0.55329   0.00000  Uiso   1.00
C251   C     0.01815   0.29807   0.34777   0.00000  Uiso   1.00
C252   C     0.97095   0.28705   0.31822   0.00000  Uiso   1.00
C253   C     0.95239   0.24249   0.34927   0.00000  Uiso   1.00
H254   H     0.11808   0.25998   0.47550   0.00000  Uiso   1.00
H255   H     0.18512   0.25283   0.33768   0.00000  Uiso   1.00
H256   H     0.12809   0.32195   0.62261   0.00000  Uiso   1.00
H257   H     0.04876   0.19614   0.48263   0.00000  Uiso   1.00
H258   H     0.24725   0.25918   0.15911   0.00000  Uiso   1.00
H259   H     0.12699   0.40491   0.75991   0.00000  Uiso   1.00
H260   H     0.95970   0.13962   0.46473   0.00000  Uiso   1.00
H261   H     0.02402   0.36991   0.27674   0.00000  Uiso   1.00
H262   H     0.08590   0.36879   0.12801   0.00000  Uiso   1.00
H263   H     0.02888   0.43791   0.41294   0.00000  Uiso   1.00
H264   H     0.94954   0.31210   0.27296   0.00000  Uiso   1.00
H265   H     0.16672   0.35330   0.98893   0.00000  Uiso   1.00
H266   H     0.04646   0.49903   0.58974   0.00000  Uiso   1.00
H267   H     0.87918   0.23373   0.29456   0.00000  Uiso   1.00
O268   O     0.24940   0.30353   0.97978   0.00000  Uiso   1.00
O269   O     0.09162   0.49472   0.76801   0.00000  Uiso   1.00
O270   O     0.87214   0.14666   0.38075   0.00000  Uiso   1.00
N271   N     0.21980   0.28148   0.13946   0.00000  Uiso   1.00
N272   N     0.10737   0.41773   0.70116   0.00000  Uiso   1.00
N273   N     0.95097   0.16971   0.42522   0.00000  Uiso   1.00
N274   N     0.17647   0.33212   0.04789   0.00000  Uiso   1.00
N275   N     0.06404   0.46837   0.60959   0.00000  Uiso   1.00
N276   N     0.90764   0.22035   0.33365   0.00000  Uiso   1.00
C277   C     0.90347   0.71483   0.42996   0.00000  Uiso   1.00
C278   C     0.88009   0.70348   0.32751   0.00000  Uiso   1.00
C279   C     0.83629   0.72214   0.29239   0.00000  Uiso   1.00
C280   C     0.82113   0.70729   0.19659   0.00000  Uiso   1.00
C281   C     0.78060   0.69456   0.04644   0.00000  Uiso   1.00
C282   C     0.91107   0.66592   0.48232   0.00000  Uiso   1.00
C283   C     0.89332   0.65301   0.57736   0.00000  Uiso   1.00
C284   C     0.90424   0.60654   0.61188   0.00000  Uiso   1.00
C285   C     0.91184   0.53552   0.70210   0.00000  Uiso   1.00
C286   C     0.95417   0.73428   0.40626   0.00000  Uiso   1.00
C287   C     0.97267   0.77884   0.43737   0.00000  Uiso   1.00
C288   C     0.01988   0.78992   0.40786   0.00000  Uiso   1.00
C289   C     0.09440   0.82503   0.37998   0.00000  Uiso   1.00
C290   C     0.95443   0.65528   0.32228   0.00000  Uiso   1.00
C291   C     0.90777   0.67113   0.26903   0.00000  Uiso   1.00
C292   C     0.89267   0.65625   0.17325   0.00000  Uiso   1.00
C293   C     0.84886   0.67488   0.13799   0.00000  Uiso   1.00
C294   C     0.93875   0.63357   0.42384   0.00000  Uiso   1.00
C295   C     0.94970   0.58712   0.45822   0.00000  Uiso   1.00
C296   C     0.93197   0.57413   0.55329   0.00000  Uiso   1.00
C297   C     0.98185   0.70193   0.34777   0.00000  Uiso   1.00
C298   C     0.02905   0.71295   0.31822   0.00000  Uiso   1.00
C299   C     0.04761   0.75751   0.34927   0.00000  Uiso   1.00
H300   H     0.88192   0.74002   0.47550   0.00000  Uiso   1.00
H301   H     0.81488   0.74717   0.33768   0.00000  Uiso   1.00
H302   H     0.87191   0.67805   0.62261   0.00000  Uiso   1.00
H303   H     0.95124   0.80386   0.48263   0.00000  Uiso   1.00
H304   H     0.75275   0.74082   0.15911   0.00000  Uiso   1.00
H305   H     0.87301   0.59509   0.75991   0.00000  Uiso   1.00
H306   H     0.04030   0.86038   0.46473   0.00000  Uiso   1.00
H307   H     0.97598   0.63009   0.27674   0.00000  Uiso   1.00
H308   H     0.91410   0.63121   0.12801   0.00000  Uiso   1.00
H309   H     0.97112   0.56209   0.41294   0.00000  Uiso   1.00
H310   H     0.05046   0.68790   0.27296   0.00000  Uiso   1.00
H311   H     0.83328   0.64670   0.98893   0.00000  Uiso   1.00
H312   H     0.95354   0.50097   0.58974   0.00000  Uiso   1.00
H313   H     0.12082   0.76627   0.29456   0.00000  Uiso   1.00
O314   O     0.75060   0.69647   0.97978   0.00000  Uiso   1.00
O315   O     0.90838   0.50528   0.76801   0.00000  Uiso   1.00
O316   O     0.12786   0.85334   0.38075   0.00000  Uiso   1.00
N317   N     0.78020   0.71852   0.13946   0.00000  Uiso   1.00
N318   N     0.89263   0.58227   0.70116   0.00000  Uiso   1.00
N319   N     0.04903   0.83029   0.42522   0.00000  Uiso   1.00
N320   N     0.82353   0.66788   0.04789   0.00000  Uiso   1.00
N321   N     0.93596   0.53163   0.60959   0.00000  Uiso   1.00
N322   N     0.09236   0.77965   0.33365   0.00000  Uiso   1.00
C323   C     0.40347   0.21483   0.92996   0.00000  Uiso   1.00
C324   C     0.38009   0.20348   0.82751   0.00000  Uiso   1.00
C325   C     0.33629   0.22214   0.79239   0.00000  Uiso   1.00
C326   C     0.32113   0.20729   0.69659   0.00000  Uiso   1.00
C327   C     0.28060   0.19456   0.54644   0.00000  Uiso   1.00
C328   C     0.41107   0.16592   0.98232   0.00000  Uiso   1.00
C329   C     0.39332   0.15301   0.07736   0.00000  Uiso   1.00
C330   C     0.40424   0.10654   0.11188   0.00000  Uiso   1.00
C331   C     0.41184   0.03552   0.20210   0.00000  Uiso   1.00
C332   C     0.45417   0.23428   0.90626   0.00000  Uiso   1.00
C333   C     0.47267   0.27884   0.93737   0.00000  Uiso   1.00
C334   C     0.51988   0.28992   0.90786   0.00000  Uiso   1.00
C335   C     0.59440   0.32503   0.87998   0.00000  Uiso   1.00
C336   C     0.45443   0.15528   0.82228   0.00000  Uiso   1.00
C337   C     0.40777   0.17113   0.76903   0.00000  Uiso   1.00
C338   C     0.39267   0.15625   0.67325   0.00000  Uiso   1.00
C339   C     0.34886   0.17488   0.63799   0.00000  Uiso   1.00
C340   C     0.43875   0.13357   0.92384   0.00000  Uiso   1.00
C341   C     0.44970   0.08712   0.95822   0.00000  Uiso   1.00
C342   C     0.43197   0.07413   0.05329   0.00000  Uiso   1.00
C343   C     0.48185   0.20193   0.84777   0.00000  Uiso   1.00
C344   C     0.52905   0.21295   0.81822   0.00000  Uiso   1.00
C345   C     0.54761   0.25751   0.84927   0.00000  Uiso   1.00
H346   H     0.38192   0.24002   0.97550   0.00000  Uiso   1.00
H347   H     0.31488   0.24717   0.83768   0.00000  Uiso   1.00
H348   H     0.37191   0.17805   0.12261   0.00000  Uiso   1.00
H349   H     0.45124   0.30386   0.98263   0.00000  Uiso   1.00
H350   H     0.25275   0.24082   0.65911   0.00000  Uiso   1.00
H351   H     0.37301   0.09509   0.25991   0.00000  Uiso   1.00
H352   H     0.54030   0.36038   0.96473   0.00000  Uiso   1.00
H353   H     0.47598   0.13009   0.77674   0.00000  Uiso   1.00
H354   H     0.41410   0.13121   0.62801   0.00000  Uiso   1.00
H355   H     0.47112   0.06209   0.91294   0.00000  Uiso   1.00
H356   H     0.55046   0.18790   0.77296   0.00000  Uiso   1.00
H357   H     0.33328   0.14670   0.48893   0.00000  Uiso   1.00
H358   H     0.45354   0.00097   0.08974   0.00000  Uiso   1.00
H359   H     0.62082   0.26627   0.79456   0.00000  Uiso   1.00
O360   O     0.25060   0.19647   0.47978   0.00000  Uiso   1.00
O361   O     0.40838   0.00528   0.26801   0.00000  Uiso   1.00
O362   O     0.62786   0.35334   0.88075   0.00000  Uiso   1.00
N363   N     0.28020   0.21852   0.63946   0.00000  Uiso   1.00
N364   N     0.39263   0.08227   0.20116   0.00000  Uiso   1.00
N365   N     0.54903   0.33029   0.92522   0.00000  Uiso   1.00
N366   N     0.32353   0.16788   0.54789   0.00000  Uiso   1.00
N367   N     0.43596   0.03163   0.10959   0.00000  Uiso   1.00
N368   N     0.59236   0.27965   0.83365   0.00000  Uiso   1.00
C369   C     0.71483   0.09653   0.57004   0.00000  Uiso   1.00
C370   C     0.70348   0.11991   0.67249   0.00000  Uiso   1.00
C371   C     0.72214   0.16371   0.70761   0.00000  Uiso   1.00
C372   C     0.70729   0.17887   0.80341   0.00000  Uiso   1.00
C373   C     0.69456   0.21940   0.95356   0.00000  Uiso   1.00
C374   C     0.66592   0.08893   0.51768   0.00000  Uiso   1.00
C375   C     0.65301   0.10668   0.42264   0.00000  Uiso   1.00
C376   C     0.60654   0.09576   0.38812   0.00000  Uiso   1.00
C377   C     0.53552   0.08816   0.29790   0.00000  Uiso   1.00
C378   C     0.73428   0.04583   0.59374   0.00000  Uiso   1.00
C379   C     0.77884   0.02733   0.56263   0.00000  Uiso   1.00
C380   C     0.78992   0.98012   0.59214   0.00000  Uiso   1.00
C381   C     0.82503   0.90560   0.62002   0.00000  Uiso   1.00
C382   C     0.65528   0.04557   0.67772   0.00000  Uiso   1.00
C383   C     0.67113   0.09223   0.73097   0.00000  Uiso   1.00
C384   C     0.65625   0.10733   0.82675   0.00000  Uiso   1.00
C385   C     0.67488   0.15114   0.86201   0.00000  Uiso   1.00
C386   C     0.63357   0.06125   0.57616   0.00000  Uiso   1.00
C387   C     0.58712   0.05030   0.54178   0.00000  Uiso   1.00
C388   C     0.57413   0.06803   0.44671   0.00000  Uiso   1.00
C389   C     0.70193   0.01815   0.65223   0.00000  Uiso   1.00
C390   C     0.71295   0.97095   0.68178   0.00000  Uiso   1.00
C391   C     0.75751   0.95239   0.65073   0.00000  Uiso   1.00
H392   H     0.74002   0.11808   0.52450   0.00000  Uiso   1.00
H393   H     0.74717   0.18512   0.66232   0.00000  Uiso   1.00
H394   H     0.67805   0.12809   0.37739   0.00000  Uiso   1.00
H395   H     0.80386   0.04876   0.51737   0.00000  Uiso   1.00
H396   H     0.74082   0.24725   0.84089   0.00000  Uiso   1.00
H397   H     0.59509   0.12699   0.24009   0.00000  Uiso   1.00
H398   H     0.86038   0.95970   0.53527   0.00000  Uiso   1.00
H399   H     0.63009   0.02402   0.72326   0.00000  Uiso   1.00
H400   H     0.63121   0.08590   0.87199   0.00000  Uiso   1.00
H401   H     0.56209   0.02888   0.58706   0.00000  Uiso   1.00
H402   H     0.68790   0.94954   0.72704   0.00000  Uiso   1.00
H403   H     0.64670   0.16672   0.01107   0.00000  Uiso   1.00
H404   H     0.50097   0.04646   0.41026   0.00000  Uiso   1.00
H405   H     0.76627   0.87918   0.70544   0.00000  Uiso   1.00
O406   O     0.69647   0.24940   0.02022   0.00000  Uiso   1.00
O407   O     0.50528   0.09162   0.23199   0.00000  Uiso   1.00
O408   O     0.85334   0.87214   0.61925   0.00000  Uiso   1.00
N409   N     0.71852   0.21980   0.86054   0.00000  Uiso   1.00
N410   N     0.58227   0.10737   0.29884   0.00000  Uiso   1.00
N411   N     0.83029   0.95097   0.57478   0.00000  Uiso   1.00
N412   N     0.66788   0.17647   0.95211   0.00000  Uiso   1.00
N413   N     0.53163   0.06404   0.39041   0.00000  Uiso   1.00
N414   N     0.77965   0.90764   0.66635   0.00000  Uiso   1.00
C415   C     0.21483   0.59653   0.07004   0.00000  Uiso   1.00
C416   C     0.20348   0.61991   0.17249   0.00000  Uiso   1.00
C417   C     0.22214   0.66371   0.20761   0.00000  Uiso   1.00
C418   C     0.20729   0.67887   0.30341   0.00000  Uiso   1.00
C419   C     0.19456   0.71940   0.45356   0.00000  Uiso   1.00
C420   C     0.16592   0.58893   0.01768   0.00000  Uiso   1.00
C421   C     0.15301   0.60668   0.92264   0.00000  Uiso   1.00
C422   C     0.10654   0.59576   0.88812   0.00000  Uiso   1.00
C423   C     0.03552   0.58816   0.79790   0.00000  Uiso   1.00
C424   C     0.23428   0.54583   0.09374   0.00000  Uiso   1.00
C425   C     0.27884   0.52733   0.06263   0.00000  Uiso   1.00
C426   C     0.28992   0.48012   0.09214   0.00000  Uiso   1.00
C427   C     0.32503   0.40560   0.12002   0.00000  Uiso   1.00
C428   C     0.15528   0.54557   0.17772   0.00000  Uiso   1.00
C429   C     0.17113   0.59223   0.23097   0.00000  Uiso   1.00
C430   C     0.15625   0.60733   0.32675   0.00000  Uiso   1.00
C431   C     0.17488   0.65114   0.36201   0.00000  Uiso   1.00
C432   C     0.13357   0.56125   0.07616   0.00000  Uiso   1.00
C433   C     0.08712   0.55030   0.04178   0.00000  Uiso   1.00
C434   C     0.07413   0.56803   0.94671   0.00000  Uiso   1.00
C435   C     0.20193   0.51815   0.15223   0.00000  Uiso   1.00
C436   C     0.21295   0.47095   0.18178   0.00000  Uiso   1.00
C437   C     0.25751   0.45239   0.15073   0.00000  Uiso   1.00
H438   H     0.24002   0.61808   0.02450   0.00000  Uiso   1.00
H439   H     0.24717   0.68512   0.16232   0.00000  Uiso   1.00
H440   H     0.17805   0.62809   0.87739   0.00000  Uiso   1.00
H441   H     0.30386   0.54876   0.01737   0.00000  Uiso   1.00
H442   H     0.24082   0.74725   0.34089   0.00000  Uiso   1.00
H443   H     0.09509   0.62699   0.74009   0.00000  Uiso   1.00
H444   H     0.36038   0.45970   0.03527   0.00000  Uiso   1.00
H445   H     0.13009   0.52402   0.22326   0.00000  Uiso   1.00
H446   H     0.13121   0.58590   0.37199   0.00000  Uiso   1.00
H447   H     0.06209   0.52888   0.08706   0.00000  Uiso   1.00
H448   H     0.18790   0.44954   0.22704   0.00000  Uiso   1.00
H449   H     0.14670   0.66672   0.51107   0.00000  Uiso   1.00
H450   H     0.00097   0.54646   0.91026   0.00000  Uiso   1.00
H451   H     0.26627   0.37918   0.20544   0.00000  Uiso   1.00
O452   O     0.19647   0.74940   0.52022   0.00000  Uiso   1.00
O453   O     0.00528   0.59162   0.73199   0.00000  Uiso   1.00
O454   O     0.35334   0.37214   0.11925   0.00000  Uiso   1.00
N455   N     0.21852   0.71980   0.36054   0.00000  Uiso   1.00
N456   N     0.08227   0.60737   0.79884   0.00000  Uiso   1.00
N457   N     0.33029   0.45097   0.07478   0.00000  Uiso   1.00
N458   N     0.16788   0.67647   0.45211   0.00000  Uiso   1.00
N459   N     0.03163   0.56404   0.89041   0.00000  Uiso   1.00
N460   N     0.27965   0.40764   0.16635   0.00000  Uiso   1.00
C461   C     0.78517   0.40347   0.07004   0.00000  Uiso   1.00
C462   C     0.79652   0.38009   0.17249   0.00000  Uiso   1.00
C463   C     0.77786   0.33629   0.20761   0.00000  Uiso   1.00
C464   C     0.79271   0.32113   0.30341   0.00000  Uiso   1.00
C465   C     0.80544   0.28060   0.45356   0.00000  Uiso   1.00
C466   C     0.83408   0.41107   0.01768   0.00000  Uiso   1.00
C467   C     0.84699   0.39332   0.92264   0.00000  Uiso   1.00
C468   C     0.89346   0.40424   0.88812   0.00000  Uiso   1.00
C469   C     0.96448   0.41184   0.79790   0.00000  Uiso   1.00
C470   C     0.76572   0.45417   0.09374   0.00000  Uiso   1.00
C471   C     0.72116   0.47267   0.06263   0.00000  Uiso   1.00
C472   C     0.71008   0.51988   0.09214   0.00000  Uiso   1.00
C473   C     0.67497   0.59440   0.12002   0.00000  Uiso   1.00
C474   C     0.84472   0.45443   0.17772   0.00000  Uiso   1.00
C475   C     0.82887   0.40777   0.23097   0.00000  Uiso   1.00
C476   C     0.84375   0.39267   0.32675   0.00000  Uiso   1.00
C477   C     0.82512   0.34886   0.36201   0.00000  Uiso   1.00
C478   C     0.86643   0.43875   0.07616   0.00000  Uiso   1.00
C479   C     0.91288   0.44970   0.04178   0.00000  Uiso   1.00
C480   C     0.92587   0.43197   0.94671   0.00000  Uiso   1.00
C481   C     0.79807   0.48185   0.15223   0.00000  Uiso   1.00
C482   C     0.78705   0.52905   0.18178   0.00000  Uiso   1.00
C483   C     0.74249   0.54761   0.15073   0.00000  Uiso   1.00
H484   H     0.75998   0.38192   0.02450   0.00000  Uiso   1.00
H485   H     0.75283   0.31488   0.16232   0.00000  Uiso   1.00
H486   H     0.82195   0.37191   0.87739   0.00000  Uiso   1.00
H487   H     0.69614   0.45124   0.01737   0.00000  Uiso   1.00
H488   H     0.75918   0.25275   0.34089   0.00000  Uiso   1.00
H489   H     0.90491   0.37301   0.74009   0.00000  Uiso   1.00
H490   H     0.63962   0.54030   0.03527   0.00000  Uiso   1.00
H491   H     0.86991   0.47598   0.22326   0.00000  Uiso   1.00
H492   H     0.86879   0.41410   0.37199   0.00000  Uiso   1.00
H493   H     0.93791   0.47112   0.08706   0.00000  Uiso   1.00
H494   H     0.81210   0.55046   0.22704   0.00000  Uiso   1.00
H495   H     0.85330   0.33328   0.51107   0.00000  Uiso   1.00
H496   H     0.99903   0.45354   0.91026   0.00000  Uiso   1.00
H497   H     0.73373   0.62082   0.20544   0.00000  Uiso   1.00
O498   O     0.80353   0.25060   0.52022   0.00000  Uiso   1.00
O499   O     0.99472   0.40838   0.73199   0.00000  Uiso   1.00
O500   O     0.64666   0.62786   0.11925   0.00000  Uiso   1.00
N501   N     0.78148   0.28020   0.36054   0.00000  Uiso   1.00
N502   N     0.91773   0.39263   0.79884   0.00000  Uiso   1.00
N503   N     0.66971   0.54903   0.07478   0.00000  Uiso   1.00
N504   N     0.83212   0.32353   0.45211   0.00000  Uiso   1.00
N505   N     0.96837   0.43596   0.89041   0.00000  Uiso   1.00
N506   N     0.72035   0.59236   0.16635   0.00000  Uiso   1.00
C507   C     0.28517   0.90347   0.57004   0.00000  Uiso   1.00
C508   C     0.29652   0.88009   0.67249   0.00000  Uiso   1.00
C509   C     0.27786   0.83629   0.70761   0.00000  Uiso   1.00
C510   C     0.29271   0.82113   0.80341   0.00000  Uiso   1.00
C511   C     0.30544   0.78060   0.95356   0.00000  Uiso   1.00
C512   C     0.33408   0.91107   0.51768   0.00000  Uiso   1.00
C513   C     0.34699   0.89332   0.42264   0.00000  Uiso   1.00
C514   C     0.39346   0.90424   0.38812   0.00000  Uiso   1.00
C515   C     0.46448   0.91184   0.29790   0.00000  Uiso   1.00
C516   C     0.26572   0.95417   0.59374   0.00000  Uiso   1.00
C517   C     0.22116   0.97267   0.56263   0.00000  Uiso   1.00
C518   C     0.21008   0.01988   0.59214   0.00000  Uiso   1.00
C519   C     0.17497   0.09440   0.62002   0.00000  Uiso   1.00
C520   C     0.34472   0.95443   0.67772   0.00000  Uiso   1.00
C521   C     0.32887   0.90777   0.73097   0.00000  Uiso   1.00
C522   C     0.34375   0.89267   0.82675   0.00000  Uiso   1.00
C523   C     0.32512   0.84886   0.86201   0.00000  Uiso   1.00
C524   C     0.36643   0.93875   0.57616   0.00000  Uiso   1.00
C525   C     0.41288   0.94970   0.54178   0.00000  Uiso   1.00
C526   C     0.42587   0.93197   0.44671   0.00000  Uiso   1.00
C527   C     0.29807   0.98185   0.65223   0.00000  Uiso   1.00
C528   C     0.28705   0.02905   0.68178   0.00000  Uiso   1.00
C529   C     0.24249   0.04761   0.65073   0.00000  Uiso   1.00
H530   H     0.25998   0.88192   0.52450   0.00000  Uiso   1.00
H531   H     0.25283   0.81488   0.66232   0.00000  Uiso   1.00
H532   H     0.32195   0.87191   0.37739   0.00000  Uiso   1.00
H533   H     0.19614   0.95124   0.51737   0.00000  Uiso   1.00
H534   H     0.25918   0.75275   0.84089   0.00000  Uiso   1.00
H535   H     0.40491   0.87301   0.24009   0.00000  Uiso   1.00
H536   H     0.13962   0.04030   0.53527   0.00000  Uiso   1.00
H537   H     0.36991   0.97598   0.72326   0.00000  Uiso   1.00
H538   H     0.36879   0.91410   0.87199   0.00000  Uiso   1.00
H539   H     0.43791   0.97112   0.58706   0.00000  Uiso   1.00
H540   H     0.31210   0.05046   0.72704   0.00000  Uiso   1.00
H541   H     0.35330   0.83328   0.01107   0.00000  Uiso   1.00
H542   H     0.49903   0.95354   0.41026   0.00000  Uiso   1.00
H543   H     0.23373   0.12082   0.70544   0.00000  Uiso   1.00
O544   O     0.30353   0.75060   0.02022   0.00000  Uiso   1.00
O545   O     0.49472   0.90838   0.23199   0.00000  Uiso   1.00
O546   O     0.14666   0.12786   0.61925   0.00000  Uiso   1.00
N547   N     0.28148   0.78020   0.86054   0.00000  Uiso   1.00
N548   N     0.41773   0.89263   0.29884   0.00000  Uiso   1.00
N549   N     0.16971   0.04903   0.57478   0.00000  Uiso   1.00
N550   N     0.33212   0.82353   0.95211   0.00000  Uiso   1.00
N551   N     0.46837   0.93596   0.39041   0.00000  Uiso   1.00
N552   N     0.22035   0.09236   0.66635   0.00000  Uiso   1.00
C553   C     0.40347   0.71483   0.32004   0.00000  Uiso   1.00
C554   C     0.38009   0.70348   0.42249   0.00000  Uiso   1.00
C555   C     0.33629   0.72214   0.45761   0.00000  Uiso   1.00
C556   C     0.32113   0.70729   0.55341   0.00000  Uiso   1.00
C557   C     0.28060   0.69456   0.70356   0.00000  Uiso   1.00
C558   C     0.41107   0.66592   0.26768   0.00000  Uiso   1.00
C559   C     0.39332   0.65301   0.17264   0.00000  Uiso   1.00
C560   C     0.40424   0.60654   0.13812   0.00000  Uiso   1.00
C561   C     0.41184   0.53552   0.04790   0.00000  Uiso   1.00
C562   C     0.45417   0.73428   0.34374   0.00000  Uiso   1.00
C563   C     0.47267   0.77884   0.31263   0.00000  Uiso   1.00
C564   C     0.51988   0.78992   0.34214   0.00000  Uiso   1.00
C565   C     0.59440   0.82503   0.37002   0.00000  Uiso   1.00
C566   C     0.45443   0.65528   0.42772   0.00000  Uiso   1.00
C567   C     0.40777   0.67113   0.48097   0.00000  Uiso   1.00
C568   C     0.39267   0.65625   0.57675   0.00000  Uiso   1.00
C569   C     0.34886   0.67488   0.61201   0.00000  Uiso   1.00
C570   C     0.43875   0.63357   0.32616   0.00000  Uiso   1.00
C571   C     0.44970   0.58712   0.29178   0.00000  Uiso   1.00
C572   C     0.43197   0.57413   0.19671   0.00000  Uiso   1.00
C573   C     0.48185   0.70193   0.40223   0.00000  Uiso   1.00
C574   C     0.52905   0.71295   0.43178   0.00000  Uiso   1.00
C575   C     0.54761   0.75751   0.40073   0.00000  Uiso   1.00
H576   H     0.38192   0.74002   0.27450   0.00000  Uiso   1.00
H577   H     0.31488   0.74717   0.41232   0.00000  Uiso   1.00
H578   H     0.37191   0.67805   0.12739   0.00000  Uiso   1.00
H579   H     0.45124   0.80386   0.26737   0.00000  Uiso   1.00
H580   H     0.25275   0.74082   0.59089   0.00000  Uiso   1.00
H581   H     0.37301   0.59509   0.99009   0.00000  Uiso   1.00
H582   H     0.54030   0.86038   0.28527   0.00000  Uiso   1.00
H583   H     0.47598   0.63009   0.47326   0.00000  Uiso   1.00
H584   H     0.41410   0.63121   0.62199   0.00000  Uiso   1.00
H585   H     0.47112   0.56209   0.33706   0.00000  Uiso   1.00
H586   H     0.55046   0.68790   0.47704   0.00000  Uiso   1.00
H587   H     0.33328   0.64670   0.76107   0.00000  Uiso   1.00
H588   H     0.45354   0.50097   0.16026   0.00000  Uiso   1.00
H589   H     0.62082   0.76627   0.45544   0.00000  Uiso   1.00
O590   O     0.25060   0.69647   0.77022   0.00000  Uiso   1.00
O591   O     0.40838   0.50528   0.98199   0.00000  Uiso   1.00
O592   O     0.62786   0.85334   0.36925   0.00000  Uiso   1.00
N593   N     0.28020   0.71852   0.61054   0.00000  Uiso   1.00
N594   N     0.39263   0.58227   0.04884   0.00000  Uiso   1.00
N595   N     0.54903   0.83029   0.32478   0.00000  Uiso   1.00
N596   N     0.32353   0.66788   0.70211   0.00000  Uiso   1.00
N597   N     0.43596   0.53163   0.14041   0.00000  Uiso   1.00
N598   N     0.59236   0.77965   0.41635   0.00000  Uiso   1.00
C599   C     0.90347   0.21483   0.82004   0.00000  Uiso   1.00
C600   C     0.88009   0.20348   0.92249   0.00000  Uiso   1.00
C601   C     0.83629   0.22214   0.95761   0.00000  Uiso   1.00
C602   C     0.82113   0.20729   0.05341   0.00000  Uiso   1.00
C603   C     0.78060   0.19456   0.20356   0.00000  Uiso   1.00
C604   C     0.91107   0.16592   0.76768   0.00000  Uiso   1.00
C605   C     0.89332   0.15301   0.67264   0.00000  Uiso   1.00
C606   C     0.90424   0.10654   0.63812   0.00000  Uiso   1.00
C607   C     0.91184   0.03552   0.54790   0.00000  Uiso   1.00
C608   C     0.95417   0.23428   0.84374   0.00000  Uiso   1.00
C609   C     0.97267   0.27884   0.81263   0.00000  Uiso   1.00
C610   C     0.01988   0.28992   0.84214   0.00000  Uiso   1.00
C611   C     0.09440   0.32503   0.87002   0.00000  Uiso   1.00
C612   C     0.95443   0.15528   0.92772   0.00000  Uiso   1.00
C613   C     0.90777   0.17113   0.98097   0.00000  Uiso   1.00
C614   C     0.89267   0.15625   0.07675   0.00000  Uiso   1.00
C615   C     0.84886   0.17488   0.11201   0.00000  Uiso   1.00
C616   C     0.93875   0.13357   0.82616   0.00000  Uiso   1.00
C617   C     0.94970   0.08712   0.79178   0.00000  Uiso   1.00
C618   C     0.93197   0.07413   0.69671   0.00000  Uiso   1.00
C619   C     0.98185   0.20193   0.90223   0.00000  Uiso   1.00
C620   C     0.02905   0.21295   0.93178   0.00000  Uiso   1.00
C621   C     0.04761   0.25751   0.90073   0.00000  Uiso   1.00
H622   H     0.88192   0.24002   0.77450   0.00000  Uiso   1.00
H623   H     0.81488   0.24717   0.91232   0.00000  Uiso   1.00
H624   H     0.87191   0.17805   0.62739   0.00000  Uiso   1.00
H625   H     0.95124   0.30386   0.76737   0.00000  Uiso   1.00
H626   H     0.75275   0.24082   0.09089   0.00000  Uiso   1.00
H627   H     0.87301   0.09509   0.49009   0.00000  Uiso   1.00
H628   H     0.04030   0.36038   0.78527   0.00000  Uiso   1.00
H629   H     0.97598   0.13009   0.97326   0.00000  Uiso   1.00
H630   H     0.91410   0.13121   0.12199   0.00000  Uiso   1.00
H631   H     0.97112   0.06209   0.83706   0.00000  Uiso   1.00
H632   H     0.05046   0.18790   0.97704   0.00000  Uiso   1.00
H633   H     0.83328   0.14670   0.26107   0.00000  Uiso   1.00
H634   H     0.95354   0.00097   0.66026   0.00000  Uiso   1.00
H635   H     0.12082   0.26627   0.95544   0.00000  Uiso   1.00
O636   O     0.75060   0.19647   0.27022   0.00000  Uiso   1.00
O637   O     0.90838   0.00528   0.48199   0.00000  Uiso   1.00
O638   O     0.12786   0.35334   0.86925   0.00000  Uiso   1.00
N639   N     0.78020   0.21852   0.11054   0.00000  Uiso   1.00
N640   N     0.89263   0.08227   0.54884   0.00000  Uiso   1.00
N641   N     0.04903   0.33029   0.82478   0.00000  Uiso   1.00
N642   N     0.82353   0.16788   0.20211   0.00000  Uiso   1.00
N643   N     0.93596   0.03163   0.64041   0.00000  Uiso   1.00
N644   N     0.09236   0.27965   0.91635   0.00000  Uiso   1.00
C645   C     0.09653   0.78517   0.82004   0.00000  Uiso   1.00
C646   C     0.11991   0.79652   0.92249   0.00000  Uiso   1.00
C647   C     0.16371   0.77786   0.95761   0.00000  Uiso   1.00
C648   C     0.17887   0.79271   0.05341   0.00000  Uiso   1.00
C649   C     0.21940   0.80544   0.20356   0.00000  Uiso   1.00
C650   C     0.08893   0.83408   0.76768   0.00000  Uiso   1.00
C651   C     0.10668   0.84699   0.67264   0.00000  Uiso   1.00
C652   C     0.09576   0.89346   0.63812   0.00000  Uiso   1.00
C653   C     0.08816   0.96448   0.54790   0.00000  Uiso   1.00
C654   C     0.04583   0.76572   0.84374   0.00000  Uiso   1.00
C655   C     0.02733   0.72116   0.81263   0.00000  Uiso   1.00
C656   C     0.98012   0.71008   0.84214   0.00000  Uiso   1.00
C657   C     0.90560   0.67497   0.87002   0.00000  Uiso   1.00
C658   C     0.04557   0.84472   0.92772   0.00000  Uiso   1.00
C659   C     0.09223   0.82887   0.98097   0.00000  Uiso   1.00
C660   C     0.10733   0.84375   0.07675   0.00000  Uiso   1.00
C661   C     0.15114   0.82512   0.11201   0.00000  Uiso   1.00
C662   C     0.06125   0.86643   0.82616   0.00000  Uiso   1.00
C663   C     0.05030   0.91288   0.79178   0.00000  Uiso   1.00
C664   C     0.06803   0.92587   0.69671   0.00000  Uiso   1.00
C665   C     0.01815   0.79807   0.90223   0.00000  Uiso   1.00
C666   C     0.97095   0.78705   0.93178   0.00000  Uiso   1.00
C667   C     0.95239   0.74249   0.90073   0.00000  Uiso   1.00
H668   H     0.11808   0.75998   0.77450   0.00000  Uiso   1.00
H669   H     0.18512   0.75283   0.91232   0.00000  Uiso   1.00
H670   H     0.12809   0.82195   0.62739   0.00000  Uiso   1.00
H671   H     0.04876   0.69614   0.76737   0.00000  Uiso   1.00
H672   H     0.24725   0.75918   0.09089   0.00000  Uiso   1.00
H673   H     0.12699   0.90491   0.49009   0.00000  Uiso   1.00
H674   H     0.95970   0.63962   0.78527   0.00000  Uiso   1.00
H675   H     0.02402   0.86991   0.97326   0.00000  Uiso   1.00
H676   H     0.08590   0.86879   0.12199   0.00000  Uiso   1.00
H677   H     0.02888   0.93791   0.83706   0.00000  Uiso   1.00
H678   H     0.94954   0.81210   0.97704   0.00000  Uiso   1.00
H679   H     0.16672   0.85330   0.26107   0.00000  Uiso   1.00
H680   H     0.04646   0.99903   0.66026   0.00000  Uiso   1.00
H681   H     0.87918   0.73373   0.95544   0.00000  Uiso   1.00
O682   O     0.24940   0.80353   0.27022   0.00000  Uiso   1.00
O683   O     0.09162   0.99472   0.48199   0.00000  Uiso   1.00
O684   O     0.87214   0.64666   0.86925   0.00000  Uiso   1.00
N685   N     0.21980   0.78148   0.11054   0.00000  Uiso   1.00
N686   N     0.10737   0.91773   0.54884   0.00000  Uiso   1.00
N687   N     0.95097   0.66971   0.82478   0.00000  Uiso   1.00
N688   N     0.17647   0.83212   0.20211   0.00000  Uiso   1.00
N689   N     0.06404   0.96837   0.64041   0.00000  Uiso   1.00
N690   N     0.90764   0.72035   0.91635   0.00000  Uiso   1.00
C691   C     0.59653   0.28517   0.32004   0.00000  Uiso   1.00
C692   C     0.61991   0.29652   0.42249   0.00000  Uiso   1.00
C693   C     0.66371   0.27786   0.45761   0.00000  Uiso   1.00
C694   C     0.67887   0.29271   0.55341   0.00000  Uiso   1.00
C695   C     0.71940   0.30544   0.70356   0.00000  Uiso   1.00
C696   C     0.58893   0.33408   0.26768   0.00000  Uiso   1.00
C697   C     0.60668   0.34699   0.17264   0.00000  Uiso   1.00
C698   C     0.59576   0.39346   0.13812   0.00000  Uiso   1.00
C699   C     0.58816   0.46448   0.04790   0.00000  Uiso   1.00
C700   C     0.54583   0.26572   0.34374   0.00000  Uiso   1.00
C701   C     0.52733   0.22116   0.31263   0.00000  Uiso   1.00
C702   C     0.48012   0.21008   0.34214   0.00000  Uiso   1.00
C703   C     0.40560   0.17497   0.37002   0.00000  Uiso   1.00
C704   C     0.54557   0.34472   0.42772   0.00000  Uiso   1.00
C705   C     0.59223   0.32887   0.48097   0.00000  Uiso   1.00
C706   C     0.60733   0.34375   0.57675   0.00000  Uiso   1.00
C707   C     0.65114   0.32512   0.61201   0.00000  Uiso   1.00
C708   C     0.56125   0.36643   0.32616   0.00000  Uiso   1.00
C709   C     0.55030   0.41288   0.29178   0.00000  Uiso   1.00
C710   C     0.56803   0.42587   0.19671   0.00000  Uiso   1.00
C711   C     0.51815   0.29807   0.40223   0.00000  Uiso   1.00
C712   C     0.47095   0.28705   0.43178   0.00000  Uiso   1.00
C713   C     0.45239   0.24249   0.40073   0.00000  Uiso   1.00
H714   H     0.61808   0.25998   0.27450   0.00000  Uiso   1.00
H715   H     0.68512   0.25283   0.41232   0.00000  Uiso   1.00
H716   H     0.62809   0.32195   0.12739   0.00000  Uiso   1.00
H717   H     0.54876   0.19614   0.26737   0.00000  Uiso   1.00
H718   H     0.74725   0.25918   0.59089   0.00000  Uiso   1.00
H719   H     0.62699   0.40491   0.99009   0.00000  Uiso   1.00
H720   H     0.45970   0.13962   0.28527   0.00000  Uiso   1.00
H721   H     0.52402   0.36991   0.47326   0.00000  Uiso   1.00
H722   H     0.58590   0.36879   0.62199   0.00000  Uiso   1.00
H723   H     0.52888   0.43791   0.33706   0.00000  Uiso   1.00
H724   H     0.44954   0.31210   0.47704   0.00000  Uiso   1.00
H725   H     0.66672   0.35330   0.76107   0.00000  Uiso   1.00
H726   H     0.54646   0.49903   0.16026   0.00000  Uiso   1.00
H727   H     0.37918   0.23373   0.45544   0.00000  Uiso   1.00
O728   O     0.74940   0.30353   0.77022   0.00000  Uiso   1.00
O729   O     0.59162   0.49472   0.98199   0.00000  Uiso   1.00
O730   O     0.37214   0.14666   0.36925   0.00000  Uiso   1.00
N731   N     0.71980   0.28148   0.61054   0.00000  Uiso   1.00
N732   N     0.60737   0.41773   0.04884   0.00000  Uiso   1.00
N733   N     0.45097   0.16971   0.32478   0.00000  Uiso   1.00
N734   N     0.67647   0.33212   0.70211   0.00000  Uiso   1.00
N735   N     0.56404   0.46837   0.14041   0.00000  Uiso   1.00
N736   N     0.40764   0.22035   0.41635   0.00000  Uiso   1.00
