data_job_01651
_audit_creation_date              2018-12-19
_audit_creation_method            'Materials Studio'
_symmetry_space_group_name_H-M    'P1'
_symmetry_Int_Tables_number       1
_symmetry_cell_setting            triclinic
loop_
_symmetry_equiv_pos_as_xyz
  x,y,z
_cell_length_a                    14.0997
_cell_length_b                    35.3695
_cell_length_c                    21.0724
_cell_angle_alpha                 90.0000
_cell_angle_beta                  90.0000
_cell_angle_gamma                 90.0000
loop_
_atom_site_label
_atom_site_type_symbol
_atom_site_fract_x
_atom_site_fract_y
_atom_site_fract_z
_atom_site_U_iso_or_equiv
_atom_site_adp_type
_atom_site_occupancy
C1     C     0.58768   0.89449   0.80975   0.00000  Uiso   1.00
C2     C     0.54718   0.86776   0.75986   0.00000  Uiso   1.00
C3     C     0.53156   0.87652   0.69652   0.00000  Uiso   1.00
C4     C     0.49400   0.84817   0.65853   0.00000  Uiso   1.00
C5     C     0.43429   0.81211   0.57733   0.00000  Uiso   1.00
C6     C     0.51473   0.89590   0.86313   0.00000  Uiso   1.00
C7     C     0.47183   0.92832   0.88662   0.00000  Uiso   1.00
C8     C     0.40696   0.92365   0.93556   0.00000  Uiso   1.00
C9     C     0.29692   0.93129   0.01472   0.00000  Uiso   1.00
C10    C     0.67444   0.87462   0.83722   0.00000  Uiso   1.00
C11    C     0.76582   0.88916   0.83895   0.00000  Uiso   1.00
C12    C     0.83541   0.86657   0.86610   0.00000  Uiso   1.00
C13    C     0.97334   0.84117   0.90503   0.00000  Uiso   1.00
C14    C     0.54874   0.82854   0.85490   0.00000  Uiso   1.00
C15    C     0.52603   0.83194   0.78438   0.00000  Uiso   1.00
C16    C     0.48849   0.80356   0.74647   0.00000  Uiso   1.00
C17    C     0.47281   0.81228   0.68309   0.00000  Uiso   1.00
C18    C     0.49358   0.86008   0.88765   0.00000  Uiso   1.00
C19    C     0.42876   0.85536   0.93657   0.00000  Uiso   1.00
C20    C     0.38577   0.88776   0.96013   0.00000  Uiso   1.00
C21    C     0.65329   0.83880   0.86174   0.00000  Uiso   1.00
C22    C     0.72274   0.81619   0.88890   0.00000  Uiso   1.00
C23    C     0.81422   0.83069   0.89067   0.00000  Uiso   1.00
H24    H     0.60414   0.92238   0.79066   0.00000  Uiso   1.00
H25    H     0.54793   0.90425   0.67756   0.00000  Uiso   1.00
H26    H     0.48822   0.95604   0.86764   0.00000  Uiso   1.00
H27    H     0.78216   0.91688   0.81997   0.00000  Uiso   1.00
H28    H     0.47625   0.86836   0.56299   0.00000  Uiso   1.00
H29    H     0.35037   0.97756   0.96379   0.00000  Uiso   1.00
H30    H     0.97021   0.89498   0.86327   0.00000  Uiso   1.00
H31    H     0.53228   0.80065   0.87400   0.00000  Uiso   1.00
H32    H     0.47213   0.77584   0.76547   0.00000  Uiso   1.00
H33    H     0.41241   0.82763   0.95554   0.00000  Uiso   1.00
H34    H     0.70635   0.78847   0.90787   0.00000  Uiso   1.00
H35    H     0.41472   0.76414   0.63433   0.00000  Uiso   1.00
H36    H     0.28885   0.87334   0.03514   0.00000  Uiso   1.00
H37    H     0.90868   0.79076   0.93462   0.00000  Uiso   1.00
O38    O     0.40718   0.80213   0.52577   0.00000  Uiso   1.00
O39    O     0.24205   0.94540   0.05161   0.00000  Uiso   1.00
O40    O     0.05526   0.83706   0.91973   0.00000  Uiso   1.00
N41    N     0.47004   0.84723   0.59467   0.00000  Uiso   1.00
N42    N     0.35234   0.94933   0.96939   0.00000  Uiso   1.00
N43    N     0.93183   0.87213   0.87543   0.00000  Uiso   1.00
N44    N     0.43694   0.79115   0.63306   0.00000  Uiso   1.00
N45    N     0.31924   0.89325   0.00778   0.00000  Uiso   1.00
N46    N     0.89872   0.81605   0.91382   0.00000  Uiso   1.00
C47    C     0.43096   0.63098   0.17900   0.00000  Uiso   1.00
C48    C     0.37128   0.65888   0.21706   0.00000  Uiso   1.00
C49    C     0.35367   0.65697   0.28178   0.00000  Uiso   1.00
C50    C     0.29731   0.68521   0.30769   0.00000  Uiso   1.00
C51    C     0.21028   0.72410   0.37249   0.00000  Uiso   1.00
C52    C     0.36681   0.61636   0.12615   0.00000  Uiso   1.00
C53    C     0.34547   0.57870   0.11443   0.00000  Uiso   1.00
C54    C     0.28535   0.57115   0.06381   0.00000  Uiso   1.00
C55    C     0.19145   0.54402   0.98745   0.00000  Uiso   1.00
C56    C     0.50764   0.65439   0.14645   0.00000  Uiso   1.00
C57    C     0.60470   0.64871   0.15177   0.00000  Uiso   1.00
C58    C     0.66315   0.67317   0.11822   0.00000  Uiso   1.00
C59    C     0.78790   0.70510   0.07337   0.00000  Uiso   1.00
C60    C     0.36216   0.68454   0.10993   0.00000  Uiso   1.00
C61    C     0.33391   0.68797   0.17954   0.00000  Uiso   1.00
C62    C     0.27756   0.71623   0.20536   0.00000  Uiso   1.00
C63    C     0.25987   0.71436   0.27010   0.00000  Uiso   1.00
C64    C     0.32945   0.64545   0.08864   0.00000  Uiso   1.00
C65    C     0.26935   0.63795   0.03802   0.00000  Uiso   1.00
C66    C     0.24792   0.60029   0.02623   0.00000  Uiso   1.00
C67    C     0.47027   0.68349   0.10893   0.00000  Uiso   1.00
C68    C     0.52858   0.70796   0.07536   0.00000  Uiso   1.00
C69    C     0.62571   0.70232   0.08064   0.00000  Uiso   1.00
H70    H     0.46005   0.60833   0.20820   0.00000  Uiso   1.00
H71    H     0.38260   0.63445   0.31079   0.00000  Uiso   1.00
H72    H     0.37441   0.55619   0.14347   0.00000  Uiso   1.00
H73    H     0.63359   0.62619   0.18081   0.00000  Uiso   1.00
H74    H     0.28022   0.67623   0.40798   0.00000  Uiso   1.00
H75    H     0.26297   0.51122   0.05516   0.00000  Uiso   1.00
H76    H     0.80952   0.65883   0.13390   0.00000  Uiso   1.00
H77    H     0.33307   0.70718   0.08072   0.00000  Uiso   1.00
H78    H     0.24865   0.73873   0.17632   0.00000  Uiso   1.00
H79    H     0.24045   0.66047   0.00900   0.00000  Uiso   1.00
H80    H     0.49964   0.73047   0.04634   0.00000  Uiso   1.00
H81    H     0.17149   0.76087   0.29884   0.00000  Uiso   1.00
H82    H     0.15425   0.59585   0.94602   0.00000  Uiso   1.00
H83    H     0.70079   0.74346   0.02475   0.00000  Uiso   1.00
O84    O     0.17259   0.73751   0.41859   0.00000  Uiso   1.00
O85    O     0.14997   0.52102   0.95570   0.00000  Uiso   1.00
O86    O     0.86703   0.71468   0.05900   0.00000  Uiso   1.00
N87    N     0.26623   0.69183   0.36918   0.00000  Uiso   1.00
N88    N     0.25009   0.53755   0.03932   0.00000  Uiso   1.00
N89    N     0.76107   0.67554   0.11292   0.00000  Uiso   1.00
N90    N     0.20773   0.73737   0.31045   0.00000  Uiso   1.00
N91    N     0.19159   0.58309   0.98059   0.00000  Uiso   1.00
N92    N     0.70257   0.72109   0.05419   0.00000  Uiso   1.00
C93    C     0.08768   0.39449   0.30975   0.00000  Uiso   1.00
C94    C     0.04718   0.36776   0.25986   0.00000  Uiso   1.00
C95    C     0.03156   0.37652   0.19652   0.00000  Uiso   1.00
C96    C     0.99400   0.34817   0.15853   0.00000  Uiso   1.00
C97    C     0.93429   0.31211   0.07733   0.00000  Uiso   1.00
C98    C     0.01473   0.39590   0.36313   0.00000  Uiso   1.00
C99    C     0.97183   0.42832   0.38662   0.00000  Uiso   1.00
C100   C     0.90696   0.42365   0.43556   0.00000  Uiso   1.00
C101   C     0.79692   0.43129   0.51472   0.00000  Uiso   1.00
C102   C     0.17444   0.37462   0.33722   0.00000  Uiso   1.00
C103   C     0.26582   0.38916   0.33895   0.00000  Uiso   1.00
C104   C     0.33541   0.36657   0.36610   0.00000  Uiso   1.00
C105   C     0.47334   0.34117   0.40503   0.00000  Uiso   1.00
C106   C     0.04874   0.32854   0.35490   0.00000  Uiso   1.00
C107   C     0.02603   0.33194   0.28438   0.00000  Uiso   1.00
C108   C     0.98849   0.30356   0.24647   0.00000  Uiso   1.00
C109   C     0.97281   0.31228   0.18309   0.00000  Uiso   1.00
C110   C     0.99358   0.36008   0.38765   0.00000  Uiso   1.00
C111   C     0.92876   0.35536   0.43657   0.00000  Uiso   1.00
C112   C     0.88577   0.38776   0.46013   0.00000  Uiso   1.00
C113   C     0.15329   0.33880   0.36174   0.00000  Uiso   1.00
C114   C     0.22274   0.31619   0.38890   0.00000  Uiso   1.00
C115   C     0.31422   0.33069   0.39067   0.00000  Uiso   1.00
H116   H     0.10414   0.42238   0.29066   0.00000  Uiso   1.00
H117   H     0.04793   0.40425   0.17756   0.00000  Uiso   1.00
H118   H     0.98822   0.45604   0.36764   0.00000  Uiso   1.00
H119   H     0.28216   0.41688   0.31997   0.00000  Uiso   1.00
H120   H     0.97625   0.36836   0.06299   0.00000  Uiso   1.00
H121   H     0.85037   0.47756   0.46379   0.00000  Uiso   1.00
H122   H     0.47021   0.39498   0.36327   0.00000  Uiso   1.00
H123   H     0.03228   0.30065   0.37400   0.00000  Uiso   1.00
H124   H     0.97213   0.27584   0.26547   0.00000  Uiso   1.00
H125   H     0.91241   0.32763   0.45554   0.00000  Uiso   1.00
H126   H     0.20635   0.28847   0.40787   0.00000  Uiso   1.00
H127   H     0.91472   0.26414   0.13433   0.00000  Uiso   1.00
H128   H     0.78885   0.37334   0.53514   0.00000  Uiso   1.00
H129   H     0.40868   0.29076   0.43462   0.00000  Uiso   1.00
O130   O     0.90718   0.30213   0.02577   0.00000  Uiso   1.00
O131   O     0.74205   0.44540   0.55161   0.00000  Uiso   1.00
O132   O     0.55526   0.33706   0.41973   0.00000  Uiso   1.00
N133   N     0.97004   0.34723   0.09467   0.00000  Uiso   1.00
N134   N     0.85234   0.44933   0.46939   0.00000  Uiso   1.00
N135   N     0.43183   0.37213   0.37543   0.00000  Uiso   1.00
N136   N     0.93694   0.29115   0.13306   0.00000  Uiso   1.00
N137   N     0.81924   0.39325   0.50778   0.00000  Uiso   1.00
N138   N     0.39872   0.31605   0.41382   0.00000  Uiso   1.00
C139   C     0.93096   0.13098   0.67900   0.00000  Uiso   1.00
C140   C     0.87128   0.15888   0.71706   0.00000  Uiso   1.00
C141   C     0.85367   0.15697   0.78178   0.00000  Uiso   1.00
C142   C     0.79731   0.18521   0.80769   0.00000  Uiso   1.00
C143   C     0.71028   0.22410   0.87249   0.00000  Uiso   1.00
C144   C     0.86681   0.11636   0.62615   0.00000  Uiso   1.00
C145   C     0.84547   0.07870   0.61443   0.00000  Uiso   1.00
C146   C     0.78535   0.07115   0.56381   0.00000  Uiso   1.00
C147   C     0.69145   0.04402   0.48745   0.00000  Uiso   1.00
C148   C     0.00764   0.15439   0.64645   0.00000  Uiso   1.00
C149   C     0.10470   0.14871   0.65177   0.00000  Uiso   1.00
C150   C     0.16315   0.17317   0.61822   0.00000  Uiso   1.00
C151   C     0.28790   0.20510   0.57337   0.00000  Uiso   1.00
C152   C     0.86216   0.18454   0.60993   0.00000  Uiso   1.00
C153   C     0.83391   0.18797   0.67954   0.00000  Uiso   1.00
C154   C     0.77756   0.21623   0.70536   0.00000  Uiso   1.00
C155   C     0.75987   0.21436   0.77010   0.00000  Uiso   1.00
C156   C     0.82945   0.14545   0.58864   0.00000  Uiso   1.00
C157   C     0.76935   0.13795   0.53802   0.00000  Uiso   1.00
C158   C     0.74792   0.10029   0.52623   0.00000  Uiso   1.00
C159   C     0.97027   0.18349   0.60893   0.00000  Uiso   1.00
C160   C     0.02858   0.20796   0.57536   0.00000  Uiso   1.00
C161   C     0.12571   0.20232   0.58064   0.00000  Uiso   1.00
H162   H     0.96005   0.10833   0.70820   0.00000  Uiso   1.00
H163   H     0.88260   0.13445   0.81079   0.00000  Uiso   1.00
H164   H     0.87441   0.05619   0.64347   0.00000  Uiso   1.00
H165   H     0.13359   0.12619   0.68081   0.00000  Uiso   1.00
H166   H     0.78022   0.17623   0.90798   0.00000  Uiso   1.00
H167   H     0.76297   0.01122   0.55516   0.00000  Uiso   1.00
H168   H     0.30952   0.15883   0.63390   0.00000  Uiso   1.00
H169   H     0.83307   0.20718   0.58072   0.00000  Uiso   1.00
H170   H     0.74865   0.23873   0.67632   0.00000  Uiso   1.00
H171   H     0.74045   0.16047   0.50900   0.00000  Uiso   1.00
H172   H     0.99964   0.23047   0.54634   0.00000  Uiso   1.00
H173   H     0.67149   0.26087   0.79884   0.00000  Uiso   1.00
H174   H     0.65425   0.09585   0.44602   0.00000  Uiso   1.00
H175   H     0.20079   0.24346   0.52475   0.00000  Uiso   1.00
O176   O     0.67259   0.23751   0.91859   0.00000  Uiso   1.00
O177   O     0.64997   0.02102   0.45570   0.00000  Uiso   1.00
O178   O     0.36703   0.21468   0.55900   0.00000  Uiso   1.00
N179   N     0.76623   0.19183   0.86918   0.00000  Uiso   1.00
N180   N     0.75009   0.03755   0.53932   0.00000  Uiso   1.00
N181   N     0.26107   0.17554   0.61292   0.00000  Uiso   1.00
N182   N     0.70773   0.23737   0.81045   0.00000  Uiso   1.00
N183   N     0.69159   0.08309   0.48059   0.00000  Uiso   1.00
N184   N     0.20257   0.22109   0.55419   0.00000  Uiso   1.00
C185   C     0.41232   0.10551   0.80975   0.00000  Uiso   1.00
C186   C     0.45282   0.13224   0.75986   0.00000  Uiso   1.00
C187   C     0.46844   0.12348   0.69652   0.00000  Uiso   1.00
C188   C     0.50600   0.15183   0.65853   0.00000  Uiso   1.00
C189   C     0.56571   0.18789   0.57733   0.00000  Uiso   1.00
C190   C     0.48527   0.10410   0.86313   0.00000  Uiso   1.00
C191   C     0.52817   0.07168   0.88662   0.00000  Uiso   1.00
C192   C     0.59304   0.07635   0.93556   0.00000  Uiso   1.00
C193   C     0.70308   0.06871   0.01472   0.00000  Uiso   1.00
C194   C     0.32556   0.12538   0.83722   0.00000  Uiso   1.00
C195   C     0.23418   0.11084   0.83895   0.00000  Uiso   1.00
C196   C     0.16459   0.13343   0.86610   0.00000  Uiso   1.00
C197   C     0.02666   0.15883   0.90503   0.00000  Uiso   1.00
C198   C     0.45126   0.17146   0.85490   0.00000  Uiso   1.00
C199   C     0.47397   0.16806   0.78438   0.00000  Uiso   1.00
C200   C     0.51151   0.19644   0.74647   0.00000  Uiso   1.00
C201   C     0.52719   0.18772   0.68309   0.00000  Uiso   1.00
C202   C     0.50642   0.13992   0.88765   0.00000  Uiso   1.00
C203   C     0.57124   0.14464   0.93657   0.00000  Uiso   1.00
C204   C     0.61423   0.11224   0.96013   0.00000  Uiso   1.00
C205   C     0.34671   0.16120   0.86174   0.00000  Uiso   1.00
C206   C     0.27726   0.18381   0.88890   0.00000  Uiso   1.00
C207   C     0.18578   0.16931   0.89067   0.00000  Uiso   1.00
H208   H     0.39586   0.07762   0.79066   0.00000  Uiso   1.00
H209   H     0.45207   0.09575   0.67756   0.00000  Uiso   1.00
H210   H     0.51178   0.04396   0.86764   0.00000  Uiso   1.00
H211   H     0.21784   0.08312   0.81997   0.00000  Uiso   1.00
H212   H     0.52375   0.13164   0.56299   0.00000  Uiso   1.00
H213   H     0.64963   0.02244   0.96379   0.00000  Uiso   1.00
H214   H     0.02979   0.10502   0.86327   0.00000  Uiso   1.00
H215   H     0.46772   0.19935   0.87400   0.00000  Uiso   1.00
H216   H     0.52787   0.22416   0.76547   0.00000  Uiso   1.00
H217   H     0.58759   0.17237   0.95554   0.00000  Uiso   1.00
H218   H     0.29365   0.21153   0.90787   0.00000  Uiso   1.00
H219   H     0.58528   0.23586   0.63433   0.00000  Uiso   1.00
H220   H     0.71115   0.12666   0.03514   0.00000  Uiso   1.00
H221   H     0.09132   0.20924   0.93462   0.00000  Uiso   1.00
O222   O     0.59282   0.19787   0.52577   0.00000  Uiso   1.00
O223   O     0.75795   0.05460   0.05161   0.00000  Uiso   1.00
O224   O     0.94474   0.16294   0.91973   0.00000  Uiso   1.00
N225   N     0.52996   0.15277   0.59467   0.00000  Uiso   1.00
N226   N     0.64766   0.05067   0.96939   0.00000  Uiso   1.00
N227   N     0.06817   0.12787   0.87543   0.00000  Uiso   1.00
N228   N     0.56306   0.20885   0.63306   0.00000  Uiso   1.00
N229   N     0.68076   0.10675   0.00778   0.00000  Uiso   1.00
N230   N     0.10128   0.18395   0.91382   0.00000  Uiso   1.00
C231   C     0.56904   0.36902   0.17900   0.00000  Uiso   1.00
C232   C     0.62872   0.34112   0.21706   0.00000  Uiso   1.00
C233   C     0.64633   0.34303   0.28178   0.00000  Uiso   1.00
C234   C     0.70269   0.31479   0.30769   0.00000  Uiso   1.00
C235   C     0.78972   0.27590   0.37249   0.00000  Uiso   1.00
C236   C     0.63319   0.38364   0.12615   0.00000  Uiso   1.00
C237   C     0.65453   0.42130   0.11443   0.00000  Uiso   1.00
C238   C     0.71465   0.42885   0.06381   0.00000  Uiso   1.00
C239   C     0.80855   0.45598   0.98745   0.00000  Uiso   1.00
C240   C     0.49236   0.34561   0.14645   0.00000  Uiso   1.00
C241   C     0.39530   0.35129   0.15177   0.00000  Uiso   1.00
C242   C     0.33685   0.32683   0.11822   0.00000  Uiso   1.00
C243   C     0.21210   0.29490   0.07337   0.00000  Uiso   1.00
C244   C     0.63784   0.31546   0.10993   0.00000  Uiso   1.00
C245   C     0.66609   0.31203   0.17954   0.00000  Uiso   1.00
C246   C     0.72244   0.28377   0.20536   0.00000  Uiso   1.00
C247   C     0.74013   0.28564   0.27010   0.00000  Uiso   1.00
C248   C     0.67055   0.35455   0.08864   0.00000  Uiso   1.00
C249   C     0.73065   0.36205   0.03802   0.00000  Uiso   1.00
C250   C     0.75208   0.39971   0.02623   0.00000  Uiso   1.00
C251   C     0.52973   0.31651   0.10893   0.00000  Uiso   1.00
C252   C     0.47142   0.29204   0.07536   0.00000  Uiso   1.00
C253   C     0.37429   0.29768   0.08064   0.00000  Uiso   1.00
H254   H     0.53995   0.39167   0.20820   0.00000  Uiso   1.00
H255   H     0.61740   0.36555   0.31079   0.00000  Uiso   1.00
H256   H     0.62559   0.44381   0.14347   0.00000  Uiso   1.00
H257   H     0.36641   0.37381   0.18081   0.00000  Uiso   1.00
H258   H     0.71978   0.32377   0.40798   0.00000  Uiso   1.00
H259   H     0.73703   0.48878   0.05516   0.00000  Uiso   1.00
H260   H     0.19048   0.34117   0.13390   0.00000  Uiso   1.00
H261   H     0.66693   0.29282   0.08072   0.00000  Uiso   1.00
H262   H     0.75135   0.26127   0.17632   0.00000  Uiso   1.00
H263   H     0.75955   0.33953   0.00900   0.00000  Uiso   1.00
H264   H     0.50036   0.26953   0.04634   0.00000  Uiso   1.00
H265   H     0.82851   0.23913   0.29884   0.00000  Uiso   1.00
H266   H     0.84575   0.40415   0.94602   0.00000  Uiso   1.00
H267   H     0.29921   0.25654   0.02475   0.00000  Uiso   1.00
O268   O     0.82741   0.26249   0.41859   0.00000  Uiso   1.00
O269   O     0.85003   0.47898   0.95570   0.00000  Uiso   1.00
O270   O     0.13297   0.28532   0.05900   0.00000  Uiso   1.00
N271   N     0.73377   0.30817   0.36918   0.00000  Uiso   1.00
N272   N     0.74991   0.46245   0.03932   0.00000  Uiso   1.00
N273   N     0.23893   0.32446   0.11292   0.00000  Uiso   1.00
N274   N     0.79227   0.26263   0.31045   0.00000  Uiso   1.00
N275   N     0.80841   0.41691   0.98059   0.00000  Uiso   1.00
N276   N     0.29743   0.27891   0.05419   0.00000  Uiso   1.00
C277   C     0.91232   0.60551   0.30975   0.00000  Uiso   1.00
C278   C     0.95282   0.63224   0.25986   0.00000  Uiso   1.00
C279   C     0.96844   0.62348   0.19652   0.00000  Uiso   1.00
C280   C     0.00600   0.65183   0.15853   0.00000  Uiso   1.00
C281   C     0.06571   0.68789   0.07733   0.00000  Uiso   1.00
C282   C     0.98527   0.60410   0.36313   0.00000  Uiso   1.00
C283   C     0.02817   0.57168   0.38662   0.00000  Uiso   1.00
C284   C     0.09304   0.57635   0.43556   0.00000  Uiso   1.00
C285   C     0.20308   0.56871   0.51472   0.00000  Uiso   1.00
C286   C     0.82556   0.62538   0.33722   0.00000  Uiso   1.00
C287   C     0.73418   0.61084   0.33895   0.00000  Uiso   1.00
C288   C     0.66459   0.63343   0.36610   0.00000  Uiso   1.00
C289   C     0.52666   0.65883   0.40503   0.00000  Uiso   1.00
C290   C     0.95126   0.67146   0.35490   0.00000  Uiso   1.00
C291   C     0.97397   0.66806   0.28438   0.00000  Uiso   1.00
C292   C     0.01151   0.69644   0.24647   0.00000  Uiso   1.00
C293   C     0.02719   0.68772   0.18309   0.00000  Uiso   1.00
C294   C     0.00642   0.63992   0.38765   0.00000  Uiso   1.00
C295   C     0.07124   0.64464   0.43657   0.00000  Uiso   1.00
C296   C     0.11423   0.61224   0.46013   0.00000  Uiso   1.00
C297   C     0.84671   0.66120   0.36174   0.00000  Uiso   1.00
C298   C     0.77726   0.68381   0.38890   0.00000  Uiso   1.00
C299   C     0.68578   0.66931   0.39067   0.00000  Uiso   1.00
H300   H     0.89586   0.57762   0.29066   0.00000  Uiso   1.00
H301   H     0.95207   0.59575   0.17756   0.00000  Uiso   1.00
H302   H     0.01178   0.54396   0.36764   0.00000  Uiso   1.00
H303   H     0.71784   0.58312   0.31997   0.00000  Uiso   1.00
H304   H     0.02375   0.63164   0.06299   0.00000  Uiso   1.00
H305   H     0.14963   0.52244   0.46379   0.00000  Uiso   1.00
H306   H     0.52979   0.60502   0.36327   0.00000  Uiso   1.00
H307   H     0.96772   0.69935   0.37400   0.00000  Uiso   1.00
H308   H     0.02787   0.72416   0.26547   0.00000  Uiso   1.00
H309   H     0.08759   0.67237   0.45554   0.00000  Uiso   1.00
H310   H     0.79365   0.71153   0.40787   0.00000  Uiso   1.00
H311   H     0.08528   0.73586   0.13433   0.00000  Uiso   1.00
H312   H     0.21115   0.62666   0.53514   0.00000  Uiso   1.00
H313   H     0.59132   0.70924   0.43462   0.00000  Uiso   1.00
O314   O     0.09282   0.69787   0.02577   0.00000  Uiso   1.00
O315   O     0.25795   0.55460   0.55161   0.00000  Uiso   1.00
O316   O     0.44474   0.66294   0.41973   0.00000  Uiso   1.00
N317   N     0.02996   0.65277   0.09467   0.00000  Uiso   1.00
N318   N     0.14766   0.55067   0.46939   0.00000  Uiso   1.00
N319   N     0.56817   0.62787   0.37543   0.00000  Uiso   1.00
N320   N     0.06306   0.70885   0.13306   0.00000  Uiso   1.00
N321   N     0.18076   0.60675   0.50778   0.00000  Uiso   1.00
N322   N     0.60128   0.68395   0.41382   0.00000  Uiso   1.00
C323   C     0.06904   0.86902   0.67900   0.00000  Uiso   1.00
C324   C     0.12872   0.84112   0.71706   0.00000  Uiso   1.00
C325   C     0.14633   0.84303   0.78178   0.00000  Uiso   1.00
C326   C     0.20269   0.81479   0.80769   0.00000  Uiso   1.00
C327   C     0.28972   0.77590   0.87249   0.00000  Uiso   1.00
C328   C     0.13319   0.88364   0.62615   0.00000  Uiso   1.00
C329   C     0.15453   0.92130   0.61443   0.00000  Uiso   1.00
C330   C     0.21465   0.92885   0.56381   0.00000  Uiso   1.00
C331   C     0.30855   0.95598   0.48745   0.00000  Uiso   1.00
C332   C     0.99236   0.84561   0.64645   0.00000  Uiso   1.00
C333   C     0.89530   0.85129   0.65177   0.00000  Uiso   1.00
C334   C     0.83685   0.82683   0.61822   0.00000  Uiso   1.00
C335   C     0.71210   0.79490   0.57337   0.00000  Uiso   1.00
C336   C     0.13784   0.81546   0.60993   0.00000  Uiso   1.00
C337   C     0.16609   0.81203   0.67954   0.00000  Uiso   1.00
C338   C     0.22244   0.78377   0.70536   0.00000  Uiso   1.00
C339   C     0.24013   0.78564   0.77010   0.00000  Uiso   1.00
C340   C     0.17055   0.85455   0.58864   0.00000  Uiso   1.00
C341   C     0.23065   0.86205   0.53802   0.00000  Uiso   1.00
C342   C     0.25208   0.89971   0.52623   0.00000  Uiso   1.00
C343   C     0.02973   0.81651   0.60893   0.00000  Uiso   1.00
C344   C     0.97142   0.79204   0.57536   0.00000  Uiso   1.00
C345   C     0.87429   0.79768   0.58064   0.00000  Uiso   1.00
H346   H     0.03995   0.89167   0.70820   0.00000  Uiso   1.00
H347   H     0.11740   0.86555   0.81079   0.00000  Uiso   1.00
H348   H     0.12559   0.94381   0.64347   0.00000  Uiso   1.00
H349   H     0.86641   0.87381   0.68081   0.00000  Uiso   1.00
H350   H     0.21978   0.82377   0.90798   0.00000  Uiso   1.00
H351   H     0.23703   0.98878   0.55516   0.00000  Uiso   1.00
H352   H     0.69048   0.84117   0.63390   0.00000  Uiso   1.00
H353   H     0.16693   0.79282   0.58072   0.00000  Uiso   1.00
H354   H     0.25135   0.76127   0.67632   0.00000  Uiso   1.00
H355   H     0.25955   0.83953   0.50900   0.00000  Uiso   1.00
H356   H     0.00036   0.76953   0.54634   0.00000  Uiso   1.00
H357   H     0.32851   0.73913   0.79884   0.00000  Uiso   1.00
H358   H     0.34575   0.90415   0.44602   0.00000  Uiso   1.00
H359   H     0.79921   0.75654   0.52475   0.00000  Uiso   1.00
O360   O     0.32741   0.76249   0.91859   0.00000  Uiso   1.00
O361   O     0.35003   0.97898   0.45570   0.00000  Uiso   1.00
O362   O     0.63297   0.78532   0.55900   0.00000  Uiso   1.00
N363   N     0.23377   0.80817   0.86918   0.00000  Uiso   1.00
N364   N     0.24991   0.96245   0.53932   0.00000  Uiso   1.00
N365   N     0.73893   0.82446   0.61292   0.00000  Uiso   1.00
N366   N     0.29227   0.76263   0.81045   0.00000  Uiso   1.00
N367   N     0.30841   0.91691   0.48059   0.00000  Uiso   1.00
N368   N     0.79743   0.77891   0.55419   0.00000  Uiso   1.00
C369   C     0.08768   0.60551   0.80975   0.00000  Uiso   1.00
C370   C     0.04718   0.63224   0.75986   0.00000  Uiso   1.00
C371   C     0.03156   0.62348   0.69652   0.00000  Uiso   1.00
C372   C     0.99400   0.65183   0.65853   0.00000  Uiso   1.00
C373   C     0.93429   0.68789   0.57733   0.00000  Uiso   1.00
C374   C     0.01473   0.60410   0.86313   0.00000  Uiso   1.00
C375   C     0.97183   0.57168   0.88662   0.00000  Uiso   1.00
C376   C     0.90696   0.57635   0.93556   0.00000  Uiso   1.00
C377   C     0.79692   0.56871   0.01472   0.00000  Uiso   1.00
C378   C     0.17444   0.62538   0.83722   0.00000  Uiso   1.00
C379   C     0.26582   0.61084   0.83895   0.00000  Uiso   1.00
C380   C     0.33541   0.63343   0.86610   0.00000  Uiso   1.00
C381   C     0.47334   0.65883   0.90503   0.00000  Uiso   1.00
C382   C     0.04874   0.67146   0.85490   0.00000  Uiso   1.00
C383   C     0.02603   0.66806   0.78438   0.00000  Uiso   1.00
C384   C     0.98849   0.69644   0.74647   0.00000  Uiso   1.00
C385   C     0.97281   0.68772   0.68309   0.00000  Uiso   1.00
C386   C     0.99358   0.63992   0.88765   0.00000  Uiso   1.00
C387   C     0.92876   0.64464   0.93657   0.00000  Uiso   1.00
C388   C     0.88577   0.61224   0.96013   0.00000  Uiso   1.00
C389   C     0.15329   0.66120   0.86174   0.00000  Uiso   1.00
C390   C     0.22274   0.68381   0.88890   0.00000  Uiso   1.00
C391   C     0.31422   0.66931   0.89067   0.00000  Uiso   1.00
H392   H     0.10414   0.57762   0.79066   0.00000  Uiso   1.00
H393   H     0.04793   0.59575   0.67756   0.00000  Uiso   1.00
H394   H     0.98822   0.54396   0.86764   0.00000  Uiso   1.00
H395   H     0.28216   0.58312   0.81997   0.00000  Uiso   1.00
H396   H     0.97625   0.63164   0.56299   0.00000  Uiso   1.00
H397   H     0.85037   0.52244   0.96379   0.00000  Uiso   1.00
H398   H     0.47021   0.60502   0.86327   0.00000  Uiso   1.00
H399   H     0.03228   0.69935   0.87400   0.00000  Uiso   1.00
H400   H     0.97213   0.72416   0.76547   0.00000  Uiso   1.00
H401   H     0.91241   0.67237   0.95554   0.00000  Uiso   1.00
H402   H     0.20635   0.71153   0.90787   0.00000  Uiso   1.00
H403   H     0.91472   0.73586   0.63433   0.00000  Uiso   1.00
H404   H     0.78885   0.62666   0.03514   0.00000  Uiso   1.00
H405   H     0.40868   0.70924   0.93462   0.00000  Uiso   1.00
O406   O     0.90718   0.69787   0.52577   0.00000  Uiso   1.00
O407   O     0.74205   0.55460   0.05161   0.00000  Uiso   1.00
O408   O     0.55526   0.66294   0.91973   0.00000  Uiso   1.00
N409   N     0.97004   0.65277   0.59467   0.00000  Uiso   1.00
N410   N     0.85234   0.55067   0.96939   0.00000  Uiso   1.00
N411   N     0.43183   0.62787   0.87543   0.00000  Uiso   1.00
N412   N     0.93694   0.70885   0.63306   0.00000  Uiso   1.00
N413   N     0.81924   0.60675   0.00778   0.00000  Uiso   1.00
N414   N     0.39872   0.68395   0.91382   0.00000  Uiso   1.00
C415   C     0.93096   0.86902   0.17900   0.00000  Uiso   1.00
C416   C     0.87128   0.84112   0.21706   0.00000  Uiso   1.00
C417   C     0.85367   0.84303   0.28178   0.00000  Uiso   1.00
C418   C     0.79731   0.81479   0.30769   0.00000  Uiso   1.00
C419   C     0.71028   0.77590   0.37249   0.00000  Uiso   1.00
C420   C     0.86681   0.88364   0.12615   0.00000  Uiso   1.00
C421   C     0.84547   0.92130   0.11443   0.00000  Uiso   1.00
C422   C     0.78535   0.92885   0.06381   0.00000  Uiso   1.00
C423   C     0.69145   0.95598   0.98745   0.00000  Uiso   1.00
C424   C     0.00764   0.84561   0.14645   0.00000  Uiso   1.00
C425   C     0.10470   0.85129   0.15177   0.00000  Uiso   1.00
C426   C     0.16315   0.82683   0.11822   0.00000  Uiso   1.00
C427   C     0.28790   0.79490   0.07337   0.00000  Uiso   1.00
C428   C     0.86216   0.81546   0.10993   0.00000  Uiso   1.00
C429   C     0.83391   0.81203   0.17954   0.00000  Uiso   1.00
C430   C     0.77756   0.78377   0.20536   0.00000  Uiso   1.00
C431   C     0.75987   0.78564   0.27010   0.00000  Uiso   1.00
C432   C     0.82945   0.85455   0.08864   0.00000  Uiso   1.00
C433   C     0.76935   0.86205   0.03802   0.00000  Uiso   1.00
C434   C     0.74792   0.89971   0.02623   0.00000  Uiso   1.00
C435   C     0.97027   0.81651   0.10893   0.00000  Uiso   1.00
C436   C     0.02858   0.79204   0.07536   0.00000  Uiso   1.00
C437   C     0.12571   0.79768   0.08064   0.00000  Uiso   1.00
H438   H     0.96005   0.89167   0.20820   0.00000  Uiso   1.00
H439   H     0.88260   0.86555   0.31079   0.00000  Uiso   1.00
H440   H     0.87441   0.94381   0.14347   0.00000  Uiso   1.00
H441   H     0.13359   0.87381   0.18081   0.00000  Uiso   1.00
H442   H     0.78022   0.82377   0.40798   0.00000  Uiso   1.00
H443   H     0.76297   0.98878   0.05516   0.00000  Uiso   1.00
H444   H     0.30952   0.84117   0.13390   0.00000  Uiso   1.00
H445   H     0.83307   0.79282   0.08072   0.00000  Uiso   1.00
H446   H     0.74865   0.76127   0.17632   0.00000  Uiso   1.00
H447   H     0.74045   0.83953   0.00900   0.00000  Uiso   1.00
H448   H     0.99964   0.76953   0.04634   0.00000  Uiso   1.00
H449   H     0.67149   0.73913   0.29884   0.00000  Uiso   1.00
H450   H     0.65425   0.90415   0.94602   0.00000  Uiso   1.00
H451   H     0.20079   0.75654   0.02475   0.00000  Uiso   1.00
O452   O     0.67259   0.76249   0.41859   0.00000  Uiso   1.00
O453   O     0.64997   0.97898   0.95570   0.00000  Uiso   1.00
O454   O     0.36703   0.78532   0.05900   0.00000  Uiso   1.00
N455   N     0.76623   0.80817   0.36918   0.00000  Uiso   1.00
N456   N     0.75009   0.96245   0.03932   0.00000  Uiso   1.00
N457   N     0.26107   0.82446   0.11292   0.00000  Uiso   1.00
N458   N     0.70773   0.76263   0.31045   0.00000  Uiso   1.00
N459   N     0.69159   0.91691   0.98059   0.00000  Uiso   1.00
N460   N     0.20257   0.77891   0.05419   0.00000  Uiso   1.00
C461   C     0.58768   0.10551   0.30975   0.00000  Uiso   1.00
C462   C     0.54718   0.13224   0.25986   0.00000  Uiso   1.00
C463   C     0.53156   0.12348   0.19652   0.00000  Uiso   1.00
C464   C     0.49400   0.15183   0.15853   0.00000  Uiso   1.00
C465   C     0.43429   0.18789   0.07733   0.00000  Uiso   1.00
C466   C     0.51473   0.10410   0.36313   0.00000  Uiso   1.00
C467   C     0.47183   0.07168   0.38662   0.00000  Uiso   1.00
C468   C     0.40696   0.07635   0.43556   0.00000  Uiso   1.00
C469   C     0.29692   0.06871   0.51472   0.00000  Uiso   1.00
C470   C     0.67444   0.12538   0.33722   0.00000  Uiso   1.00
C471   C     0.76582   0.11084   0.33895   0.00000  Uiso   1.00
C472   C     0.83541   0.13343   0.36610   0.00000  Uiso   1.00
C473   C     0.97334   0.15883   0.40503   0.00000  Uiso   1.00
C474   C     0.54874   0.17146   0.35490   0.00000  Uiso   1.00
C475   C     0.52603   0.16806   0.28438   0.00000  Uiso   1.00
C476   C     0.48849   0.19644   0.24647   0.00000  Uiso   1.00
C477   C     0.47281   0.18772   0.18309   0.00000  Uiso   1.00
C478   C     0.49358   0.13992   0.38765   0.00000  Uiso   1.00
C479   C     0.42876   0.14464   0.43657   0.00000  Uiso   1.00
C480   C     0.38577   0.11224   0.46013   0.00000  Uiso   1.00
C481   C     0.65329   0.16120   0.36174   0.00000  Uiso   1.00
C482   C     0.72274   0.18381   0.38890   0.00000  Uiso   1.00
C483   C     0.81422   0.16931   0.39067   0.00000  Uiso   1.00
H484   H     0.60414   0.07762   0.29066   0.00000  Uiso   1.00
H485   H     0.54793   0.09575   0.17756   0.00000  Uiso   1.00
H486   H     0.48822   0.04396   0.36764   0.00000  Uiso   1.00
H487   H     0.78216   0.08312   0.31997   0.00000  Uiso   1.00
H488   H     0.47625   0.13164   0.06299   0.00000  Uiso   1.00
H489   H     0.35037   0.02244   0.46379   0.00000  Uiso   1.00
H490   H     0.97021   0.10502   0.36327   0.00000  Uiso   1.00
H491   H     0.53228   0.19935   0.37400   0.00000  Uiso   1.00
H492   H     0.47213   0.22416   0.26547   0.00000  Uiso   1.00
H493   H     0.41241   0.17237   0.45554   0.00000  Uiso   1.00
H494   H     0.70635   0.21153   0.40787   0.00000  Uiso   1.00
H495   H     0.41472   0.23586   0.13433   0.00000  Uiso   1.00
H496   H     0.28885   0.12666   0.53514   0.00000  Uiso   1.00
H497   H     0.90868   0.20924   0.43462   0.00000  Uiso   1.00
O498   O     0.40718   0.19787   0.02577   0.00000  Uiso   1.00
O499   O     0.24205   0.05460   0.55161   0.00000  Uiso   1.00
O500   O     0.05526   0.16294   0.41973   0.00000  Uiso   1.00
N501   N     0.47004   0.15277   0.09467   0.00000  Uiso   1.00
N502   N     0.35234   0.05067   0.46939   0.00000  Uiso   1.00
N503   N     0.93183   0.12787   0.37543   0.00000  Uiso   1.00
N504   N     0.43694   0.20885   0.13306   0.00000  Uiso   1.00
N505   N     0.31924   0.10675   0.50778   0.00000  Uiso   1.00
N506   N     0.89872   0.18395   0.41382   0.00000  Uiso   1.00
C507   C     0.43096   0.36902   0.67900   0.00000  Uiso   1.00
C508   C     0.37128   0.34112   0.71706   0.00000  Uiso   1.00
C509   C     0.35367   0.34303   0.78178   0.00000  Uiso   1.00
C510   C     0.29731   0.31479   0.80769   0.00000  Uiso   1.00
C511   C     0.21028   0.27590   0.87249   0.00000  Uiso   1.00
C512   C     0.36681   0.38364   0.62615   0.00000  Uiso   1.00
C513   C     0.34547   0.42130   0.61443   0.00000  Uiso   1.00
C514   C     0.28535   0.42885   0.56381   0.00000  Uiso   1.00
C515   C     0.19145   0.45598   0.48745   0.00000  Uiso   1.00
C516   C     0.50764   0.34561   0.64645   0.00000  Uiso   1.00
C517   C     0.60470   0.35129   0.65177   0.00000  Uiso   1.00
C518   C     0.66315   0.32683   0.61822   0.00000  Uiso   1.00
C519   C     0.78790   0.29490   0.57337   0.00000  Uiso   1.00
C520   C     0.36216   0.31546   0.60993   0.00000  Uiso   1.00
C521   C     0.33391   0.31203   0.67954   0.00000  Uiso   1.00
C522   C     0.27756   0.28377   0.70536   0.00000  Uiso   1.00
C523   C     0.25987   0.28564   0.77010   0.00000  Uiso   1.00
C524   C     0.32945   0.35455   0.58864   0.00000  Uiso   1.00
C525   C     0.26935   0.36205   0.53802   0.00000  Uiso   1.00
C526   C     0.24792   0.39971   0.52623   0.00000  Uiso   1.00
C527   C     0.47027   0.31651   0.60893   0.00000  Uiso   1.00
C528   C     0.52858   0.29204   0.57536   0.00000  Uiso   1.00
C529   C     0.62571   0.29768   0.58064   0.00000  Uiso   1.00
H530   H     0.46005   0.39167   0.70820   0.00000  Uiso   1.00
H531   H     0.38260   0.36555   0.81079   0.00000  Uiso   1.00
H532   H     0.37441   0.44381   0.64347   0.00000  Uiso   1.00
H533   H     0.63359   0.37381   0.68081   0.00000  Uiso   1.00
H534   H     0.28022   0.32377   0.90798   0.00000  Uiso   1.00
H535   H     0.26297   0.48878   0.55516   0.00000  Uiso   1.00
H536   H     0.80952   0.34117   0.63390   0.00000  Uiso   1.00
H537   H     0.33307   0.29282   0.58072   0.00000  Uiso   1.00
H538   H     0.24865   0.26127   0.67632   0.00000  Uiso   1.00
H539   H     0.24045   0.33953   0.50900   0.00000  Uiso   1.00
H540   H     0.49964   0.26953   0.54634   0.00000  Uiso   1.00
H541   H     0.17149   0.23913   0.79884   0.00000  Uiso   1.00
H542   H     0.15425   0.40415   0.44602   0.00000  Uiso   1.00
H543   H     0.70079   0.25654   0.52475   0.00000  Uiso   1.00
O544   O     0.17259   0.26249   0.91859   0.00000  Uiso   1.00
O545   O     0.14997   0.47898   0.45570   0.00000  Uiso   1.00
O546   O     0.86703   0.28532   0.55900   0.00000  Uiso   1.00
N547   N     0.26623   0.30817   0.86918   0.00000  Uiso   1.00
N548   N     0.25009   0.46245   0.53932   0.00000  Uiso   1.00
N549   N     0.76107   0.32446   0.61292   0.00000  Uiso   1.00
N550   N     0.20773   0.26263   0.81045   0.00000  Uiso   1.00
N551   N     0.19159   0.41691   0.48059   0.00000  Uiso   1.00
N552   N     0.70257   0.27891   0.55419   0.00000  Uiso   1.00
C553   C     0.91232   0.39449   0.80975   0.00000  Uiso   1.00
C554   C     0.95282   0.36776   0.75986   0.00000  Uiso   1.00
C555   C     0.96844   0.37652   0.69652   0.00000  Uiso   1.00
C556   C     0.00600   0.34817   0.65853   0.00000  Uiso   1.00
C557   C     0.06571   0.31211   0.57733   0.00000  Uiso   1.00
C558   C     0.98527   0.39590   0.86313   0.00000  Uiso   1.00
C559   C     0.02817   0.42832   0.88662   0.00000  Uiso   1.00
C560   C     0.09304   0.42365   0.93556   0.00000  Uiso   1.00
C561   C     0.20308   0.43129   0.01472   0.00000  Uiso   1.00
C562   C     0.82556   0.37462   0.83722   0.00000  Uiso   1.00
C563   C     0.73418   0.38916   0.83895   0.00000  Uiso   1.00
C564   C     0.66459   0.36657   0.86610   0.00000  Uiso   1.00
C565   C     0.52666   0.34117   0.90503   0.00000  Uiso   1.00
C566   C     0.95126   0.32854   0.85490   0.00000  Uiso   1.00
C567   C     0.97397   0.33194   0.78438   0.00000  Uiso   1.00
C568   C     0.01151   0.30356   0.74647   0.00000  Uiso   1.00
C569   C     0.02719   0.31228   0.68309   0.00000  Uiso   1.00
C570   C     0.00642   0.36008   0.88765   0.00000  Uiso   1.00
C571   C     0.07124   0.35536   0.93657   0.00000  Uiso   1.00
C572   C     0.11423   0.38776   0.96013   0.00000  Uiso   1.00
C573   C     0.84671   0.33880   0.86174   0.00000  Uiso   1.00
C574   C     0.77726   0.31619   0.88890   0.00000  Uiso   1.00
C575   C     0.68578   0.33069   0.89067   0.00000  Uiso   1.00
H576   H     0.89586   0.42238   0.79066   0.00000  Uiso   1.00
H577   H     0.95207   0.40425   0.67756   0.00000  Uiso   1.00
H578   H     0.01178   0.45604   0.86764   0.00000  Uiso   1.00
H579   H     0.71784   0.41688   0.81997   0.00000  Uiso   1.00
H580   H     0.02375   0.36836   0.56299   0.00000  Uiso   1.00
H581   H     0.14963   0.47756   0.96379   0.00000  Uiso   1.00
H582   H     0.52979   0.39498   0.86327   0.00000  Uiso   1.00
H583   H     0.96772   0.30065   0.87400   0.00000  Uiso   1.00
H584   H     0.02787   0.27584   0.76547   0.00000  Uiso   1.00
H585   H     0.08759   0.32763   0.95554   0.00000  Uiso   1.00
H586   H     0.79365   0.28847   0.90787   0.00000  Uiso   1.00
H587   H     0.08528   0.26414   0.63433   0.00000  Uiso   1.00
H588   H     0.21115   0.37334   0.03514   0.00000  Uiso   1.00
H589   H     0.59132   0.29076   0.93462   0.00000  Uiso   1.00
O590   O     0.09282   0.30213   0.52577   0.00000  Uiso   1.00
O591   O     0.25795   0.44540   0.05161   0.00000  Uiso   1.00
O592   O     0.44474   0.33706   0.91973   0.00000  Uiso   1.00
N593   N     0.02996   0.34723   0.59467   0.00000  Uiso   1.00
N594   N     0.14766   0.44933   0.96939   0.00000  Uiso   1.00
N595   N     0.56817   0.37213   0.87543   0.00000  Uiso   1.00
N596   N     0.06306   0.29115   0.63306   0.00000  Uiso   1.00
N597   N     0.18076   0.39325   0.00778   0.00000  Uiso   1.00
N598   N     0.60128   0.31605   0.91382   0.00000  Uiso   1.00
C599   C     0.06904   0.13098   0.17900   0.00000  Uiso   1.00
C600   C     0.12872   0.15888   0.21706   0.00000  Uiso   1.00
C601   C     0.14633   0.15697   0.28178   0.00000  Uiso   1.00
C602   C     0.20269   0.18521   0.30769   0.00000  Uiso   1.00
C603   C     0.28972   0.22410   0.37249   0.00000  Uiso   1.00
C604   C     0.13319   0.11636   0.12615   0.00000  Uiso   1.00
C605   C     0.15453   0.07870   0.11443   0.00000  Uiso   1.00
C606   C     0.21465   0.07115   0.06381   0.00000  Uiso   1.00
C607   C     0.30855   0.04402   0.98745   0.00000  Uiso   1.00
C608   C     0.99236   0.15439   0.14645   0.00000  Uiso   1.00
C609   C     0.89530   0.14871   0.15177   0.00000  Uiso   1.00
C610   C     0.83685   0.17317   0.11822   0.00000  Uiso   1.00
C611   C     0.71210   0.20510   0.07337   0.00000  Uiso   1.00
C612   C     0.13784   0.18454   0.10993   0.00000  Uiso   1.00
C613   C     0.16609   0.18797   0.17954   0.00000  Uiso   1.00
C614   C     0.22244   0.21623   0.20536   0.00000  Uiso   1.00
C615   C     0.24013   0.21436   0.27010   0.00000  Uiso   1.00
C616   C     0.17055   0.14545   0.08864   0.00000  Uiso   1.00
C617   C     0.23065   0.13795   0.03802   0.00000  Uiso   1.00
C618   C     0.25208   0.10029   0.02623   0.00000  Uiso   1.00
C619   C     0.02973   0.18349   0.10893   0.00000  Uiso   1.00
C620   C     0.97142   0.20796   0.07536   0.00000  Uiso   1.00
C621   C     0.87429   0.20232   0.08064   0.00000  Uiso   1.00
H622   H     0.03995   0.10833   0.20820   0.00000  Uiso   1.00
H623   H     0.11740   0.13445   0.31079   0.00000  Uiso   1.00
H624   H     0.12559   0.05619   0.14347   0.00000  Uiso   1.00
H625   H     0.86641   0.12619   0.18081   0.00000  Uiso   1.00
H626   H     0.21978   0.17623   0.40798   0.00000  Uiso   1.00
H627   H     0.23703   0.01122   0.05516   0.00000  Uiso   1.00
H628   H     0.69048   0.15883   0.13390   0.00000  Uiso   1.00
H629   H     0.16693   0.20718   0.08072   0.00000  Uiso   1.00
H630   H     0.25135   0.23873   0.17632   0.00000  Uiso   1.00
H631   H     0.25955   0.16047   0.00900   0.00000  Uiso   1.00
H632   H     0.00036   0.23047   0.04634   0.00000  Uiso   1.00
H633   H     0.32851   0.26087   0.29884   0.00000  Uiso   1.00
H634   H     0.34575   0.09585   0.94602   0.00000  Uiso   1.00
H635   H     0.79921   0.24346   0.02475   0.00000  Uiso   1.00
O636   O     0.32741   0.23751   0.41859   0.00000  Uiso   1.00
O637   O     0.35003   0.02102   0.95570   0.00000  Uiso   1.00
O638   O     0.63297   0.21468   0.05900   0.00000  Uiso   1.00
N639   N     0.23377   0.19183   0.36918   0.00000  Uiso   1.00
N640   N     0.24991   0.03755   0.03932   0.00000  Uiso   1.00
N641   N     0.73893   0.17554   0.11292   0.00000  Uiso   1.00
N642   N     0.29227   0.23737   0.31045   0.00000  Uiso   1.00
N643   N     0.30841   0.08309   0.98059   0.00000  Uiso   1.00
N644   N     0.79743   0.22109   0.05419   0.00000  Uiso   1.00
C645   C     0.41232   0.89449   0.30975   0.00000  Uiso   1.00
C646   C     0.45282   0.86776   0.25986   0.00000  Uiso   1.00
C647   C     0.46844   0.87652   0.19652   0.00000  Uiso   1.00
C648   C     0.50600   0.84817   0.15853   0.00000  Uiso   1.00
C649   C     0.56571   0.81211   0.07733   0.00000  Uiso   1.00
C650   C     0.48527   0.89590   0.36313   0.00000  Uiso   1.00
C651   C     0.52817   0.92832   0.38662   0.00000  Uiso   1.00
C652   C     0.59304   0.92365   0.43556   0.00000  Uiso   1.00
C653   C     0.70308   0.93129   0.51472   0.00000  Uiso   1.00
C654   C     0.32556   0.87462   0.33722   0.00000  Uiso   1.00
C655   C     0.23418   0.88916   0.33895   0.00000  Uiso   1.00
C656   C     0.16459   0.86657   0.36610   0.00000  Uiso   1.00
C657   C     0.02666   0.84117   0.40503   0.00000  Uiso   1.00
C658   C     0.45126   0.82854   0.35490   0.00000  Uiso   1.00
C659   C     0.47397   0.83194   0.28438   0.00000  Uiso   1.00
C660   C     0.51151   0.80356   0.24647   0.00000  Uiso   1.00
C661   C     0.52719   0.81228   0.18309   0.00000  Uiso   1.00
C662   C     0.50642   0.86008   0.38765   0.00000  Uiso   1.00
C663   C     0.57124   0.85536   0.43657   0.00000  Uiso   1.00
C664   C     0.61423   0.88776   0.46013   0.00000  Uiso   1.00
C665   C     0.34671   0.83880   0.36174   0.00000  Uiso   1.00
C666   C     0.27726   0.81619   0.38890   0.00000  Uiso   1.00
C667   C     0.18578   0.83069   0.39067   0.00000  Uiso   1.00
H668   H     0.39586   0.92238   0.29066   0.00000  Uiso   1.00
H669   H     0.45207   0.90425   0.17756   0.00000  Uiso   1.00
H670   H     0.51178   0.95604   0.36764   0.00000  Uiso   1.00
H671   H     0.21784   0.91688   0.31997   0.00000  Uiso   1.00
H672   H     0.52375   0.86836   0.06299   0.00000  Uiso   1.00
H673   H     0.64963   0.97756   0.46379   0.00000  Uiso   1.00
H674   H     0.02979   0.89498   0.36327   0.00000  Uiso   1.00
H675   H     0.46772   0.80065   0.37400   0.00000  Uiso   1.00
H676   H     0.52787   0.77584   0.26547   0.00000  Uiso   1.00
H677   H     0.58759   0.82763   0.45554   0.00000  Uiso   1.00
H678   H     0.29365   0.78847   0.40787   0.00000  Uiso   1.00
H679   H     0.58528   0.76414   0.13433   0.00000  Uiso   1.00
H680   H     0.71115   0.87334   0.53514   0.00000  Uiso   1.00
H681   H     0.09132   0.79076   0.43462   0.00000  Uiso   1.00
O682   O     0.59282   0.80213   0.02577   0.00000  Uiso   1.00
O683   O     0.75795   0.94540   0.55161   0.00000  Uiso   1.00
O684   O     0.94474   0.83706   0.41973   0.00000  Uiso   1.00
N685   N     0.52996   0.84723   0.09467   0.00000  Uiso   1.00
N686   N     0.64766   0.94933   0.46939   0.00000  Uiso   1.00
N687   N     0.06817   0.87213   0.37543   0.00000  Uiso   1.00
N688   N     0.56306   0.79115   0.13306   0.00000  Uiso   1.00
N689   N     0.68076   0.89325   0.50778   0.00000  Uiso   1.00
N690   N     0.10128   0.81605   0.41382   0.00000  Uiso   1.00
C691   C     0.56904   0.63098   0.67900   0.00000  Uiso   1.00
C692   C     0.62872   0.65888   0.71706   0.00000  Uiso   1.00
C693   C     0.64633   0.65697   0.78178   0.00000  Uiso   1.00
C694   C     0.70269   0.68521   0.80769   0.00000  Uiso   1.00
C695   C     0.78972   0.72410   0.87249   0.00000  Uiso   1.00
C696   C     0.63319   0.61636   0.62615   0.00000  Uiso   1.00
C697   C     0.65453   0.57870   0.61443   0.00000  Uiso   1.00
C698   C     0.71465   0.57115   0.56381   0.00000  Uiso   1.00
C699   C     0.80855   0.54402   0.48745   0.00000  Uiso   1.00
C700   C     0.49236   0.65439   0.64645   0.00000  Uiso   1.00
C701   C     0.39530   0.64871   0.65177   0.00000  Uiso   1.00
C702   C     0.33685   0.67317   0.61822   0.00000  Uiso   1.00
C703   C     0.21210   0.70510   0.57337   0.00000  Uiso   1.00
C704   C     0.63784   0.68454   0.60993   0.00000  Uiso   1.00
C705   C     0.66609   0.68797   0.67954   0.00000  Uiso   1.00
C706   C     0.72244   0.71623   0.70536   0.00000  Uiso   1.00
C707   C     0.74013   0.71436   0.77010   0.00000  Uiso   1.00
C708   C     0.67055   0.64545   0.58864   0.00000  Uiso   1.00
C709   C     0.73065   0.63795   0.53802   0.00000  Uiso   1.00
C710   C     0.75208   0.60029   0.52623   0.00000  Uiso   1.00
C711   C     0.52973   0.68349   0.60893   0.00000  Uiso   1.00
C712   C     0.47142   0.70796   0.57536   0.00000  Uiso   1.00
C713   C     0.37429   0.70232   0.58064   0.00000  Uiso   1.00
H714   H     0.53995   0.60833   0.70820   0.00000  Uiso   1.00
H715   H     0.61740   0.63445   0.81079   0.00000  Uiso   1.00
H716   H     0.62559   0.55619   0.64347   0.00000  Uiso   1.00
H717   H     0.36641   0.62619   0.68081   0.00000  Uiso   1.00
H718   H     0.71978   0.67623   0.90798   0.00000  Uiso   1.00
H719   H     0.73703   0.51122   0.55516   0.00000  Uiso   1.00
H720   H     0.19048   0.65883   0.63390   0.00000  Uiso   1.00
H721   H     0.66693   0.70718   0.58072   0.00000  Uiso   1.00
H722   H     0.75135   0.73873   0.67632   0.00000  Uiso   1.00
H723   H     0.75955   0.66047   0.50900   0.00000  Uiso   1.00
H724   H     0.50036   0.73047   0.54634   0.00000  Uiso   1.00
H725   H     0.82851   0.76087   0.79884   0.00000  Uiso   1.00
H726   H     0.84575   0.59585   0.44602   0.00000  Uiso   1.00
H727   H     0.29921   0.74346   0.52475   0.00000  Uiso   1.00
O728   O     0.82741   0.73751   0.91859   0.00000  Uiso   1.00
O729   O     0.85003   0.52102   0.45570   0.00000  Uiso   1.00
O730   O     0.13297   0.71468   0.55900   0.00000  Uiso   1.00
N731   N     0.73377   0.69183   0.86918   0.00000  Uiso   1.00
N732   N     0.74991   0.53755   0.53932   0.00000  Uiso   1.00
N733   N     0.23893   0.67554   0.61292   0.00000  Uiso   1.00
N734   N     0.79227   0.73737   0.81045   0.00000  Uiso   1.00
N735   N     0.80841   0.58309   0.48059   0.00000  Uiso   1.00
N736   N     0.29743   0.72109   0.55419   0.00000  Uiso   1.00
