data_job_06676
_audit_creation_date              2018-12-19
_audit_creation_method            'Materials Studio'
_symmetry_space_group_name_H-M    'P1'
_symmetry_Int_Tables_number       1
_symmetry_cell_setting            triclinic
loop_
_symmetry_equiv_pos_as_xyz
  x,y,z
_cell_length_a                    27.5510
_cell_length_b                    39.1975
_cell_length_c                    18.6703
_cell_angle_alpha                 90.0000
_cell_angle_beta                  107.3524
_cell_angle_gamma                 90.0000
loop_
_atom_site_label
_atom_site_type_symbol
_atom_site_fract_x
_atom_site_fract_y
_atom_site_fract_z
_atom_site_U_iso_or_equiv
_atom_site_adp_type
_atom_site_occupancy
C1     C     0.15734   0.17978   0.99274   0.00000  Uiso   1.00
C2     C     0.18693   0.16554   0.06932   0.00000  Uiso   1.00
C3     C     0.19083   0.18059   0.13808   0.00000  Uiso   1.00
C4     C     0.21968   0.16353   0.20173   0.00000  Uiso   1.00
C5     C     0.26199   0.14614   0.32141   0.00000  Uiso   1.00
C6     C     0.19546   0.18278   0.94828   0.00000  Uiso   1.00
C7     C     0.20651   0.21234   0.91528   0.00000  Uiso   1.00
C8     C     0.24254   0.20980   0.87703   0.00000  Uiso   1.00
C9     C     0.79805   0.71918   0.80875   0.00000  Uiso   1.00
C10    C     0.12001   0.15192   0.95427   0.00000  Uiso   1.00
C11    C     0.06763   0.15553   0.92628   0.00000  Uiso   1.00
C12    C     0.04013   0.12701   0.89306   0.00000  Uiso   1.00
C13    C     0.97850   0.08847   0.83407   0.00000  Uiso   1.00
C14    C     0.20166   0.12273   0.98349   0.00000  Uiso   1.00
C15    C     0.21101   0.13455   0.06429   0.00000  Uiso   1.00
C16    C     0.23986   0.11747   0.12785   0.00000  Uiso   1.00
C17    C     0.24380   0.13249   0.19670   0.00000  Uiso   1.00
C18    C     0.21953   0.15180   0.94326   0.00000  Uiso   1.00
C19    C     0.25555   0.14921   0.90505   0.00000  Uiso   1.00
C20    C     0.26665   0.17875   0.87200   0.00000  Uiso   1.00
C21    C     0.14408   0.12093   0.94925   0.00000  Uiso   1.00
C22    C     0.11666   0.09241   0.91605   0.00000  Uiso   1.00
C23    C     0.06425   0.09597   0.88802   0.00000  Uiso   1.00
H24    H     0.13860   0.20391   0.99664   0.00000  Uiso   1.00
H25    H     0.17219   0.20457   0.14195   0.00000  Uiso   1.00
H26    H     0.18787   0.23631   0.91917   0.00000  Uiso   1.00
H27    H     0.04901   0.17951   0.93018   0.00000  Uiso   1.00
H28    H     0.22007   0.19165   0.30083   0.00000  Uiso   1.00
H29    H     0.75311   0.75857   0.83107   0.00000  Uiso   1.00
H30    H     0.96030   0.13880   0.85427   0.00000  Uiso   1.00
H31    H     0.22041   0.09860   0.97957   0.00000  Uiso   1.00
H32    H     0.25849   0.09349   0.12395   0.00000  Uiso   1.00
H33    H     0.27417   0.12523   0.90117   0.00000  Uiso   1.00
H34    H     0.13531   0.06843   0.91217   0.00000  Uiso   1.00
H35    H     0.29011   0.10149   0.28622   0.00000  Uiso   1.00
H36    H     0.82315   0.66842   0.81645   0.00000  Uiso   1.00
H37    H     0.03034   0.04864   0.83966   0.00000  Uiso   1.00
O38    O     0.27868   0.14511   0.38880   0.00000  Uiso   1.00
O39    O     0.82202   0.73291   0.77248   0.00000  Uiso   1.00
O40    O     0.93786   0.07577   0.80293   0.00000  Uiso   1.00
N41    N     0.23132   0.17113   0.27758   0.00000  Uiso   1.00
N42    N     0.76222   0.73370   0.83839   0.00000  Uiso   1.00
N43    N     0.98846   0.12173   0.86007   0.00000  Uiso   1.00
N44    N     0.26901   0.12261   0.26972   0.00000  Uiso   1.00
N45    N     0.79991   0.68519   0.83053   0.00000  Uiso   1.00
N46    N     0.02615   0.07321   0.85221   0.00000  Uiso   1.00
C47    C     0.17754   0.85419   0.07056   0.00000  Uiso   1.00
C48    C     0.14300   0.83544   0.10783   0.00000  Uiso   1.00
C49    C     0.15201   0.83123   0.18450   0.00000  Uiso   1.00
C50    C     0.11580   0.81327   0.20738   0.00000  Uiso   1.00
C51    C     0.56881   0.28616   0.27317   0.00000  Uiso   1.00
C52    C     0.18983   0.82870   0.01675   0.00000  Uiso   1.00
C53    C     0.23822   0.81882   0.01684   0.00000  Uiso   1.00
C54    C     0.24143   0.79519   0.96304   0.00000  Uiso   1.00
C55    C     0.76716   0.25762   0.88739   0.00000  Uiso   1.00
C56    C     0.14474   0.88171   0.02151   0.00000  Uiso   1.00
C57    C     0.15523   0.91641   0.02557   0.00000  Uiso   1.00
C58    C     0.12048   0.93741   0.97577   0.00000  Uiso   1.00
C59    C     0.07620   0.98216   0.90750   0.00000  Uiso   1.00
C60    C     0.09720   0.82979   0.97486   0.00000  Uiso   1.00
C61    C     0.09936   0.82218   0.05585   0.00000  Uiso   1.00
C62    C     0.06312   0.80423   0.07862   0.00000  Uiso   1.00
C63    C     0.07208   0.79999   0.15531   0.00000  Uiso   1.00
C64    C     0.14619   0.81544   0.96478   0.00000  Uiso   1.00
C65    C     0.14933   0.79182   0.91096   0.00000  Uiso   1.00
C66    C     0.19772   0.78191   0.91097   0.00000  Uiso   1.00
C67    C     0.10110   0.86846   0.96953   0.00000  Uiso   1.00
C68    C     0.06634   0.88941   0.91970   0.00000  Uiso   1.00
C69    C     0.07677   0.92413   0.92369   0.00000  Uiso   1.00
H70    H     0.21151   0.86451   0.11102   0.00000  Uiso   1.00
H71    H     0.18579   0.84149   0.22471   0.00000  Uiso   1.00
H72    H     0.27198   0.82908   0.05707   0.00000  Uiso   1.00
H73    H     0.18900   0.92666   0.06580   0.00000  Uiso   1.00
H74    H     0.13803   0.81011   0.32783   0.00000  Uiso   1.00
H75    H     0.31978   0.78396   0.97433   0.00000  Uiso   1.00
H76    H     0.14479   0.98972   0.99275   0.00000  Uiso   1.00
H77    H     0.06323   0.81947   0.93439   0.00000  Uiso   1.00
H78    H     0.02936   0.79397   0.03839   0.00000  Uiso   1.00
H79    H     0.11556   0.78157   0.87074   0.00000  Uiso   1.00
H80    H     0.03257   0.87914   0.87948   0.00000  Uiso   1.00
H81    H     0.01107   0.77154   0.17660   0.00000  Uiso   1.00
H82    H     0.69282   0.24540   0.82310   0.00000  Uiso   1.00
H83    H     0.01783   0.95115   0.84153   0.00000  Uiso   1.00
O84    O     0.55495   0.27486   0.32381   0.00000  Uiso   1.00
O85    O     0.79340   0.24056   0.86003   0.00000  Uiso   1.00
O86    O     0.06382   0.01050   0.88420   0.00000  Uiso   1.00
N87    N     0.11279   0.80454   0.27796   0.00000  Uiso   1.00
N88    N     0.28272   0.78009   0.94747   0.00000  Uiso   1.00
N89    N     0.11913   0.97245   0.96468   0.00000  Uiso   1.00
N90    N     0.04447   0.78378   0.19659   0.00000  Uiso   1.00
N91    N     0.71440   0.25933   0.86610   0.00000  Uiso   1.00
N92    N     0.05081   0.95170   0.88331   0.00000  Uiso   1.00
C93    C     0.69860   0.99575   0.81556   0.00000  Uiso   1.00
C94    C     0.69795   0.01808   0.88215   0.00000  Uiso   1.00
C95    C     0.68486   0.00742   0.94483   0.00000  Uiso   1.00
C96    C     0.68666   0.03174   0.99964   0.00000  Uiso   1.00
C97    C     0.18344   0.56128   0.10419   0.00000  Uiso   1.00
C98    C     0.66377   0.01326   0.74625   0.00000  Uiso   1.00
C99    C     0.62194   0.99854   0.69466   0.00000  Uiso   1.00
C100   C     0.59497   0.01880   0.63506   0.00000  Uiso   1.00
C101   C     0.53871   0.04085   0.52860   0.00000  Uiso   1.00
C102   C     0.75221   0.99849   0.80858   0.00000  Uiso   1.00
C103   C     0.78475   0.97137   0.80938   0.00000  Uiso   1.00
C104   C     0.83223   0.97920   0.80224   0.00000  Uiso   1.00
C105   C     0.91329   0.97832   0.79255   0.00000  Uiso   1.00
C106   C     0.72508   0.05788   0.80143   0.00000  Uiso   1.00
C107   C     0.71233   0.05182   0.87447   0.00000  Uiso   1.00
C108   C     0.71415   0.07616   0.92920   0.00000  Uiso   1.00
C109   C     0.70107   0.06554   0.99195   0.00000  Uiso   1.00
C110   C     0.67815   0.04700   0.73857   0.00000  Uiso   1.00
C111   C     0.65124   0.06728   0.67903   0.00000  Uiso   1.00
C112   C     0.60938   0.05261   0.62737   0.00000  Uiso   1.00
C113   C     0.76660   0.03224   0.80091   0.00000  Uiso   1.00
C114   C     0.81404   0.04011   0.79375   0.00000  Uiso   1.00
C115   C     0.84664   0.01300   0.79455   0.00000  Uiso   1.00
H116   H     0.68740   0.96948   0.82153   0.00000  Uiso   1.00
H117   H     0.67373   0.98130   0.95075   0.00000  Uiso   1.00
H118   H     0.61082   0.97243   0.70061   0.00000  Uiso   1.00
H119   H     0.77360   0.94526   0.81532   0.00000  Uiso   1.00
H120   H     0.66489   0.00930   0.09061   0.00000  Uiso   1.00
H121   H     0.53227   0.99058   0.56318   0.00000  Uiso   1.00
H122   H     0.87552   0.93329   0.80506   0.00000  Uiso   1.00
H123   H     0.73627   0.08415   0.79545   0.00000  Uiso   1.00
H124   H     0.72529   0.10228   0.92324   0.00000  Uiso   1.00
H125   H     0.66238   0.09340   0.67311   0.00000  Uiso   1.00
H126   H     0.82516   0.06623   0.78781   0.00000  Uiso   1.00
H127   H     0.20674   0.60749   0.06829   0.00000  Uiso   1.00
H128   H     0.57411   0.08877   0.54085   0.00000  Uiso   1.00
H129   H     0.91736   0.03147   0.78273   0.00000  Uiso   1.00
O130   O     0.67769   0.06825   0.16398   0.00000  Uiso   1.00
O131   O     0.50370   0.04369   0.47200   0.00000  Uiso   1.00
O132   O     0.95403   0.96852   0.78934   0.00000  Uiso   1.00
N133   N     0.67626   0.02992   0.06783   0.00000  Uiso   1.00
N134   N     0.55226   0.01242   0.57472   0.00000  Uiso   1.00
N135   N     0.87316   0.95886   0.80083   0.00000  Uiso   1.00
N136   N     0.19878   0.58275   0.05582   0.00000  Uiso   1.00
N137   N     0.57478   0.06525   0.56270   0.00000  Uiso   1.00
N138   N     0.89568   0.01169   0.78882   0.00000  Uiso   1.00
C139   C     0.65734   0.67978   0.99274   0.00000  Uiso   1.00
C140   C     0.68693   0.66554   0.06932   0.00000  Uiso   1.00
C141   C     0.69083   0.68059   0.13808   0.00000  Uiso   1.00
C142   C     0.71968   0.66353   0.20173   0.00000  Uiso   1.00
C143   C     0.76199   0.64614   0.32141   0.00000  Uiso   1.00
C144   C     0.69546   0.68278   0.94828   0.00000  Uiso   1.00
C145   C     0.70651   0.71234   0.91528   0.00000  Uiso   1.00
C146   C     0.74254   0.70980   0.87703   0.00000  Uiso   1.00
C147   C     0.29805   0.21918   0.80875   0.00000  Uiso   1.00
C148   C     0.62001   0.65192   0.95427   0.00000  Uiso   1.00
C149   C     0.56763   0.65553   0.92628   0.00000  Uiso   1.00
C150   C     0.54013   0.62701   0.89306   0.00000  Uiso   1.00
C151   C     0.47850   0.58847   0.83407   0.00000  Uiso   1.00
C152   C     0.70166   0.62273   0.98349   0.00000  Uiso   1.00
C153   C     0.71101   0.63455   0.06429   0.00000  Uiso   1.00
C154   C     0.73986   0.61747   0.12785   0.00000  Uiso   1.00
C155   C     0.74380   0.63249   0.19670   0.00000  Uiso   1.00
C156   C     0.71953   0.65180   0.94326   0.00000  Uiso   1.00
C157   C     0.75555   0.64921   0.90505   0.00000  Uiso   1.00
C158   C     0.76665   0.67875   0.87200   0.00000  Uiso   1.00
C159   C     0.64408   0.62093   0.94925   0.00000  Uiso   1.00
C160   C     0.61666   0.59241   0.91605   0.00000  Uiso   1.00
C161   C     0.56425   0.59597   0.88802   0.00000  Uiso   1.00
H162   H     0.63860   0.70391   0.99664   0.00000  Uiso   1.00
H163   H     0.67219   0.70457   0.14195   0.00000  Uiso   1.00
H164   H     0.68787   0.73631   0.91917   0.00000  Uiso   1.00
H165   H     0.54901   0.67951   0.93018   0.00000  Uiso   1.00
H166   H     0.72007   0.69165   0.30083   0.00000  Uiso   1.00
H167   H     0.25311   0.25857   0.83107   0.00000  Uiso   1.00
H168   H     0.46030   0.63880   0.85427   0.00000  Uiso   1.00
H169   H     0.72041   0.59860   0.97957   0.00000  Uiso   1.00
H170   H     0.75849   0.59349   0.12395   0.00000  Uiso   1.00
H171   H     0.77417   0.62523   0.90117   0.00000  Uiso   1.00
H172   H     0.63531   0.56843   0.91217   0.00000  Uiso   1.00
H173   H     0.79011   0.60149   0.28622   0.00000  Uiso   1.00
H174   H     0.32315   0.16842   0.81645   0.00000  Uiso   1.00
H175   H     0.53034   0.54864   0.83966   0.00000  Uiso   1.00
O176   O     0.77868   0.64511   0.38880   0.00000  Uiso   1.00
O177   O     0.32202   0.23291   0.77248   0.00000  Uiso   1.00
O178   O     0.43786   0.57577   0.80293   0.00000  Uiso   1.00
N179   N     0.73132   0.67113   0.27758   0.00000  Uiso   1.00
N180   N     0.26222   0.23370   0.83839   0.00000  Uiso   1.00
N181   N     0.48846   0.62173   0.86007   0.00000  Uiso   1.00
N182   N     0.76901   0.62261   0.26972   0.00000  Uiso   1.00
N183   N     0.29991   0.18519   0.83053   0.00000  Uiso   1.00
N184   N     0.52615   0.57321   0.85221   0.00000  Uiso   1.00
C185   C     0.67754   0.35419   0.07056   0.00000  Uiso   1.00
C186   C     0.64300   0.33544   0.10783   0.00000  Uiso   1.00
C187   C     0.65201   0.33123   0.18450   0.00000  Uiso   1.00
C188   C     0.61580   0.31327   0.20738   0.00000  Uiso   1.00
C189   C     0.06881   0.78616   0.27317   0.00000  Uiso   1.00
C190   C     0.68983   0.32870   0.01675   0.00000  Uiso   1.00
C191   C     0.73822   0.31882   0.01684   0.00000  Uiso   1.00
C192   C     0.74143   0.29519   0.96304   0.00000  Uiso   1.00
C193   C     0.26716   0.75762   0.88739   0.00000  Uiso   1.00
C194   C     0.64474   0.38171   0.02151   0.00000  Uiso   1.00
C195   C     0.65523   0.41641   0.02557   0.00000  Uiso   1.00
C196   C     0.62048   0.43741   0.97577   0.00000  Uiso   1.00
C197   C     0.57620   0.48216   0.90750   0.00000  Uiso   1.00
C198   C     0.59720   0.32979   0.97486   0.00000  Uiso   1.00
C199   C     0.59936   0.32218   0.05585   0.00000  Uiso   1.00
C200   C     0.56312   0.30423   0.07862   0.00000  Uiso   1.00
C201   C     0.57208   0.29999   0.15531   0.00000  Uiso   1.00
C202   C     0.64619   0.31544   0.96478   0.00000  Uiso   1.00
C203   C     0.64933   0.29182   0.91096   0.00000  Uiso   1.00
C204   C     0.69772   0.28191   0.91097   0.00000  Uiso   1.00
C205   C     0.60110   0.36846   0.96953   0.00000  Uiso   1.00
C206   C     0.56634   0.38941   0.91970   0.00000  Uiso   1.00
C207   C     0.57677   0.42413   0.92369   0.00000  Uiso   1.00
H208   H     0.71151   0.36451   0.11102   0.00000  Uiso   1.00
H209   H     0.68579   0.34149   0.22471   0.00000  Uiso   1.00
H210   H     0.77198   0.32908   0.05707   0.00000  Uiso   1.00
H211   H     0.68900   0.42666   0.06580   0.00000  Uiso   1.00
H212   H     0.63803   0.31011   0.32783   0.00000  Uiso   1.00
H213   H     0.81978   0.28396   0.97433   0.00000  Uiso   1.00
H214   H     0.64479   0.48972   0.99275   0.00000  Uiso   1.00
H215   H     0.56323   0.31947   0.93439   0.00000  Uiso   1.00
H216   H     0.52936   0.29397   0.03839   0.00000  Uiso   1.00
H217   H     0.61556   0.28157   0.87074   0.00000  Uiso   1.00
H218   H     0.53257   0.37914   0.87948   0.00000  Uiso   1.00
H219   H     0.51107   0.27154   0.17660   0.00000  Uiso   1.00
H220   H     0.19282   0.74540   0.82310   0.00000  Uiso   1.00
H221   H     0.51783   0.45115   0.84153   0.00000  Uiso   1.00
O222   O     0.05495   0.77486   0.32381   0.00000  Uiso   1.00
O223   O     0.29340   0.74056   0.86003   0.00000  Uiso   1.00
O224   O     0.56382   0.51050   0.88420   0.00000  Uiso   1.00
N225   N     0.61279   0.30454   0.27796   0.00000  Uiso   1.00
N226   N     0.78272   0.28009   0.94747   0.00000  Uiso   1.00
N227   N     0.61913   0.47245   0.96468   0.00000  Uiso   1.00
N228   N     0.54447   0.28378   0.19659   0.00000  Uiso   1.00
N229   N     0.21440   0.75933   0.86610   0.00000  Uiso   1.00
N230   N     0.55081   0.45170   0.88331   0.00000  Uiso   1.00
C231   C     0.19860   0.49575   0.81556   0.00000  Uiso   1.00
C232   C     0.19795   0.51808   0.88215   0.00000  Uiso   1.00
C233   C     0.18486   0.50742   0.94483   0.00000  Uiso   1.00
C234   C     0.18666   0.53174   0.99964   0.00000  Uiso   1.00
C235   C     0.68344   0.06128   0.10419   0.00000  Uiso   1.00
C236   C     0.16377   0.51326   0.74625   0.00000  Uiso   1.00
C237   C     0.12194   0.49854   0.69466   0.00000  Uiso   1.00
C238   C     0.09497   0.51880   0.63506   0.00000  Uiso   1.00
C239   C     0.03871   0.54085   0.52860   0.00000  Uiso   1.00
C240   C     0.25221   0.49849   0.80858   0.00000  Uiso   1.00
C241   C     0.28475   0.47137   0.80938   0.00000  Uiso   1.00
C242   C     0.33223   0.47920   0.80224   0.00000  Uiso   1.00
C243   C     0.41329   0.47832   0.79255   0.00000  Uiso   1.00
C244   C     0.22508   0.55788   0.80143   0.00000  Uiso   1.00
C245   C     0.21233   0.55182   0.87447   0.00000  Uiso   1.00
C246   C     0.21415   0.57616   0.92920   0.00000  Uiso   1.00
C247   C     0.20107   0.56554   0.99195   0.00000  Uiso   1.00
C248   C     0.17815   0.54700   0.73857   0.00000  Uiso   1.00
C249   C     0.15124   0.56728   0.67903   0.00000  Uiso   1.00
C250   C     0.10938   0.55261   0.62737   0.00000  Uiso   1.00
C251   C     0.26660   0.53224   0.80091   0.00000  Uiso   1.00
C252   C     0.31404   0.54011   0.79375   0.00000  Uiso   1.00
C253   C     0.34664   0.51300   0.79455   0.00000  Uiso   1.00
H254   H     0.18740   0.46948   0.82153   0.00000  Uiso   1.00
H255   H     0.17373   0.48130   0.95075   0.00000  Uiso   1.00
H256   H     0.11082   0.47243   0.70061   0.00000  Uiso   1.00
H257   H     0.27360   0.44526   0.81532   0.00000  Uiso   1.00
H258   H     0.16489   0.50930   0.09061   0.00000  Uiso   1.00
H259   H     0.03227   0.49058   0.56318   0.00000  Uiso   1.00
H260   H     0.37552   0.43329   0.80506   0.00000  Uiso   1.00
H261   H     0.23627   0.58415   0.79545   0.00000  Uiso   1.00
H262   H     0.22529   0.60228   0.92324   0.00000  Uiso   1.00
H263   H     0.16238   0.59340   0.67311   0.00000  Uiso   1.00
H264   H     0.32516   0.56623   0.78781   0.00000  Uiso   1.00
H265   H     0.70674   0.10749   0.06829   0.00000  Uiso   1.00
H266   H     0.07411   0.58877   0.54085   0.00000  Uiso   1.00
H267   H     0.41736   0.53147   0.78273   0.00000  Uiso   1.00
O268   O     0.17769   0.56825   0.16398   0.00000  Uiso   1.00
O269   O     0.00370   0.54369   0.47200   0.00000  Uiso   1.00
O270   O     0.45403   0.46852   0.78934   0.00000  Uiso   1.00
N271   N     0.17626   0.52992   0.06783   0.00000  Uiso   1.00
N272   N     0.05226   0.51242   0.57472   0.00000  Uiso   1.00
N273   N     0.37316   0.45886   0.80083   0.00000  Uiso   1.00
N274   N     0.69878   0.08275   0.05582   0.00000  Uiso   1.00
N275   N     0.07478   0.56525   0.56270   0.00000  Uiso   1.00
N276   N     0.39568   0.51169   0.78882   0.00000  Uiso   1.00
C277   C     0.84266   0.17978   0.50726   0.00000  Uiso   1.00
C278   C     0.81307   0.16554   0.43068   0.00000  Uiso   1.00
C279   C     0.80917   0.18059   0.36192   0.00000  Uiso   1.00
C280   C     0.78032   0.16353   0.29827   0.00000  Uiso   1.00
C281   C     0.73801   0.14614   0.17859   0.00000  Uiso   1.00
C282   C     0.80454   0.18278   0.55172   0.00000  Uiso   1.00
C283   C     0.79349   0.21234   0.58472   0.00000  Uiso   1.00
C284   C     0.75746   0.20980   0.62297   0.00000  Uiso   1.00
C285   C     0.20195   0.71918   0.69125   0.00000  Uiso   1.00
C286   C     0.87999   0.15192   0.54573   0.00000  Uiso   1.00
C287   C     0.93237   0.15553   0.57372   0.00000  Uiso   1.00
C288   C     0.95987   0.12701   0.60694   0.00000  Uiso   1.00
C289   C     0.02150   0.08847   0.66593   0.00000  Uiso   1.00
C290   C     0.79834   0.12273   0.51651   0.00000  Uiso   1.00
C291   C     0.78899   0.13455   0.43571   0.00000  Uiso   1.00
C292   C     0.76014   0.11747   0.37215   0.00000  Uiso   1.00
C293   C     0.75620   0.13249   0.30330   0.00000  Uiso   1.00
C294   C     0.78047   0.15180   0.55674   0.00000  Uiso   1.00
C295   C     0.74445   0.14921   0.59495   0.00000  Uiso   1.00
C296   C     0.73335   0.17875   0.62800   0.00000  Uiso   1.00
C297   C     0.85592   0.12093   0.55075   0.00000  Uiso   1.00
C298   C     0.88334   0.09241   0.58395   0.00000  Uiso   1.00
C299   C     0.93575   0.09597   0.61198   0.00000  Uiso   1.00
H300   H     0.86140   0.20391   0.50336   0.00000  Uiso   1.00
H301   H     0.82781   0.20457   0.35805   0.00000  Uiso   1.00
H302   H     0.81213   0.23631   0.58083   0.00000  Uiso   1.00
H303   H     0.95099   0.17951   0.56982   0.00000  Uiso   1.00
H304   H     0.77993   0.19165   0.19917   0.00000  Uiso   1.00
H305   H     0.24689   0.75857   0.66893   0.00000  Uiso   1.00
H306   H     0.03970   0.13880   0.64573   0.00000  Uiso   1.00
H307   H     0.77959   0.09860   0.52043   0.00000  Uiso   1.00
H308   H     0.74151   0.09349   0.37605   0.00000  Uiso   1.00
H309   H     0.72583   0.12523   0.59883   0.00000  Uiso   1.00
H310   H     0.86469   0.06843   0.58783   0.00000  Uiso   1.00
H311   H     0.70989   0.10149   0.21378   0.00000  Uiso   1.00
H312   H     0.17685   0.66842   0.68355   0.00000  Uiso   1.00
H313   H     0.96966   0.04864   0.66034   0.00000  Uiso   1.00
O314   O     0.72132   0.14511   0.11120   0.00000  Uiso   1.00
O315   O     0.17798   0.73291   0.72752   0.00000  Uiso   1.00
O316   O     0.06214   0.07577   0.69707   0.00000  Uiso   1.00
N317   N     0.76868   0.17113   0.22242   0.00000  Uiso   1.00
N318   N     0.23778   0.73370   0.66161   0.00000  Uiso   1.00
N319   N     0.01154   0.12173   0.63993   0.00000  Uiso   1.00
N320   N     0.73099   0.12261   0.23028   0.00000  Uiso   1.00
N321   N     0.20009   0.68519   0.66947   0.00000  Uiso   1.00
N322   N     0.97385   0.07321   0.64779   0.00000  Uiso   1.00
C323   C     0.82246   0.85419   0.42944   0.00000  Uiso   1.00
C324   C     0.85700   0.83544   0.39217   0.00000  Uiso   1.00
C325   C     0.84799   0.83123   0.31550   0.00000  Uiso   1.00
C326   C     0.88420   0.81327   0.29262   0.00000  Uiso   1.00
C327   C     0.43119   0.28616   0.22683   0.00000  Uiso   1.00
C328   C     0.81017   0.82870   0.48325   0.00000  Uiso   1.00
C329   C     0.76178   0.81882   0.48316   0.00000  Uiso   1.00
C330   C     0.75857   0.79519   0.53696   0.00000  Uiso   1.00
C331   C     0.23284   0.25762   0.61261   0.00000  Uiso   1.00
C332   C     0.85526   0.88171   0.47849   0.00000  Uiso   1.00
C333   C     0.84477   0.91641   0.47443   0.00000  Uiso   1.00
C334   C     0.87952   0.93741   0.52423   0.00000  Uiso   1.00
C335   C     0.92380   0.98216   0.59250   0.00000  Uiso   1.00
C336   C     0.90280   0.82979   0.52514   0.00000  Uiso   1.00
C337   C     0.90064   0.82218   0.44415   0.00000  Uiso   1.00
C338   C     0.93688   0.80423   0.42138   0.00000  Uiso   1.00
C339   C     0.92792   0.79999   0.34469   0.00000  Uiso   1.00
C340   C     0.85381   0.81544   0.53522   0.00000  Uiso   1.00
C341   C     0.85067   0.79182   0.58904   0.00000  Uiso   1.00
C342   C     0.80228   0.78191   0.58903   0.00000  Uiso   1.00
C343   C     0.89890   0.86846   0.53047   0.00000  Uiso   1.00
C344   C     0.93366   0.88941   0.58030   0.00000  Uiso   1.00
C345   C     0.92323   0.92413   0.57631   0.00000  Uiso   1.00
H346   H     0.78849   0.86451   0.38898   0.00000  Uiso   1.00
H347   H     0.81421   0.84149   0.27529   0.00000  Uiso   1.00
H348   H     0.72802   0.82908   0.44293   0.00000  Uiso   1.00
H349   H     0.81100   0.92666   0.43420   0.00000  Uiso   1.00
H350   H     0.86197   0.81011   0.17217   0.00000  Uiso   1.00
H351   H     0.68022   0.78396   0.52567   0.00000  Uiso   1.00
H352   H     0.85521   0.98972   0.50725   0.00000  Uiso   1.00
H353   H     0.93677   0.81947   0.56561   0.00000  Uiso   1.00
H354   H     0.97064   0.79397   0.46161   0.00000  Uiso   1.00
H355   H     0.88444   0.78157   0.62926   0.00000  Uiso   1.00
H356   H     0.96743   0.87914   0.62052   0.00000  Uiso   1.00
H357   H     0.98893   0.77154   0.32340   0.00000  Uiso   1.00
H358   H     0.30718   0.24540   0.67690   0.00000  Uiso   1.00
H359   H     0.98217   0.95115   0.65847   0.00000  Uiso   1.00
O360   O     0.44505   0.27486   0.17619   0.00000  Uiso   1.00
O361   O     0.20660   0.24056   0.63997   0.00000  Uiso   1.00
O362   O     0.93618   0.01050   0.61580   0.00000  Uiso   1.00
N363   N     0.88721   0.80454   0.22204   0.00000  Uiso   1.00
N364   N     0.71728   0.78009   0.55253   0.00000  Uiso   1.00
N365   N     0.88087   0.97245   0.53532   0.00000  Uiso   1.00
N366   N     0.95553   0.78378   0.30341   0.00000  Uiso   1.00
N367   N     0.28560   0.25933   0.63390   0.00000  Uiso   1.00
N368   N     0.94919   0.95170   0.61669   0.00000  Uiso   1.00
C369   C     0.30140   0.99575   0.68444   0.00000  Uiso   1.00
C370   C     0.30205   0.01808   0.61785   0.00000  Uiso   1.00
C371   C     0.31514   0.00742   0.55517   0.00000  Uiso   1.00
C372   C     0.31334   0.03174   0.50036   0.00000  Uiso   1.00
C373   C     0.81656   0.56128   0.39581   0.00000  Uiso   1.00
C374   C     0.33623   0.01326   0.75375   0.00000  Uiso   1.00
C375   C     0.37806   0.99854   0.80534   0.00000  Uiso   1.00
C376   C     0.40503   0.01880   0.86494   0.00000  Uiso   1.00
C377   C     0.46129   0.04085   0.97140   0.00000  Uiso   1.00
C378   C     0.24779   0.99849   0.69142   0.00000  Uiso   1.00
C379   C     0.21525   0.97137   0.69062   0.00000  Uiso   1.00
C380   C     0.16777   0.97920   0.69776   0.00000  Uiso   1.00
C381   C     0.08671   0.97832   0.70745   0.00000  Uiso   1.00
C382   C     0.27492   0.05788   0.69857   0.00000  Uiso   1.00
C383   C     0.28767   0.05182   0.62553   0.00000  Uiso   1.00
C384   C     0.28585   0.07616   0.57080   0.00000  Uiso   1.00
C385   C     0.29893   0.06554   0.50805   0.00000  Uiso   1.00
C386   C     0.32185   0.04700   0.76143   0.00000  Uiso   1.00
C387   C     0.34876   0.06728   0.82097   0.00000  Uiso   1.00
C388   C     0.39062   0.05261   0.87263   0.00000  Uiso   1.00
C389   C     0.23340   0.03224   0.69909   0.00000  Uiso   1.00
C390   C     0.18596   0.04011   0.70625   0.00000  Uiso   1.00
C391   C     0.15336   0.01300   0.70545   0.00000  Uiso   1.00
H392   H     0.31260   0.96948   0.67847   0.00000  Uiso   1.00
H393   H     0.32627   0.98130   0.54925   0.00000  Uiso   1.00
H394   H     0.38918   0.97243   0.79939   0.00000  Uiso   1.00
H395   H     0.22640   0.94526   0.68468   0.00000  Uiso   1.00
H396   H     0.33511   0.00930   0.40939   0.00000  Uiso   1.00
H397   H     0.46773   0.99058   0.93682   0.00000  Uiso   1.00
H398   H     0.12448   0.93329   0.69494   0.00000  Uiso   1.00
H399   H     0.26373   0.08415   0.70455   0.00000  Uiso   1.00
H400   H     0.27471   0.10228   0.57676   0.00000  Uiso   1.00
H401   H     0.33762   0.09340   0.82689   0.00000  Uiso   1.00
H402   H     0.17484   0.06623   0.71219   0.00000  Uiso   1.00
H403   H     0.79326   0.60749   0.43171   0.00000  Uiso   1.00
H404   H     0.42589   0.08877   0.95915   0.00000  Uiso   1.00
H405   H     0.08264   0.03147   0.71727   0.00000  Uiso   1.00
O406   O     0.32231   0.06825   0.33602   0.00000  Uiso   1.00
O407   O     0.49630   0.04369   0.02800   0.00000  Uiso   1.00
O408   O     0.04597   0.96852   0.71066   0.00000  Uiso   1.00
N409   N     0.32374   0.02992   0.43217   0.00000  Uiso   1.00
N410   N     0.44774   0.01242   0.92528   0.00000  Uiso   1.00
N411   N     0.12684   0.95886   0.69917   0.00000  Uiso   1.00
N412   N     0.80122   0.58275   0.44418   0.00000  Uiso   1.00
N413   N     0.42522   0.06525   0.93730   0.00000  Uiso   1.00
N414   N     0.10432   0.01169   0.71118   0.00000  Uiso   1.00
C415   C     0.34266   0.67978   0.50726   0.00000  Uiso   1.00
C416   C     0.31307   0.66554   0.43068   0.00000  Uiso   1.00
C417   C     0.30917   0.68059   0.36192   0.00000  Uiso   1.00
C418   C     0.28032   0.66353   0.29827   0.00000  Uiso   1.00
C419   C     0.23801   0.64614   0.17859   0.00000  Uiso   1.00
C420   C     0.30454   0.68278   0.55172   0.00000  Uiso   1.00
C421   C     0.29349   0.71234   0.58472   0.00000  Uiso   1.00
C422   C     0.25746   0.70980   0.62297   0.00000  Uiso   1.00
C423   C     0.70195   0.21918   0.69125   0.00000  Uiso   1.00
C424   C     0.37999   0.65192   0.54573   0.00000  Uiso   1.00
C425   C     0.43237   0.65553   0.57372   0.00000  Uiso   1.00
C426   C     0.45987   0.62701   0.60694   0.00000  Uiso   1.00
C427   C     0.52150   0.58847   0.66593   0.00000  Uiso   1.00
C428   C     0.29834   0.62273   0.51651   0.00000  Uiso   1.00
C429   C     0.28899   0.63455   0.43571   0.00000  Uiso   1.00
C430   C     0.26014   0.61747   0.37215   0.00000  Uiso   1.00
C431   C     0.25620   0.63249   0.30330   0.00000  Uiso   1.00
C432   C     0.28047   0.65180   0.55674   0.00000  Uiso   1.00
C433   C     0.24445   0.64921   0.59495   0.00000  Uiso   1.00
C434   C     0.23335   0.67875   0.62800   0.00000  Uiso   1.00
C435   C     0.35592   0.62093   0.55075   0.00000  Uiso   1.00
C436   C     0.38334   0.59241   0.58395   0.00000  Uiso   1.00
C437   C     0.43575   0.59597   0.61198   0.00000  Uiso   1.00
H438   H     0.36140   0.70391   0.50336   0.00000  Uiso   1.00
H439   H     0.32781   0.70457   0.35805   0.00000  Uiso   1.00
H440   H     0.31213   0.73631   0.58083   0.00000  Uiso   1.00
H441   H     0.45099   0.67951   0.56982   0.00000  Uiso   1.00
H442   H     0.27993   0.69165   0.19917   0.00000  Uiso   1.00
H443   H     0.74689   0.25857   0.66893   0.00000  Uiso   1.00
H444   H     0.53970   0.63880   0.64573   0.00000  Uiso   1.00
H445   H     0.27959   0.59860   0.52043   0.00000  Uiso   1.00
H446   H     0.24151   0.59349   0.37605   0.00000  Uiso   1.00
H447   H     0.22583   0.62523   0.59883   0.00000  Uiso   1.00
H448   H     0.36469   0.56843   0.58783   0.00000  Uiso   1.00
H449   H     0.20989   0.60149   0.21378   0.00000  Uiso   1.00
H450   H     0.67685   0.16842   0.68355   0.00000  Uiso   1.00
H451   H     0.46966   0.54864   0.66034   0.00000  Uiso   1.00
O452   O     0.22132   0.64511   0.11120   0.00000  Uiso   1.00
O453   O     0.67798   0.23291   0.72752   0.00000  Uiso   1.00
O454   O     0.56214   0.57577   0.69707   0.00000  Uiso   1.00
N455   N     0.26868   0.67113   0.22242   0.00000  Uiso   1.00
N456   N     0.73778   0.23370   0.66161   0.00000  Uiso   1.00
N457   N     0.51154   0.62173   0.63993   0.00000  Uiso   1.00
N458   N     0.23099   0.62261   0.23028   0.00000  Uiso   1.00
N459   N     0.70009   0.18519   0.66947   0.00000  Uiso   1.00
N460   N     0.47385   0.57321   0.64779   0.00000  Uiso   1.00
C461   C     0.32246   0.35419   0.42944   0.00000  Uiso   1.00
C462   C     0.35700   0.33544   0.39217   0.00000  Uiso   1.00
C463   C     0.34799   0.33123   0.31550   0.00000  Uiso   1.00
C464   C     0.38420   0.31327   0.29262   0.00000  Uiso   1.00
C465   C     0.93119   0.78616   0.22683   0.00000  Uiso   1.00
C466   C     0.31017   0.32870   0.48325   0.00000  Uiso   1.00
C467   C     0.26178   0.31882   0.48316   0.00000  Uiso   1.00
C468   C     0.25857   0.29519   0.53696   0.00000  Uiso   1.00
C469   C     0.73284   0.75762   0.61261   0.00000  Uiso   1.00
C470   C     0.35526   0.38171   0.47849   0.00000  Uiso   1.00
C471   C     0.34477   0.41641   0.47443   0.00000  Uiso   1.00
C472   C     0.37952   0.43741   0.52423   0.00000  Uiso   1.00
C473   C     0.42380   0.48216   0.59250   0.00000  Uiso   1.00
C474   C     0.40280   0.32979   0.52514   0.00000  Uiso   1.00
C475   C     0.40064   0.32218   0.44415   0.00000  Uiso   1.00
C476   C     0.43688   0.30423   0.42138   0.00000  Uiso   1.00
C477   C     0.42792   0.29999   0.34469   0.00000  Uiso   1.00
C478   C     0.35381   0.31544   0.53522   0.00000  Uiso   1.00
C479   C     0.35067   0.29182   0.58904   0.00000  Uiso   1.00
C480   C     0.30228   0.28191   0.58903   0.00000  Uiso   1.00
C481   C     0.39890   0.36846   0.53047   0.00000  Uiso   1.00
C482   C     0.43366   0.38941   0.58030   0.00000  Uiso   1.00
C483   C     0.42323   0.42413   0.57631   0.00000  Uiso   1.00
H484   H     0.28849   0.36451   0.38898   0.00000  Uiso   1.00
H485   H     0.31421   0.34149   0.27529   0.00000  Uiso   1.00
H486   H     0.22802   0.32908   0.44293   0.00000  Uiso   1.00
H487   H     0.31100   0.42666   0.43420   0.00000  Uiso   1.00
H488   H     0.36197   0.31011   0.17217   0.00000  Uiso   1.00
H489   H     0.18022   0.28396   0.52567   0.00000  Uiso   1.00
H490   H     0.35521   0.48972   0.50725   0.00000  Uiso   1.00
H491   H     0.43677   0.31947   0.56561   0.00000  Uiso   1.00
H492   H     0.47064   0.29397   0.46161   0.00000  Uiso   1.00
H493   H     0.38444   0.28157   0.62926   0.00000  Uiso   1.00
H494   H     0.46743   0.37914   0.62052   0.00000  Uiso   1.00
H495   H     0.48893   0.27154   0.32340   0.00000  Uiso   1.00
H496   H     0.80718   0.74540   0.67690   0.00000  Uiso   1.00
H497   H     0.48217   0.45115   0.65847   0.00000  Uiso   1.00
O498   O     0.94505   0.77486   0.17619   0.00000  Uiso   1.00
O499   O     0.70660   0.74056   0.63997   0.00000  Uiso   1.00
O500   O     0.43618   0.51050   0.61580   0.00000  Uiso   1.00
N501   N     0.38721   0.30454   0.22204   0.00000  Uiso   1.00
N502   N     0.21728   0.28009   0.55253   0.00000  Uiso   1.00
N503   N     0.38087   0.47245   0.53532   0.00000  Uiso   1.00
N504   N     0.45553   0.28378   0.30341   0.00000  Uiso   1.00
N505   N     0.78560   0.75933   0.63390   0.00000  Uiso   1.00
N506   N     0.44919   0.45170   0.61669   0.00000  Uiso   1.00
C507   C     0.80140   0.49575   0.68444   0.00000  Uiso   1.00
C508   C     0.80205   0.51808   0.61785   0.00000  Uiso   1.00
C509   C     0.81514   0.50742   0.55517   0.00000  Uiso   1.00
C510   C     0.81334   0.53174   0.50036   0.00000  Uiso   1.00
C511   C     0.31656   0.06128   0.39581   0.00000  Uiso   1.00
C512   C     0.83623   0.51326   0.75375   0.00000  Uiso   1.00
C513   C     0.87806   0.49854   0.80534   0.00000  Uiso   1.00
C514   C     0.90503   0.51880   0.86494   0.00000  Uiso   1.00
C515   C     0.96129   0.54085   0.97140   0.00000  Uiso   1.00
C516   C     0.74779   0.49849   0.69142   0.00000  Uiso   1.00
C517   C     0.71525   0.47137   0.69062   0.00000  Uiso   1.00
C518   C     0.66777   0.47920   0.69776   0.00000  Uiso   1.00
C519   C     0.58671   0.47832   0.70745   0.00000  Uiso   1.00
C520   C     0.77492   0.55788   0.69857   0.00000  Uiso   1.00
C521   C     0.78767   0.55182   0.62553   0.00000  Uiso   1.00
C522   C     0.78585   0.57616   0.57080   0.00000  Uiso   1.00
C523   C     0.79893   0.56554   0.50805   0.00000  Uiso   1.00
C524   C     0.82185   0.54700   0.76143   0.00000  Uiso   1.00
C525   C     0.84876   0.56728   0.82097   0.00000  Uiso   1.00
C526   C     0.89062   0.55261   0.87263   0.00000  Uiso   1.00
C527   C     0.73340   0.53224   0.69909   0.00000  Uiso   1.00
C528   C     0.68596   0.54011   0.70625   0.00000  Uiso   1.00
C529   C     0.65336   0.51300   0.70545   0.00000  Uiso   1.00
H530   H     0.81260   0.46948   0.67847   0.00000  Uiso   1.00
H531   H     0.82627   0.48130   0.54925   0.00000  Uiso   1.00
H532   H     0.88918   0.47243   0.79939   0.00000  Uiso   1.00
H533   H     0.72640   0.44526   0.68468   0.00000  Uiso   1.00
H534   H     0.83511   0.50930   0.40939   0.00000  Uiso   1.00
H535   H     0.96773   0.49058   0.93682   0.00000  Uiso   1.00
H536   H     0.62448   0.43329   0.69494   0.00000  Uiso   1.00
H537   H     0.76373   0.58415   0.70455   0.00000  Uiso   1.00
H538   H     0.77471   0.60228   0.57676   0.00000  Uiso   1.00
H539   H     0.83762   0.59340   0.82689   0.00000  Uiso   1.00
H540   H     0.67484   0.56623   0.71219   0.00000  Uiso   1.00
H541   H     0.29326   0.10749   0.43171   0.00000  Uiso   1.00
H542   H     0.92589   0.58877   0.95915   0.00000  Uiso   1.00
H543   H     0.58264   0.53147   0.71727   0.00000  Uiso   1.00
O544   O     0.82231   0.56825   0.33602   0.00000  Uiso   1.00
O545   O     0.99630   0.54369   0.02800   0.00000  Uiso   1.00
O546   O     0.54597   0.46852   0.71066   0.00000  Uiso   1.00
N547   N     0.82374   0.52992   0.43217   0.00000  Uiso   1.00
N548   N     0.94774   0.51242   0.92528   0.00000  Uiso   1.00
N549   N     0.62684   0.45886   0.69917   0.00000  Uiso   1.00
N550   N     0.30122   0.08275   0.44418   0.00000  Uiso   1.00
N551   N     0.92522   0.56525   0.93730   0.00000  Uiso   1.00
N552   N     0.60432   0.51169   0.71118   0.00000  Uiso   1.00
C553   C     0.84266   0.82022   0.00726   0.00000  Uiso   1.00
C554   C     0.81307   0.83446   0.93068   0.00000  Uiso   1.00
C555   C     0.80917   0.81941   0.86192   0.00000  Uiso   1.00
C556   C     0.78032   0.83647   0.79827   0.00000  Uiso   1.00
C557   C     0.73801   0.85386   0.67859   0.00000  Uiso   1.00
C558   C     0.80454   0.81722   0.05172   0.00000  Uiso   1.00
C559   C     0.79349   0.78766   0.08472   0.00000  Uiso   1.00
C560   C     0.75746   0.79020   0.12297   0.00000  Uiso   1.00
C561   C     0.20195   0.28082   0.19125   0.00000  Uiso   1.00
C562   C     0.87999   0.84808   0.04573   0.00000  Uiso   1.00
C563   C     0.93237   0.84447   0.07372   0.00000  Uiso   1.00
C564   C     0.95987   0.87299   0.10694   0.00000  Uiso   1.00
C565   C     0.02150   0.91153   0.16593   0.00000  Uiso   1.00
C566   C     0.79834   0.87727   0.01651   0.00000  Uiso   1.00
C567   C     0.78899   0.86545   0.93571   0.00000  Uiso   1.00
C568   C     0.76014   0.88253   0.87215   0.00000  Uiso   1.00
C569   C     0.75620   0.86751   0.80330   0.00000  Uiso   1.00
C570   C     0.78047   0.84820   0.05674   0.00000  Uiso   1.00
C571   C     0.74445   0.85079   0.09495   0.00000  Uiso   1.00
C572   C     0.73335   0.82125   0.12800   0.00000  Uiso   1.00
C573   C     0.85592   0.87907   0.05075   0.00000  Uiso   1.00
C574   C     0.88334   0.90759   0.08395   0.00000  Uiso   1.00
C575   C     0.93575   0.90403   0.11198   0.00000  Uiso   1.00
H576   H     0.86140   0.79609   0.00336   0.00000  Uiso   1.00
H577   H     0.82781   0.79543   0.85805   0.00000  Uiso   1.00
H578   H     0.81213   0.76369   0.08083   0.00000  Uiso   1.00
H579   H     0.95099   0.82049   0.06982   0.00000  Uiso   1.00
H580   H     0.77993   0.80835   0.69917   0.00000  Uiso   1.00
H581   H     0.24689   0.24143   0.16893   0.00000  Uiso   1.00
H582   H     0.03970   0.86120   0.14573   0.00000  Uiso   1.00
H583   H     0.77959   0.90140   0.02043   0.00000  Uiso   1.00
H584   H     0.74151   0.90651   0.87605   0.00000  Uiso   1.00
H585   H     0.72583   0.87477   0.09883   0.00000  Uiso   1.00
H586   H     0.86469   0.93157   0.08783   0.00000  Uiso   1.00
H587   H     0.70989   0.89851   0.71378   0.00000  Uiso   1.00
H588   H     0.17685   0.33158   0.18355   0.00000  Uiso   1.00
H589   H     0.96966   0.95136   0.16034   0.00000  Uiso   1.00
O590   O     0.72132   0.85489   0.61120   0.00000  Uiso   1.00
O591   O     0.17798   0.26709   0.22752   0.00000  Uiso   1.00
O592   O     0.06214   0.92423   0.19707   0.00000  Uiso   1.00
N593   N     0.76868   0.82887   0.72242   0.00000  Uiso   1.00
N594   N     0.23778   0.26630   0.16161   0.00000  Uiso   1.00
N595   N     0.01154   0.87827   0.13993   0.00000  Uiso   1.00
N596   N     0.73099   0.87739   0.73028   0.00000  Uiso   1.00
N597   N     0.20009   0.31481   0.16947   0.00000  Uiso   1.00
N598   N     0.97385   0.92679   0.14779   0.00000  Uiso   1.00
C599   C     0.82246   0.14581   0.92944   0.00000  Uiso   1.00
C600   C     0.85700   0.16456   0.89217   0.00000  Uiso   1.00
C601   C     0.84799   0.16877   0.81550   0.00000  Uiso   1.00
C602   C     0.88420   0.18673   0.79262   0.00000  Uiso   1.00
C603   C     0.43119   0.71384   0.72683   0.00000  Uiso   1.00
C604   C     0.81017   0.17130   0.98325   0.00000  Uiso   1.00
C605   C     0.76178   0.18118   0.98316   0.00000  Uiso   1.00
C606   C     0.75857   0.20481   0.03696   0.00000  Uiso   1.00
C607   C     0.23284   0.74238   0.11261   0.00000  Uiso   1.00
C608   C     0.85526   0.11829   0.97849   0.00000  Uiso   1.00
C609   C     0.84477   0.08359   0.97443   0.00000  Uiso   1.00
C610   C     0.87952   0.06259   0.02423   0.00000  Uiso   1.00
C611   C     0.92380   0.01784   0.09250   0.00000  Uiso   1.00
C612   C     0.90280   0.17021   0.02514   0.00000  Uiso   1.00
C613   C     0.90064   0.17782   0.94415   0.00000  Uiso   1.00
C614   C     0.93688   0.19577   0.92138   0.00000  Uiso   1.00
C615   C     0.92792   0.20001   0.84469   0.00000  Uiso   1.00
C616   C     0.85381   0.18456   0.03522   0.00000  Uiso   1.00
C617   C     0.85067   0.20818   0.08904   0.00000  Uiso   1.00
C618   C     0.80228   0.21809   0.08903   0.00000  Uiso   1.00
C619   C     0.89890   0.13154   0.03047   0.00000  Uiso   1.00
C620   C     0.93366   0.11059   0.08030   0.00000  Uiso   1.00
C621   C     0.92323   0.07587   0.07631   0.00000  Uiso   1.00
H622   H     0.78849   0.13549   0.88898   0.00000  Uiso   1.00
H623   H     0.81421   0.15851   0.77529   0.00000  Uiso   1.00
H624   H     0.72802   0.17092   0.94293   0.00000  Uiso   1.00
H625   H     0.81100   0.07334   0.93420   0.00000  Uiso   1.00
H626   H     0.86197   0.18989   0.67217   0.00000  Uiso   1.00
H627   H     0.68022   0.21604   0.02567   0.00000  Uiso   1.00
H628   H     0.85521   0.01028   0.00725   0.00000  Uiso   1.00
H629   H     0.93677   0.18053   0.06561   0.00000  Uiso   1.00
H630   H     0.97064   0.20603   0.96161   0.00000  Uiso   1.00
H631   H     0.88444   0.21843   0.12926   0.00000  Uiso   1.00
H632   H     0.96743   0.12086   0.12052   0.00000  Uiso   1.00
H633   H     0.98893   0.22846   0.82340   0.00000  Uiso   1.00
H634   H     0.30718   0.75460   0.17690   0.00000  Uiso   1.00
H635   H     0.98217   0.04885   0.15847   0.00000  Uiso   1.00
O636   O     0.44505   0.72514   0.67619   0.00000  Uiso   1.00
O637   O     0.20660   0.75944   0.13997   0.00000  Uiso   1.00
O638   O     0.93618   0.98950   0.11580   0.00000  Uiso   1.00
N639   N     0.88721   0.19546   0.72204   0.00000  Uiso   1.00
N640   N     0.71728   0.21991   0.05253   0.00000  Uiso   1.00
N641   N     0.88087   0.02755   0.03532   0.00000  Uiso   1.00
N642   N     0.95553   0.21622   0.80341   0.00000  Uiso   1.00
N643   N     0.28560   0.74067   0.13390   0.00000  Uiso   1.00
N644   N     0.94919   0.04830   0.11669   0.00000  Uiso   1.00
C645   C     0.30140   0.00425   0.18444   0.00000  Uiso   1.00
C646   C     0.30205   0.98192   0.11785   0.00000  Uiso   1.00
C647   C     0.31514   0.99258   0.05517   0.00000  Uiso   1.00
C648   C     0.31334   0.96826   0.00036   0.00000  Uiso   1.00
C649   C     0.81656   0.43872   0.89581   0.00000  Uiso   1.00
C650   C     0.33623   0.98674   0.25375   0.00000  Uiso   1.00
C651   C     0.37806   0.00146   0.30534   0.00000  Uiso   1.00
C652   C     0.40503   0.98120   0.36494   0.00000  Uiso   1.00
C653   C     0.46129   0.95915   0.47140   0.00000  Uiso   1.00
C654   C     0.24779   0.00151   0.19142   0.00000  Uiso   1.00
C655   C     0.21525   0.02863   0.19062   0.00000  Uiso   1.00
C656   C     0.16777   0.02080   0.19776   0.00000  Uiso   1.00
C657   C     0.08671   0.02168   0.20745   0.00000  Uiso   1.00
C658   C     0.27492   0.94212   0.19857   0.00000  Uiso   1.00
C659   C     0.28767   0.94818   0.12553   0.00000  Uiso   1.00
C660   C     0.28585   0.92384   0.07080   0.00000  Uiso   1.00
C661   C     0.29893   0.93446   0.00805   0.00000  Uiso   1.00
C662   C     0.32185   0.95300   0.26143   0.00000  Uiso   1.00
C663   C     0.34876   0.93272   0.32097   0.00000  Uiso   1.00
C664   C     0.39062   0.94739   0.37263   0.00000  Uiso   1.00
C665   C     0.23340   0.96776   0.19909   0.00000  Uiso   1.00
C666   C     0.18596   0.95989   0.20625   0.00000  Uiso   1.00
C667   C     0.15336   0.98700   0.20545   0.00000  Uiso   1.00
H668   H     0.31260   0.03052   0.17847   0.00000  Uiso   1.00
H669   H     0.32627   0.01870   0.04925   0.00000  Uiso   1.00
H670   H     0.38918   0.02757   0.29939   0.00000  Uiso   1.00
H671   H     0.22640   0.05474   0.18468   0.00000  Uiso   1.00
H672   H     0.33511   0.99070   0.90939   0.00000  Uiso   1.00
H673   H     0.46773   0.00942   0.43682   0.00000  Uiso   1.00
H674   H     0.12448   0.06671   0.19494   0.00000  Uiso   1.00
H675   H     0.26373   0.91585   0.20455   0.00000  Uiso   1.00
H676   H     0.27471   0.89772   0.07676   0.00000  Uiso   1.00
H677   H     0.33762   0.90660   0.32689   0.00000  Uiso   1.00
H678   H     0.17484   0.93377   0.21219   0.00000  Uiso   1.00
H679   H     0.79326   0.39251   0.93171   0.00000  Uiso   1.00
H680   H     0.42589   0.91123   0.45915   0.00000  Uiso   1.00
H681   H     0.08264   0.96853   0.21727   0.00000  Uiso   1.00
O682   O     0.32231   0.93175   0.83602   0.00000  Uiso   1.00
O683   O     0.49630   0.95631   0.52800   0.00000  Uiso   1.00
O684   O     0.04597   0.03148   0.21066   0.00000  Uiso   1.00
N685   N     0.32374   0.97008   0.93217   0.00000  Uiso   1.00
N686   N     0.44774   0.98758   0.42528   0.00000  Uiso   1.00
N687   N     0.12684   0.04114   0.19917   0.00000  Uiso   1.00
N688   N     0.80122   0.41725   0.94418   0.00000  Uiso   1.00
N689   N     0.42522   0.93475   0.43730   0.00000  Uiso   1.00
N690   N     0.10432   0.98831   0.21118   0.00000  Uiso   1.00
C691   C     0.34266   0.32022   0.00726   0.00000  Uiso   1.00
C692   C     0.31307   0.33446   0.93068   0.00000  Uiso   1.00
C693   C     0.30917   0.31941   0.86192   0.00000  Uiso   1.00
C694   C     0.28032   0.33647   0.79827   0.00000  Uiso   1.00
C695   C     0.23801   0.35386   0.67859   0.00000  Uiso   1.00
C696   C     0.30454   0.31722   0.05172   0.00000  Uiso   1.00
C697   C     0.29349   0.28766   0.08472   0.00000  Uiso   1.00
C698   C     0.25746   0.29020   0.12297   0.00000  Uiso   1.00
C699   C     0.70195   0.78082   0.19125   0.00000  Uiso   1.00
C700   C     0.37999   0.34808   0.04573   0.00000  Uiso   1.00
C701   C     0.43237   0.34447   0.07372   0.00000  Uiso   1.00
C702   C     0.45987   0.37299   0.10694   0.00000  Uiso   1.00
C703   C     0.52150   0.41153   0.16593   0.00000  Uiso   1.00
C704   C     0.29834   0.37727   0.01651   0.00000  Uiso   1.00
C705   C     0.28899   0.36545   0.93571   0.00000  Uiso   1.00
C706   C     0.26014   0.38253   0.87215   0.00000  Uiso   1.00
C707   C     0.25620   0.36751   0.80330   0.00000  Uiso   1.00
C708   C     0.28047   0.34820   0.05674   0.00000  Uiso   1.00
C709   C     0.24445   0.35079   0.09495   0.00000  Uiso   1.00
C710   C     0.23335   0.32125   0.12800   0.00000  Uiso   1.00
C711   C     0.35592   0.37907   0.05075   0.00000  Uiso   1.00
C712   C     0.38334   0.40759   0.08395   0.00000  Uiso   1.00
C713   C     0.43575   0.40403   0.11198   0.00000  Uiso   1.00
H714   H     0.36140   0.29609   0.00336   0.00000  Uiso   1.00
H715   H     0.32781   0.29543   0.85805   0.00000  Uiso   1.00
H716   H     0.31213   0.26369   0.08083   0.00000  Uiso   1.00
H717   H     0.45099   0.32049   0.06982   0.00000  Uiso   1.00
H718   H     0.27993   0.30835   0.69917   0.00000  Uiso   1.00
H719   H     0.74689   0.74143   0.16893   0.00000  Uiso   1.00
H720   H     0.53970   0.36120   0.14573   0.00000  Uiso   1.00
H721   H     0.27959   0.40140   0.02043   0.00000  Uiso   1.00
H722   H     0.24151   0.40651   0.87605   0.00000  Uiso   1.00
H723   H     0.22583   0.37477   0.09883   0.00000  Uiso   1.00
H724   H     0.36469   0.43157   0.08783   0.00000  Uiso   1.00
H725   H     0.20989   0.39851   0.71378   0.00000  Uiso   1.00
H726   H     0.67685   0.83158   0.18355   0.00000  Uiso   1.00
H727   H     0.46966   0.45136   0.16034   0.00000  Uiso   1.00
O728   O     0.22132   0.35489   0.61120   0.00000  Uiso   1.00
O729   O     0.67798   0.76709   0.22752   0.00000  Uiso   1.00
O730   O     0.56214   0.42423   0.19707   0.00000  Uiso   1.00
N731   N     0.26868   0.32887   0.72242   0.00000  Uiso   1.00
N732   N     0.73778   0.76630   0.16161   0.00000  Uiso   1.00
N733   N     0.51154   0.37827   0.13993   0.00000  Uiso   1.00
N734   N     0.23099   0.37739   0.73028   0.00000  Uiso   1.00
N735   N     0.70009   0.81481   0.16947   0.00000  Uiso   1.00
N736   N     0.47385   0.42679   0.14779   0.00000  Uiso   1.00
C737   C     0.32246   0.64581   0.92944   0.00000  Uiso   1.00
C738   C     0.35700   0.66456   0.89217   0.00000  Uiso   1.00
C739   C     0.34799   0.66877   0.81550   0.00000  Uiso   1.00
C740   C     0.38420   0.68673   0.79262   0.00000  Uiso   1.00
C741   C     0.93119   0.21384   0.72683   0.00000  Uiso   1.00
C742   C     0.31017   0.67130   0.98325   0.00000  Uiso   1.00
C743   C     0.26178   0.68118   0.98316   0.00000  Uiso   1.00
C744   C     0.25857   0.70481   0.03696   0.00000  Uiso   1.00
C745   C     0.73284   0.24238   0.11261   0.00000  Uiso   1.00
C746   C     0.35526   0.61829   0.97849   0.00000  Uiso   1.00
C747   C     0.34477   0.58359   0.97443   0.00000  Uiso   1.00
C748   C     0.37952   0.56259   0.02423   0.00000  Uiso   1.00
C749   C     0.42380   0.51784   0.09250   0.00000  Uiso   1.00
C750   C     0.40280   0.67021   0.02514   0.00000  Uiso   1.00
C751   C     0.40064   0.67782   0.94415   0.00000  Uiso   1.00
C752   C     0.43688   0.69577   0.92138   0.00000  Uiso   1.00
C753   C     0.42792   0.70001   0.84469   0.00000  Uiso   1.00
C754   C     0.35381   0.68456   0.03522   0.00000  Uiso   1.00
C755   C     0.35067   0.70818   0.08904   0.00000  Uiso   1.00
C756   C     0.30228   0.71809   0.08903   0.00000  Uiso   1.00
C757   C     0.39890   0.63154   0.03047   0.00000  Uiso   1.00
C758   C     0.43366   0.61059   0.08030   0.00000  Uiso   1.00
C759   C     0.42323   0.57587   0.07631   0.00000  Uiso   1.00
H760   H     0.28849   0.63549   0.88898   0.00000  Uiso   1.00
H761   H     0.31421   0.65851   0.77529   0.00000  Uiso   1.00
H762   H     0.22802   0.67092   0.94293   0.00000  Uiso   1.00
H763   H     0.31100   0.57334   0.93420   0.00000  Uiso   1.00
H764   H     0.36197   0.68989   0.67217   0.00000  Uiso   1.00
H765   H     0.18022   0.71604   0.02567   0.00000  Uiso   1.00
H766   H     0.35521   0.51028   0.00725   0.00000  Uiso   1.00
H767   H     0.43677   0.68053   0.06561   0.00000  Uiso   1.00
H768   H     0.47064   0.70603   0.96161   0.00000  Uiso   1.00
H769   H     0.38444   0.71843   0.12926   0.00000  Uiso   1.00
H770   H     0.46743   0.62086   0.12052   0.00000  Uiso   1.00
H771   H     0.48893   0.72846   0.82340   0.00000  Uiso   1.00
H772   H     0.80718   0.25460   0.17690   0.00000  Uiso   1.00
H773   H     0.48217   0.54885   0.15847   0.00000  Uiso   1.00
O774   O     0.94505   0.22514   0.67619   0.00000  Uiso   1.00
O775   O     0.70660   0.25944   0.13997   0.00000  Uiso   1.00
O776   O     0.43618   0.48950   0.11580   0.00000  Uiso   1.00
N777   N     0.38721   0.69546   0.72204   0.00000  Uiso   1.00
N778   N     0.21728   0.71991   0.05253   0.00000  Uiso   1.00
N779   N     0.38087   0.52755   0.03532   0.00000  Uiso   1.00
N780   N     0.45553   0.71622   0.80341   0.00000  Uiso   1.00
N781   N     0.78560   0.24067   0.13390   0.00000  Uiso   1.00
N782   N     0.44919   0.54830   0.11669   0.00000  Uiso   1.00
C783   C     0.80140   0.50425   0.18444   0.00000  Uiso   1.00
C784   C     0.80205   0.48192   0.11785   0.00000  Uiso   1.00
C785   C     0.81514   0.49258   0.05517   0.00000  Uiso   1.00
C786   C     0.81334   0.46826   0.00036   0.00000  Uiso   1.00
C787   C     0.31656   0.93872   0.89581   0.00000  Uiso   1.00
C788   C     0.83623   0.48674   0.25375   0.00000  Uiso   1.00
C789   C     0.87806   0.50146   0.30534   0.00000  Uiso   1.00
C790   C     0.90503   0.48120   0.36494   0.00000  Uiso   1.00
C791   C     0.96129   0.45915   0.47140   0.00000  Uiso   1.00
C792   C     0.74779   0.50151   0.19142   0.00000  Uiso   1.00
C793   C     0.71525   0.52863   0.19062   0.00000  Uiso   1.00
C794   C     0.66777   0.52080   0.19776   0.00000  Uiso   1.00
C795   C     0.58671   0.52168   0.20745   0.00000  Uiso   1.00
C796   C     0.77492   0.44212   0.19857   0.00000  Uiso   1.00
C797   C     0.78767   0.44818   0.12553   0.00000  Uiso   1.00
C798   C     0.78585   0.42384   0.07080   0.00000  Uiso   1.00
C799   C     0.79893   0.43446   0.00805   0.00000  Uiso   1.00
C800   C     0.82185   0.45300   0.26143   0.00000  Uiso   1.00
C801   C     0.84876   0.43272   0.32097   0.00000  Uiso   1.00
C802   C     0.89062   0.44739   0.37263   0.00000  Uiso   1.00
C803   C     0.73340   0.46776   0.19909   0.00000  Uiso   1.00
C804   C     0.68596   0.45989   0.20625   0.00000  Uiso   1.00
C805   C     0.65336   0.48700   0.20545   0.00000  Uiso   1.00
H806   H     0.81260   0.53052   0.17847   0.00000  Uiso   1.00
H807   H     0.82627   0.51870   0.04925   0.00000  Uiso   1.00
H808   H     0.88918   0.52757   0.29939   0.00000  Uiso   1.00
H809   H     0.72640   0.55474   0.18468   0.00000  Uiso   1.00
H810   H     0.83511   0.49070   0.90939   0.00000  Uiso   1.00
H811   H     0.96773   0.50942   0.43682   0.00000  Uiso   1.00
H812   H     0.62448   0.56671   0.19494   0.00000  Uiso   1.00
H813   H     0.76373   0.41585   0.20455   0.00000  Uiso   1.00
H814   H     0.77471   0.39772   0.07676   0.00000  Uiso   1.00
H815   H     0.83762   0.40660   0.32689   0.00000  Uiso   1.00
H816   H     0.67484   0.43377   0.21219   0.00000  Uiso   1.00
H817   H     0.29326   0.89251   0.93171   0.00000  Uiso   1.00
H818   H     0.92589   0.41123   0.45915   0.00000  Uiso   1.00
H819   H     0.58264   0.46853   0.21727   0.00000  Uiso   1.00
O820   O     0.82231   0.43175   0.83602   0.00000  Uiso   1.00
O821   O     0.99630   0.45631   0.52800   0.00000  Uiso   1.00
O822   O     0.54597   0.53148   0.21066   0.00000  Uiso   1.00
N823   N     0.82374   0.47008   0.93217   0.00000  Uiso   1.00
N824   N     0.94774   0.48758   0.42528   0.00000  Uiso   1.00
N825   N     0.62684   0.54114   0.19917   0.00000  Uiso   1.00
N826   N     0.30122   0.91725   0.94418   0.00000  Uiso   1.00
N827   N     0.92522   0.43475   0.43730   0.00000  Uiso   1.00
N828   N     0.60432   0.48831   0.21118   0.00000  Uiso   1.00
C829   C     0.15734   0.82022   0.49274   0.00000  Uiso   1.00
C830   C     0.18693   0.83446   0.56932   0.00000  Uiso   1.00
C831   C     0.19083   0.81941   0.63808   0.00000  Uiso   1.00
C832   C     0.21968   0.83647   0.70173   0.00000  Uiso   1.00
C833   C     0.26199   0.85386   0.82141   0.00000  Uiso   1.00
C834   C     0.19546   0.81722   0.44828   0.00000  Uiso   1.00
C835   C     0.20651   0.78766   0.41528   0.00000  Uiso   1.00
C836   C     0.24254   0.79020   0.37703   0.00000  Uiso   1.00
C837   C     0.79805   0.28082   0.30875   0.00000  Uiso   1.00
C838   C     0.12001   0.84808   0.45427   0.00000  Uiso   1.00
C839   C     0.06763   0.84447   0.42628   0.00000  Uiso   1.00
C840   C     0.04013   0.87299   0.39306   0.00000  Uiso   1.00
C841   C     0.97850   0.91153   0.33407   0.00000  Uiso   1.00
C842   C     0.20166   0.87727   0.48349   0.00000  Uiso   1.00
C843   C     0.21101   0.86545   0.56429   0.00000  Uiso   1.00
C844   C     0.23986   0.88253   0.62785   0.00000  Uiso   1.00
C845   C     0.24380   0.86751   0.69670   0.00000  Uiso   1.00
C846   C     0.21953   0.84820   0.44326   0.00000  Uiso   1.00
C847   C     0.25555   0.85079   0.40505   0.00000  Uiso   1.00
C848   C     0.26665   0.82125   0.37200   0.00000  Uiso   1.00
C849   C     0.14408   0.87907   0.44925   0.00000  Uiso   1.00
C850   C     0.11666   0.90759   0.41605   0.00000  Uiso   1.00
C851   C     0.06425   0.90403   0.38802   0.00000  Uiso   1.00
H852   H     0.13860   0.79609   0.49664   0.00000  Uiso   1.00
H853   H     0.17219   0.79543   0.64195   0.00000  Uiso   1.00
H854   H     0.18787   0.76369   0.41917   0.00000  Uiso   1.00
H855   H     0.04901   0.82049   0.43018   0.00000  Uiso   1.00
H856   H     0.22007   0.80835   0.80083   0.00000  Uiso   1.00
H857   H     0.75311   0.24143   0.33107   0.00000  Uiso   1.00
H858   H     0.96030   0.86120   0.35427   0.00000  Uiso   1.00
H859   H     0.22041   0.90140   0.47957   0.00000  Uiso   1.00
H860   H     0.25849   0.90651   0.62395   0.00000  Uiso   1.00
H861   H     0.27417   0.87477   0.40117   0.00000  Uiso   1.00
H862   H     0.13531   0.93157   0.41217   0.00000  Uiso   1.00
H863   H     0.29011   0.89851   0.78622   0.00000  Uiso   1.00
H864   H     0.82315   0.33158   0.31645   0.00000  Uiso   1.00
H865   H     0.03034   0.95136   0.33966   0.00000  Uiso   1.00
O866   O     0.27868   0.85489   0.88880   0.00000  Uiso   1.00
O867   O     0.82202   0.26709   0.27248   0.00000  Uiso   1.00
O868   O     0.93786   0.92423   0.30293   0.00000  Uiso   1.00
N869   N     0.23132   0.82887   0.77758   0.00000  Uiso   1.00
N870   N     0.76222   0.26630   0.33839   0.00000  Uiso   1.00
N871   N     0.98846   0.87827   0.36007   0.00000  Uiso   1.00
N872   N     0.26901   0.87739   0.76972   0.00000  Uiso   1.00
N873   N     0.79991   0.31481   0.33053   0.00000  Uiso   1.00
N874   N     0.02615   0.92679   0.35221   0.00000  Uiso   1.00
C875   C     0.17754   0.14581   0.57056   0.00000  Uiso   1.00
C876   C     0.14300   0.16456   0.60783   0.00000  Uiso   1.00
C877   C     0.15201   0.16877   0.68450   0.00000  Uiso   1.00
C878   C     0.11580   0.18673   0.70738   0.00000  Uiso   1.00
C879   C     0.56881   0.71384   0.77317   0.00000  Uiso   1.00
C880   C     0.18983   0.17130   0.51675   0.00000  Uiso   1.00
C881   C     0.23822   0.18118   0.51684   0.00000  Uiso   1.00
C882   C     0.24143   0.20481   0.46304   0.00000  Uiso   1.00
C883   C     0.76716   0.74238   0.38739   0.00000  Uiso   1.00
C884   C     0.14474   0.11829   0.52151   0.00000  Uiso   1.00
C885   C     0.15523   0.08359   0.52557   0.00000  Uiso   1.00
C886   C     0.12048   0.06259   0.47577   0.00000  Uiso   1.00
C887   C     0.07620   0.01784   0.40750   0.00000  Uiso   1.00
C888   C     0.09720   0.17021   0.47486   0.00000  Uiso   1.00
C889   C     0.09936   0.17782   0.55585   0.00000  Uiso   1.00
C890   C     0.06312   0.19577   0.57862   0.00000  Uiso   1.00
C891   C     0.07208   0.20001   0.65531   0.00000  Uiso   1.00
C892   C     0.14619   0.18456   0.46478   0.00000  Uiso   1.00
C893   C     0.14933   0.20818   0.41096   0.00000  Uiso   1.00
C894   C     0.19772   0.21809   0.41097   0.00000  Uiso   1.00
C895   C     0.10110   0.13154   0.46953   0.00000  Uiso   1.00
C896   C     0.06634   0.11059   0.41970   0.00000  Uiso   1.00
C897   C     0.07677   0.07587   0.42369   0.00000  Uiso   1.00
H898   H     0.21151   0.13549   0.61102   0.00000  Uiso   1.00
H899   H     0.18579   0.15851   0.72471   0.00000  Uiso   1.00
H900   H     0.27198   0.17092   0.55707   0.00000  Uiso   1.00
H901   H     0.18900   0.07334   0.56580   0.00000  Uiso   1.00
H902   H     0.13803   0.18989   0.82783   0.00000  Uiso   1.00
H903   H     0.31978   0.21604   0.47433   0.00000  Uiso   1.00
H904   H     0.14479   0.01028   0.49275   0.00000  Uiso   1.00
H905   H     0.06323   0.18053   0.43439   0.00000  Uiso   1.00
H906   H     0.02936   0.20603   0.53839   0.00000  Uiso   1.00
H907   H     0.11556   0.21843   0.37074   0.00000  Uiso   1.00
H908   H     0.03257   0.12086   0.37948   0.00000  Uiso   1.00
H909   H     0.01107   0.22846   0.67660   0.00000  Uiso   1.00
H910   H     0.69282   0.75460   0.32310   0.00000  Uiso   1.00
H911   H     0.01783   0.04885   0.34153   0.00000  Uiso   1.00
O912   O     0.55495   0.72514   0.82381   0.00000  Uiso   1.00
O913   O     0.79340   0.75944   0.36003   0.00000  Uiso   1.00
O914   O     0.06382   0.98950   0.38420   0.00000  Uiso   1.00
N915   N     0.11279   0.19546   0.77796   0.00000  Uiso   1.00
N916   N     0.28272   0.21991   0.44747   0.00000  Uiso   1.00
N917   N     0.11913   0.02755   0.46468   0.00000  Uiso   1.00
N918   N     0.04447   0.21622   0.69659   0.00000  Uiso   1.00
N919   N     0.71440   0.74067   0.36610   0.00000  Uiso   1.00
N920   N     0.05081   0.04830   0.38331   0.00000  Uiso   1.00
C921   C     0.69860   0.00425   0.31556   0.00000  Uiso   1.00
C922   C     0.69795   0.98192   0.38215   0.00000  Uiso   1.00
C923   C     0.68486   0.99258   0.44483   0.00000  Uiso   1.00
C924   C     0.68666   0.96826   0.49964   0.00000  Uiso   1.00
C925   C     0.18344   0.43872   0.60419   0.00000  Uiso   1.00
C926   C     0.66377   0.98674   0.24625   0.00000  Uiso   1.00
C927   C     0.62194   0.00146   0.19466   0.00000  Uiso   1.00
C928   C     0.59497   0.98120   0.13506   0.00000  Uiso   1.00
C929   C     0.53871   0.95915   0.02860   0.00000  Uiso   1.00
C930   C     0.75221   0.00151   0.30858   0.00000  Uiso   1.00
C931   C     0.78475   0.02863   0.30938   0.00000  Uiso   1.00
C932   C     0.83223   0.02080   0.30224   0.00000  Uiso   1.00
C933   C     0.91329   0.02168   0.29255   0.00000  Uiso   1.00
C934   C     0.72508   0.94212   0.30143   0.00000  Uiso   1.00
C935   C     0.71233   0.94818   0.37447   0.00000  Uiso   1.00
C936   C     0.71415   0.92384   0.42920   0.00000  Uiso   1.00
C937   C     0.70107   0.93446   0.49195   0.00000  Uiso   1.00
C938   C     0.67815   0.95300   0.23857   0.00000  Uiso   1.00
C939   C     0.65124   0.93272   0.17903   0.00000  Uiso   1.00
C940   C     0.60938   0.94739   0.12737   0.00000  Uiso   1.00
C941   C     0.76660   0.96776   0.30091   0.00000  Uiso   1.00
C942   C     0.81404   0.95989   0.29375   0.00000  Uiso   1.00
C943   C     0.84664   0.98700   0.29455   0.00000  Uiso   1.00
H944   H     0.68740   0.03052   0.32153   0.00000  Uiso   1.00
H945   H     0.67373   0.01870   0.45075   0.00000  Uiso   1.00
H946   H     0.61082   0.02757   0.20061   0.00000  Uiso   1.00
H947   H     0.77360   0.05474   0.31532   0.00000  Uiso   1.00
H948   H     0.66489   0.99070   0.59061   0.00000  Uiso   1.00
H949   H     0.53227   0.00942   0.06318   0.00000  Uiso   1.00
H950   H     0.87552   0.06671   0.30506   0.00000  Uiso   1.00
H951   H     0.73627   0.91585   0.29545   0.00000  Uiso   1.00
H952   H     0.72529   0.89772   0.42324   0.00000  Uiso   1.00
H953   H     0.66238   0.90660   0.17311   0.00000  Uiso   1.00
H954   H     0.82516   0.93377   0.28781   0.00000  Uiso   1.00
H955   H     0.20674   0.39251   0.56829   0.00000  Uiso   1.00
H956   H     0.57411   0.91123   0.04085   0.00000  Uiso   1.00
H957   H     0.91736   0.96853   0.28273   0.00000  Uiso   1.00
O958   O     0.67769   0.93175   0.66398   0.00000  Uiso   1.00
O959   O     0.50370   0.95631   0.97200   0.00000  Uiso   1.00
O960   O     0.95403   0.03148   0.28934   0.00000  Uiso   1.00
N961   N     0.67626   0.97008   0.56783   0.00000  Uiso   1.00
N962   N     0.55226   0.98758   0.07472   0.00000  Uiso   1.00
N963   N     0.87316   0.04114   0.30083   0.00000  Uiso   1.00
N964   N     0.19878   0.41725   0.55582   0.00000  Uiso   1.00
N965   N     0.57478   0.93475   0.06270   0.00000  Uiso   1.00
N966   N     0.89568   0.98831   0.28882   0.00000  Uiso   1.00
C967   C     0.65734   0.32022   0.49274   0.00000  Uiso   1.00
C968   C     0.68693   0.33446   0.56932   0.00000  Uiso   1.00
C969   C     0.69083   0.31941   0.63808   0.00000  Uiso   1.00
C970   C     0.71968   0.33647   0.70173   0.00000  Uiso   1.00
C971   C     0.76199   0.35386   0.82141   0.00000  Uiso   1.00
C972   C     0.69546   0.31722   0.44828   0.00000  Uiso   1.00
C973   C     0.70651   0.28766   0.41528   0.00000  Uiso   1.00
C974   C     0.74254   0.29020   0.37703   0.00000  Uiso   1.00
C975   C     0.29805   0.78082   0.30875   0.00000  Uiso   1.00
C976   C     0.62001   0.34808   0.45427   0.00000  Uiso   1.00
C977   C     0.56763   0.34447   0.42628   0.00000  Uiso   1.00
C978   C     0.54013   0.37299   0.39306   0.00000  Uiso   1.00
C979   C     0.47850   0.41153   0.33407   0.00000  Uiso   1.00
C980   C     0.70166   0.37727   0.48349   0.00000  Uiso   1.00
C981   C     0.71101   0.36545   0.56429   0.00000  Uiso   1.00
C982   C     0.73986   0.38253   0.62785   0.00000  Uiso   1.00
C983   C     0.74380   0.36751   0.69670   0.00000  Uiso   1.00
C984   C     0.71953   0.34820   0.44326   0.00000  Uiso   1.00
C985   C     0.75555   0.35079   0.40505   0.00000  Uiso   1.00
C986   C     0.76665   0.32125   0.37200   0.00000  Uiso   1.00
C987   C     0.64408   0.37907   0.44925   0.00000  Uiso   1.00
C988   C     0.61666   0.40759   0.41605   0.00000  Uiso   1.00
C989   C     0.56425   0.40403   0.38802   0.00000  Uiso   1.00
H990   H     0.63860   0.29609   0.49664   0.00000  Uiso   1.00
H991   H     0.67219   0.29543   0.64195   0.00000  Uiso   1.00
H992   H     0.68787   0.26369   0.41917   0.00000  Uiso   1.00
H993   H     0.54901   0.32049   0.43018   0.00000  Uiso   1.00
H994   H     0.72007   0.30835   0.80083   0.00000  Uiso   1.00
H995   H     0.25311   0.74143   0.33107   0.00000  Uiso   1.00
H996   H     0.46030   0.36120   0.35427   0.00000  Uiso   1.00
H997   H     0.72041   0.40140   0.47957   0.00000  Uiso   1.00
H998   H     0.75849   0.40651   0.62395   0.00000  Uiso   1.00
H999   H     0.77417   0.37477   0.40117   0.00000  Uiso   1.00
H1000  H     0.63531   0.43157   0.41217   0.00000  Uiso   1.00
H1001  H     0.79011   0.39851   0.78622   0.00000  Uiso   1.00
H1002  H     0.32315   0.83158   0.31645   0.00000  Uiso   1.00
H1003  H     0.53034   0.45136   0.33966   0.00000  Uiso   1.00
O1004  O     0.77868   0.35489   0.88880   0.00000  Uiso   1.00
O1005  O     0.32202   0.76709   0.27248   0.00000  Uiso   1.00
O1006  O     0.43786   0.42423   0.30293   0.00000  Uiso   1.00
N1007  N     0.73132   0.32887   0.77758   0.00000  Uiso   1.00
N1008  N     0.26222   0.76630   0.33839   0.00000  Uiso   1.00
N1009  N     0.48846   0.37827   0.36007   0.00000  Uiso   1.00
N1010  N     0.76901   0.37739   0.76972   0.00000  Uiso   1.00
N1011  N     0.29991   0.81481   0.33053   0.00000  Uiso   1.00
N1012  N     0.52615   0.42679   0.35221   0.00000  Uiso   1.00
C1013  C     0.67754   0.64581   0.57056   0.00000  Uiso   1.00
C1014  C     0.64300   0.66456   0.60783   0.00000  Uiso   1.00
C1015  C     0.65201   0.66877   0.68450   0.00000  Uiso   1.00
C1016  C     0.61580   0.68673   0.70738   0.00000  Uiso   1.00
C1017  C     0.06881   0.21384   0.77317   0.00000  Uiso   1.00
C1018  C     0.68983   0.67130   0.51675   0.00000  Uiso   1.00
C1019  C     0.73822   0.68118   0.51684   0.00000  Uiso   1.00
C1020  C     0.74143   0.70481   0.46304   0.00000  Uiso   1.00
C1021  C     0.26716   0.24238   0.38739   0.00000  Uiso   1.00
C1022  C     0.64474   0.61829   0.52151   0.00000  Uiso   1.00
C1023  C     0.65523   0.58359   0.52557   0.00000  Uiso   1.00
C1024  C     0.62048   0.56259   0.47577   0.00000  Uiso   1.00
C1025  C     0.57620   0.51784   0.40750   0.00000  Uiso   1.00
C1026  C     0.59720   0.67021   0.47486   0.00000  Uiso   1.00
C1027  C     0.59936   0.67782   0.55585   0.00000  Uiso   1.00
C1028  C     0.56312   0.69577   0.57862   0.00000  Uiso   1.00
C1029  C     0.57208   0.70001   0.65531   0.00000  Uiso   1.00
C1030  C     0.64619   0.68456   0.46478   0.00000  Uiso   1.00
C1031  C     0.64933   0.70818   0.41096   0.00000  Uiso   1.00
C1032  C     0.69772   0.71809   0.41097   0.00000  Uiso   1.00
C1033  C     0.60110   0.63154   0.46953   0.00000  Uiso   1.00
C1034  C     0.56634   0.61059   0.41970   0.00000  Uiso   1.00
C1035  C     0.57677   0.57587   0.42369   0.00000  Uiso   1.00
H1036  H     0.71151   0.63549   0.61102   0.00000  Uiso   1.00
H1037  H     0.68579   0.65851   0.72471   0.00000  Uiso   1.00
H1038  H     0.77198   0.67092   0.55707   0.00000  Uiso   1.00
H1039  H     0.68900   0.57334   0.56580   0.00000  Uiso   1.00
H1040  H     0.63803   0.68989   0.82783   0.00000  Uiso   1.00
H1041  H     0.81978   0.71604   0.47433   0.00000  Uiso   1.00
H1042  H     0.64479   0.51028   0.49275   0.00000  Uiso   1.00
H1043  H     0.56323   0.68053   0.43439   0.00000  Uiso   1.00
H1044  H     0.52936   0.70603   0.53839   0.00000  Uiso   1.00
H1045  H     0.61556   0.71843   0.37074   0.00000  Uiso   1.00
H1046  H     0.53257   0.62086   0.37948   0.00000  Uiso   1.00
H1047  H     0.51107   0.72846   0.67660   0.00000  Uiso   1.00
H1048  H     0.19282   0.25460   0.32310   0.00000  Uiso   1.00
H1049  H     0.51783   0.54885   0.34153   0.00000  Uiso   1.00
O1050  O     0.05495   0.22514   0.82381   0.00000  Uiso   1.00
O1051  O     0.29340   0.25944   0.36003   0.00000  Uiso   1.00
O1052  O     0.56382   0.48950   0.38420   0.00000  Uiso   1.00
N1053  N     0.61279   0.69546   0.77796   0.00000  Uiso   1.00
N1054  N     0.78272   0.71991   0.44747   0.00000  Uiso   1.00
N1055  N     0.61913   0.52755   0.46468   0.00000  Uiso   1.00
N1056  N     0.54447   0.71622   0.69659   0.00000  Uiso   1.00
N1057  N     0.21440   0.24067   0.36610   0.00000  Uiso   1.00
N1058  N     0.55081   0.54830   0.38331   0.00000  Uiso   1.00
C1059  C     0.19860   0.50425   0.31556   0.00000  Uiso   1.00
C1060  C     0.19795   0.48192   0.38215   0.00000  Uiso   1.00
C1061  C     0.18486   0.49258   0.44483   0.00000  Uiso   1.00
C1062  C     0.18666   0.46826   0.49964   0.00000  Uiso   1.00
C1063  C     0.68344   0.93872   0.60419   0.00000  Uiso   1.00
C1064  C     0.16377   0.48674   0.24625   0.00000  Uiso   1.00
C1065  C     0.12194   0.50146   0.19466   0.00000  Uiso   1.00
C1066  C     0.09497   0.48120   0.13506   0.00000  Uiso   1.00
C1067  C     0.03871   0.45915   0.02860   0.00000  Uiso   1.00
C1068  C     0.25221   0.50151   0.30858   0.00000  Uiso   1.00
C1069  C     0.28475   0.52863   0.30938   0.00000  Uiso   1.00
C1070  C     0.33223   0.52080   0.30224   0.00000  Uiso   1.00
C1071  C     0.41329   0.52168   0.29255   0.00000  Uiso   1.00
C1072  C     0.22508   0.44212   0.30143   0.00000  Uiso   1.00
C1073  C     0.21233   0.44818   0.37447   0.00000  Uiso   1.00
C1074  C     0.21415   0.42384   0.42920   0.00000  Uiso   1.00
C1075  C     0.20107   0.43446   0.49195   0.00000  Uiso   1.00
C1076  C     0.17815   0.45300   0.23857   0.00000  Uiso   1.00
C1077  C     0.15124   0.43272   0.17903   0.00000  Uiso   1.00
C1078  C     0.10938   0.44739   0.12737   0.00000  Uiso   1.00
C1079  C     0.26660   0.46776   0.30091   0.00000  Uiso   1.00
C1080  C     0.31404   0.45989   0.29375   0.00000  Uiso   1.00
C1081  C     0.34664   0.48700   0.29455   0.00000  Uiso   1.00
H1082  H     0.18740   0.53052   0.32153   0.00000  Uiso   1.00
H1083  H     0.17373   0.51870   0.45075   0.00000  Uiso   1.00
H1084  H     0.11082   0.52757   0.20061   0.00000  Uiso   1.00
H1085  H     0.27360   0.55474   0.31532   0.00000  Uiso   1.00
H1086  H     0.16489   0.49070   0.59061   0.00000  Uiso   1.00
H1087  H     0.03227   0.50942   0.06318   0.00000  Uiso   1.00
H1088  H     0.37552   0.56671   0.30506   0.00000  Uiso   1.00
H1089  H     0.23627   0.41585   0.29545   0.00000  Uiso   1.00
H1090  H     0.22529   0.39772   0.42324   0.00000  Uiso   1.00
H1091  H     0.16238   0.40660   0.17311   0.00000  Uiso   1.00
H1092  H     0.32516   0.43377   0.28781   0.00000  Uiso   1.00
H1093  H     0.70674   0.89251   0.56829   0.00000  Uiso   1.00
H1094  H     0.07411   0.41123   0.04085   0.00000  Uiso   1.00
H1095  H     0.41736   0.46853   0.28273   0.00000  Uiso   1.00
O1096  O     0.17769   0.43175   0.66398   0.00000  Uiso   1.00
O1097  O     0.00370   0.45631   0.97200   0.00000  Uiso   1.00
O1098  O     0.45403   0.53148   0.28934   0.00000  Uiso   1.00
N1099  N     0.17626   0.47008   0.56783   0.00000  Uiso   1.00
N1100  N     0.05226   0.48758   0.07472   0.00000  Uiso   1.00
N1101  N     0.37316   0.54114   0.30083   0.00000  Uiso   1.00
N1102  N     0.69878   0.91725   0.55582   0.00000  Uiso   1.00
N1103  N     0.07478   0.43475   0.06270   0.00000  Uiso   1.00
N1104  N     0.39568   0.48831   0.28882   0.00000  Uiso   1.00
