data_job_04094
_audit_creation_date              2018-12-19
_audit_creation_method            'Materials Studio'
_symmetry_space_group_name_H-M    'P1'
_symmetry_Int_Tables_number       1
_symmetry_cell_setting            triclinic
loop_
_symmetry_equiv_pos_as_xyz
  x,y,z
_cell_length_a                    20.0895
_cell_length_b                    20.0895
_cell_length_c                    29.9950
_cell_angle_alpha                 90.0000
_cell_angle_beta                  90.0000
_cell_angle_gamma                 90.0000
loop_
_atom_site_label
_atom_site_type_symbol
_atom_site_fract_x
_atom_site_fract_y
_atom_site_fract_z
_atom_site_U_iso_or_equiv
_atom_site_adp_type
_atom_site_occupancy
C1     C     0.79089   0.85404   0.48376   0.00000  Uiso   1.00
C2     C     0.83476   0.83578   0.44411   0.00000  Uiso   1.00
C3     C     0.84703   0.87578   0.40729   0.00000  Uiso   1.00
C4     C     0.88856   0.85003   0.37456   0.00000  Uiso   1.00
C5     C     0.95235   0.83132   0.31238   0.00000  Uiso   1.00
C6     C     0.73873   0.79914   0.48722   0.00000  Uiso   1.00
C7     C     0.67026   0.80833   0.48665   0.00000  Uiso   1.00
C8     C     0.63096   0.75174   0.49021   0.00000  Uiso   1.00
C9     C     0.54566   0.67615   0.49499   0.00000  Uiso   1.00
C10    C     0.83478   0.84712   0.52498   0.00000  Uiso   1.00
C11    C     0.84706   0.89664   0.55617   0.00000  Uiso   1.00
C12    C     0.88861   0.88042   0.59153   0.00000  Uiso   1.00
C13    C     0.95245   0.87932   0.65494   0.00000  Uiso   1.00
C14    C     0.84282   0.73719   0.49110   0.00000  Uiso   1.00
C15    C     0.86296   0.77231   0.44810   0.00000  Uiso   1.00
C16    C     0.90448   0.74649   0.41541   0.00000  Uiso   1.00
C17    C     0.91682   0.78644   0.37855   0.00000  Uiso   1.00
C18    C     0.76693   0.73567   0.49120   0.00000  Uiso   1.00
C19    C     0.72772   0.67905   0.49477   0.00000  Uiso   1.00
C20    C     0.65921   0.68815   0.49421   0.00000  Uiso   1.00
C21    C     0.86298   0.78365   0.52897   0.00000  Uiso   1.00
C22    C     0.90452   0.76735   0.56429   0.00000  Uiso   1.00
C23    C     0.91687   0.81684   0.59553   0.00000  Uiso   1.00
H24    H     0.76893   0.90345   0.48066   0.00000  Uiso   1.00
H25    H     0.82519   0.92489   0.40422   0.00000  Uiso   1.00
H26    H     0.64845   0.85746   0.48357   0.00000  Uiso   1.00
H27    H     0.82523   0.94575   0.55308   0.00000  Uiso   1.00
H28    H     0.89998   0.92066   0.32122   0.00000  Uiso   1.00
H29    H     0.52732   0.77847   0.48856   0.00000  Uiso   1.00
H30    H     0.90008   0.96465   0.63512   0.00000  Uiso   1.00
H31    H     0.86478   0.68777   0.49420   0.00000  Uiso   1.00
H32    H     0.92630   0.69737   0.41851   0.00000  Uiso   1.00
H33    H     0.74956   0.62994   0.49786   0.00000  Uiso   1.00
H34    H     0.92634   0.71823   0.56736   0.00000  Uiso   1.00
H35    H     0.98204   0.73600   0.33282   0.00000  Uiso   1.00
H36    H     0.60938   0.59381   0.50015   0.00000  Uiso   1.00
H37    H     0.98215   0.77999   0.64672   0.00000  Uiso   1.00
O38    O     0.97973   0.83853   0.27697   0.00000  Uiso   1.00
O39    O     0.49082   0.65199   0.49652   0.00000  Uiso   1.00
O40    O     0.97988   0.89625   0.68881   0.00000  Uiso   1.00
N41    N     0.91086   0.87589   0.33434   0.00000  Uiso   1.00
N42    N     0.56244   0.74295   0.49078   0.00000  Uiso   1.00
N43    N     0.91093   0.91700   0.62782   0.00000  Uiso   1.00
N44    N     0.95502   0.77652   0.34058   0.00000  Uiso   1.00
N45    N     0.60660   0.64359   0.49702   0.00000  Uiso   1.00
N46    N     0.95509   0.81764   0.63406   0.00000  Uiso   1.00
C47    C     0.29089   0.35404   0.98376   0.00000  Uiso   1.00
C48    C     0.33476   0.33578   0.94411   0.00000  Uiso   1.00
C49    C     0.34703   0.37578   0.90729   0.00000  Uiso   1.00
C50    C     0.38856   0.35003   0.87456   0.00000  Uiso   1.00
C51    C     0.45235   0.33132   0.81238   0.00000  Uiso   1.00
C52    C     0.23873   0.29914   0.98722   0.00000  Uiso   1.00
C53    C     0.17026   0.30833   0.98665   0.00000  Uiso   1.00
C54    C     0.13096   0.25174   0.99021   0.00000  Uiso   1.00
C55    C     0.04566   0.17615   0.99499   0.00000  Uiso   1.00
C56    C     0.33478   0.34712   0.02498   0.00000  Uiso   1.00
C57    C     0.34706   0.39664   0.05617   0.00000  Uiso   1.00
C58    C     0.38861   0.38042   0.09153   0.00000  Uiso   1.00
C59    C     0.45245   0.37932   0.15494   0.00000  Uiso   1.00
C60    C     0.34282   0.23719   0.99110   0.00000  Uiso   1.00
C61    C     0.36296   0.27231   0.94810   0.00000  Uiso   1.00
C62    C     0.40448   0.24649   0.91541   0.00000  Uiso   1.00
C63    C     0.41682   0.28644   0.87855   0.00000  Uiso   1.00
C64    C     0.26693   0.23567   0.99120   0.00000  Uiso   1.00
C65    C     0.22772   0.17905   0.99477   0.00000  Uiso   1.00
C66    C     0.15921   0.18815   0.99421   0.00000  Uiso   1.00
C67    C     0.36298   0.28365   0.02897   0.00000  Uiso   1.00
C68    C     0.40452   0.26735   0.06429   0.00000  Uiso   1.00
C69    C     0.41687   0.31684   0.09553   0.00000  Uiso   1.00
H70    H     0.26893   0.40345   0.98066   0.00000  Uiso   1.00
H71    H     0.32519   0.42489   0.90422   0.00000  Uiso   1.00
H72    H     0.14845   0.35746   0.98357   0.00000  Uiso   1.00
H73    H     0.32523   0.44575   0.05308   0.00000  Uiso   1.00
H74    H     0.39998   0.42066   0.82122   0.00000  Uiso   1.00
H75    H     0.02732   0.27847   0.98856   0.00000  Uiso   1.00
H76    H     0.40008   0.46465   0.13512   0.00000  Uiso   1.00
H77    H     0.36478   0.18777   0.99420   0.00000  Uiso   1.00
H78    H     0.42630   0.19737   0.91851   0.00000  Uiso   1.00
H79    H     0.24956   0.12994   0.99786   0.00000  Uiso   1.00
H80    H     0.42634   0.21823   0.06736   0.00000  Uiso   1.00
H81    H     0.48204   0.23600   0.83282   0.00000  Uiso   1.00
H82    H     0.10938   0.09381   0.00015   0.00000  Uiso   1.00
H83    H     0.48215   0.27999   0.14672   0.00000  Uiso   1.00
O84    O     0.47973   0.33853   0.77697   0.00000  Uiso   1.00
O85    O     0.99082   0.15199   0.99652   0.00000  Uiso   1.00
O86    O     0.47988   0.39625   0.18881   0.00000  Uiso   1.00
N87    N     0.41086   0.37589   0.83434   0.00000  Uiso   1.00
N88    N     0.06244   0.24295   0.99078   0.00000  Uiso   1.00
N89    N     0.41093   0.41700   0.12782   0.00000  Uiso   1.00
N90    N     0.45502   0.27652   0.84058   0.00000  Uiso   1.00
N91    N     0.10660   0.14359   0.99702   0.00000  Uiso   1.00
N92    N     0.45509   0.31764   0.13406   0.00000  Uiso   1.00
C93    C     0.70911   0.64596   0.98376   0.00000  Uiso   1.00
C94    C     0.66524   0.66422   0.94411   0.00000  Uiso   1.00
C95    C     0.65297   0.62422   0.90729   0.00000  Uiso   1.00
C96    C     0.61144   0.64997   0.87456   0.00000  Uiso   1.00
C97    C     0.54765   0.66868   0.81238   0.00000  Uiso   1.00
C98    C     0.76127   0.70086   0.98722   0.00000  Uiso   1.00
C99    C     0.82974   0.69167   0.98665   0.00000  Uiso   1.00
C100   C     0.86904   0.74826   0.99021   0.00000  Uiso   1.00
C101   C     0.95434   0.82385   0.99499   0.00000  Uiso   1.00
C102   C     0.66522   0.65288   0.02498   0.00000  Uiso   1.00
C103   C     0.65294   0.60336   0.05617   0.00000  Uiso   1.00
C104   C     0.61139   0.61958   0.09153   0.00000  Uiso   1.00
C105   C     0.54755   0.62068   0.15494   0.00000  Uiso   1.00
C106   C     0.65718   0.76281   0.99110   0.00000  Uiso   1.00
C107   C     0.63704   0.72769   0.94810   0.00000  Uiso   1.00
C108   C     0.59552   0.75351   0.91541   0.00000  Uiso   1.00
C109   C     0.58318   0.71356   0.87855   0.00000  Uiso   1.00
C110   C     0.73307   0.76433   0.99120   0.00000  Uiso   1.00
C111   C     0.77228   0.82095   0.99477   0.00000  Uiso   1.00
C112   C     0.84079   0.81185   0.99421   0.00000  Uiso   1.00
C113   C     0.63702   0.71635   0.02897   0.00000  Uiso   1.00
C114   C     0.59548   0.73265   0.06429   0.00000  Uiso   1.00
C115   C     0.58313   0.68316   0.09553   0.00000  Uiso   1.00
H116   H     0.73107   0.59655   0.98066   0.00000  Uiso   1.00
H117   H     0.67481   0.57511   0.90422   0.00000  Uiso   1.00
H118   H     0.85155   0.64254   0.98357   0.00000  Uiso   1.00
H119   H     0.67477   0.55425   0.05308   0.00000  Uiso   1.00
H120   H     0.60002   0.57934   0.82122   0.00000  Uiso   1.00
H121   H     0.97268   0.72153   0.98856   0.00000  Uiso   1.00
H122   H     0.59992   0.53535   0.13512   0.00000  Uiso   1.00
H123   H     0.63522   0.81223   0.99420   0.00000  Uiso   1.00
H124   H     0.57370   0.80263   0.91851   0.00000  Uiso   1.00
H125   H     0.75044   0.87006   0.99786   0.00000  Uiso   1.00
H126   H     0.57366   0.78177   0.06736   0.00000  Uiso   1.00
H127   H     0.51796   0.76400   0.83282   0.00000  Uiso   1.00
H128   H     0.89062   0.90619   0.00015   0.00000  Uiso   1.00
H129   H     0.51785   0.72001   0.14672   0.00000  Uiso   1.00
O130   O     0.52027   0.66147   0.77697   0.00000  Uiso   1.00
O131   O     0.00918   0.84801   0.99652   0.00000  Uiso   1.00
O132   O     0.52012   0.60375   0.18881   0.00000  Uiso   1.00
N133   N     0.58914   0.62411   0.83434   0.00000  Uiso   1.00
N134   N     0.93756   0.75705   0.99078   0.00000  Uiso   1.00
N135   N     0.58907   0.58300   0.12782   0.00000  Uiso   1.00
N136   N     0.54498   0.72348   0.84058   0.00000  Uiso   1.00
N137   N     0.89340   0.85641   0.99702   0.00000  Uiso   1.00
N138   N     0.54491   0.68236   0.13406   0.00000  Uiso   1.00
C139   C     0.20911   0.14596   0.48376   0.00000  Uiso   1.00
C140   C     0.16524   0.16422   0.44411   0.00000  Uiso   1.00
C141   C     0.15297   0.12422   0.40729   0.00000  Uiso   1.00
C142   C     0.11144   0.14997   0.37456   0.00000  Uiso   1.00
C143   C     0.04765   0.16868   0.31238   0.00000  Uiso   1.00
C144   C     0.26127   0.20086   0.48722   0.00000  Uiso   1.00
C145   C     0.32974   0.19167   0.48665   0.00000  Uiso   1.00
C146   C     0.36904   0.24826   0.49021   0.00000  Uiso   1.00
C147   C     0.45434   0.32385   0.49499   0.00000  Uiso   1.00
C148   C     0.16522   0.15288   0.52498   0.00000  Uiso   1.00
C149   C     0.15294   0.10336   0.55617   0.00000  Uiso   1.00
C150   C     0.11139   0.11958   0.59153   0.00000  Uiso   1.00
C151   C     0.04755   0.12068   0.65494   0.00000  Uiso   1.00
C152   C     0.15718   0.26281   0.49110   0.00000  Uiso   1.00
C153   C     0.13704   0.22769   0.44810   0.00000  Uiso   1.00
C154   C     0.09552   0.25351   0.41541   0.00000  Uiso   1.00
C155   C     0.08318   0.21356   0.37855   0.00000  Uiso   1.00
C156   C     0.23307   0.26433   0.49120   0.00000  Uiso   1.00
C157   C     0.27228   0.32095   0.49477   0.00000  Uiso   1.00
C158   C     0.34079   0.31185   0.49421   0.00000  Uiso   1.00
C159   C     0.13702   0.21635   0.52897   0.00000  Uiso   1.00
C160   C     0.09548   0.23265   0.56429   0.00000  Uiso   1.00
C161   C     0.08313   0.18316   0.59553   0.00000  Uiso   1.00
H162   H     0.23107   0.09655   0.48066   0.00000  Uiso   1.00
H163   H     0.17481   0.07511   0.40422   0.00000  Uiso   1.00
H164   H     0.35155   0.14254   0.48357   0.00000  Uiso   1.00
H165   H     0.17477   0.05425   0.55308   0.00000  Uiso   1.00
H166   H     0.10002   0.07934   0.32122   0.00000  Uiso   1.00
H167   H     0.47268   0.22153   0.48856   0.00000  Uiso   1.00
H168   H     0.09992   0.03535   0.63512   0.00000  Uiso   1.00
H169   H     0.13522   0.31223   0.49420   0.00000  Uiso   1.00
H170   H     0.07370   0.30263   0.41851   0.00000  Uiso   1.00
H171   H     0.25044   0.37006   0.49786   0.00000  Uiso   1.00
H172   H     0.07366   0.28177   0.56736   0.00000  Uiso   1.00
H173   H     0.01796   0.26400   0.33282   0.00000  Uiso   1.00
H174   H     0.39062   0.40619   0.50015   0.00000  Uiso   1.00
H175   H     0.01785   0.22001   0.64672   0.00000  Uiso   1.00
O176   O     0.02027   0.16147   0.27697   0.00000  Uiso   1.00
O177   O     0.50918   0.34801   0.49652   0.00000  Uiso   1.00
O178   O     0.02012   0.10375   0.68881   0.00000  Uiso   1.00
N179   N     0.08914   0.12411   0.33434   0.00000  Uiso   1.00
N180   N     0.43756   0.25705   0.49078   0.00000  Uiso   1.00
N181   N     0.08907   0.08300   0.62782   0.00000  Uiso   1.00
N182   N     0.04498   0.22348   0.34058   0.00000  Uiso   1.00
N183   N     0.39340   0.35641   0.49702   0.00000  Uiso   1.00
N184   N     0.04491   0.18236   0.63406   0.00000  Uiso   1.00
C185   C     0.14596   0.29089   0.73376   0.00000  Uiso   1.00
C186   C     0.16422   0.33476   0.69411   0.00000  Uiso   1.00
C187   C     0.12422   0.34703   0.65729   0.00000  Uiso   1.00
C188   C     0.14997   0.38856   0.62456   0.00000  Uiso   1.00
C189   C     0.16868   0.45235   0.56238   0.00000  Uiso   1.00
C190   C     0.20086   0.23873   0.73722   0.00000  Uiso   1.00
C191   C     0.19167   0.17026   0.73665   0.00000  Uiso   1.00
C192   C     0.24826   0.13096   0.74021   0.00000  Uiso   1.00
C193   C     0.32385   0.04566   0.74499   0.00000  Uiso   1.00
C194   C     0.15288   0.33478   0.77498   0.00000  Uiso   1.00
C195   C     0.10336   0.34706   0.80617   0.00000  Uiso   1.00
C196   C     0.11958   0.38861   0.84153   0.00000  Uiso   1.00
C197   C     0.12068   0.45245   0.90494   0.00000  Uiso   1.00
C198   C     0.26281   0.34282   0.74110   0.00000  Uiso   1.00
C199   C     0.22769   0.36296   0.69810   0.00000  Uiso   1.00
C200   C     0.25351   0.40448   0.66541   0.00000  Uiso   1.00
C201   C     0.21356   0.41682   0.62855   0.00000  Uiso   1.00
C202   C     0.26433   0.26693   0.74120   0.00000  Uiso   1.00
C203   C     0.32095   0.22772   0.74477   0.00000  Uiso   1.00
C204   C     0.31185   0.15921   0.74421   0.00000  Uiso   1.00
C205   C     0.21635   0.36298   0.77897   0.00000  Uiso   1.00
C206   C     0.23265   0.40452   0.81429   0.00000  Uiso   1.00
C207   C     0.18316   0.41687   0.84553   0.00000  Uiso   1.00
H208   H     0.09655   0.26893   0.73066   0.00000  Uiso   1.00
H209   H     0.07511   0.32519   0.65422   0.00000  Uiso   1.00
H210   H     0.14254   0.14845   0.73357   0.00000  Uiso   1.00
H211   H     0.05425   0.32523   0.80308   0.00000  Uiso   1.00
H212   H     0.07934   0.39998   0.57122   0.00000  Uiso   1.00
H213   H     0.22153   0.02732   0.73856   0.00000  Uiso   1.00
H214   H     0.03535   0.40008   0.88512   0.00000  Uiso   1.00
H215   H     0.31223   0.36478   0.74420   0.00000  Uiso   1.00
H216   H     0.30263   0.42630   0.66851   0.00000  Uiso   1.00
H217   H     0.37006   0.24956   0.74786   0.00000  Uiso   1.00
H218   H     0.28177   0.42634   0.81736   0.00000  Uiso   1.00
H219   H     0.26400   0.48204   0.58282   0.00000  Uiso   1.00
H220   H     0.40619   0.10938   0.75015   0.00000  Uiso   1.00
H221   H     0.22001   0.48215   0.89672   0.00000  Uiso   1.00
O222   O     0.16147   0.47973   0.52697   0.00000  Uiso   1.00
O223   O     0.34801   0.99082   0.74652   0.00000  Uiso   1.00
O224   O     0.10375   0.47988   0.93881   0.00000  Uiso   1.00
N225   N     0.12411   0.41086   0.58434   0.00000  Uiso   1.00
N226   N     0.25705   0.06244   0.74078   0.00000  Uiso   1.00
N227   N     0.08300   0.41093   0.87782   0.00000  Uiso   1.00
N228   N     0.22348   0.45502   0.59058   0.00000  Uiso   1.00
N229   N     0.35641   0.10660   0.74702   0.00000  Uiso   1.00
N230   N     0.18236   0.45509   0.88406   0.00000  Uiso   1.00
C231   C     0.64596   0.79089   0.23376   0.00000  Uiso   1.00
C232   C     0.66422   0.83476   0.19411   0.00000  Uiso   1.00
C233   C     0.62422   0.84703   0.15729   0.00000  Uiso   1.00
C234   C     0.64997   0.88856   0.12456   0.00000  Uiso   1.00
C235   C     0.66868   0.95235   0.06238   0.00000  Uiso   1.00
C236   C     0.70086   0.73873   0.23722   0.00000  Uiso   1.00
C237   C     0.69167   0.67026   0.23665   0.00000  Uiso   1.00
C238   C     0.74826   0.63096   0.24021   0.00000  Uiso   1.00
C239   C     0.82385   0.54566   0.24499   0.00000  Uiso   1.00
C240   C     0.65288   0.83478   0.27498   0.00000  Uiso   1.00
C241   C     0.60336   0.84706   0.30617   0.00000  Uiso   1.00
C242   C     0.61958   0.88861   0.34153   0.00000  Uiso   1.00
C243   C     0.62068   0.95245   0.40494   0.00000  Uiso   1.00
C244   C     0.76281   0.84282   0.24110   0.00000  Uiso   1.00
C245   C     0.72769   0.86296   0.19810   0.00000  Uiso   1.00
C246   C     0.75351   0.90448   0.16541   0.00000  Uiso   1.00
C247   C     0.71356   0.91682   0.12855   0.00000  Uiso   1.00
C248   C     0.76433   0.76693   0.24120   0.00000  Uiso   1.00
C249   C     0.82095   0.72772   0.24477   0.00000  Uiso   1.00
C250   C     0.81185   0.65921   0.24421   0.00000  Uiso   1.00
C251   C     0.71635   0.86298   0.27897   0.00000  Uiso   1.00
C252   C     0.73265   0.90452   0.31429   0.00000  Uiso   1.00
C253   C     0.68316   0.91687   0.34553   0.00000  Uiso   1.00
H254   H     0.59655   0.76893   0.23066   0.00000  Uiso   1.00
H255   H     0.57511   0.82519   0.15422   0.00000  Uiso   1.00
H256   H     0.64254   0.64845   0.23357   0.00000  Uiso   1.00
H257   H     0.55425   0.82523   0.30308   0.00000  Uiso   1.00
H258   H     0.57934   0.89998   0.07122   0.00000  Uiso   1.00
H259   H     0.72153   0.52732   0.23856   0.00000  Uiso   1.00
H260   H     0.53535   0.90008   0.38512   0.00000  Uiso   1.00
H261   H     0.81223   0.86478   0.24420   0.00000  Uiso   1.00
H262   H     0.80263   0.92630   0.16851   0.00000  Uiso   1.00
H263   H     0.87006   0.74956   0.24786   0.00000  Uiso   1.00
H264   H     0.78177   0.92634   0.31736   0.00000  Uiso   1.00
H265   H     0.76400   0.98204   0.08282   0.00000  Uiso   1.00
H266   H     0.90619   0.60938   0.25015   0.00000  Uiso   1.00
H267   H     0.72001   0.98215   0.39672   0.00000  Uiso   1.00
O268   O     0.66147   0.97973   0.02697   0.00000  Uiso   1.00
O269   O     0.84801   0.49082   0.24652   0.00000  Uiso   1.00
O270   O     0.60375   0.97988   0.43881   0.00000  Uiso   1.00
N271   N     0.62411   0.91086   0.08434   0.00000  Uiso   1.00
N272   N     0.75705   0.56244   0.24078   0.00000  Uiso   1.00
N273   N     0.58300   0.91093   0.37782   0.00000  Uiso   1.00
N274   N     0.72348   0.95502   0.09058   0.00000  Uiso   1.00
N275   N     0.85641   0.60660   0.24702   0.00000  Uiso   1.00
N276   N     0.68236   0.95509   0.38406   0.00000  Uiso   1.00
C277   C     0.35404   0.20911   0.23376   0.00000  Uiso   1.00
C278   C     0.33578   0.16524   0.19411   0.00000  Uiso   1.00
C279   C     0.37578   0.15297   0.15729   0.00000  Uiso   1.00
C280   C     0.35003   0.11144   0.12456   0.00000  Uiso   1.00
C281   C     0.33132   0.04765   0.06238   0.00000  Uiso   1.00
C282   C     0.29914   0.26127   0.23722   0.00000  Uiso   1.00
C283   C     0.30833   0.32974   0.23665   0.00000  Uiso   1.00
C284   C     0.25174   0.36904   0.24021   0.00000  Uiso   1.00
C285   C     0.17615   0.45434   0.24499   0.00000  Uiso   1.00
C286   C     0.34712   0.16522   0.27498   0.00000  Uiso   1.00
C287   C     0.39664   0.15294   0.30617   0.00000  Uiso   1.00
C288   C     0.38042   0.11139   0.34153   0.00000  Uiso   1.00
C289   C     0.37932   0.04755   0.40494   0.00000  Uiso   1.00
C290   C     0.23719   0.15718   0.24110   0.00000  Uiso   1.00
C291   C     0.27231   0.13704   0.19810   0.00000  Uiso   1.00
C292   C     0.24649   0.09552   0.16541   0.00000  Uiso   1.00
C293   C     0.28644   0.08318   0.12855   0.00000  Uiso   1.00
C294   C     0.23567   0.23307   0.24120   0.00000  Uiso   1.00
C295   C     0.17905   0.27228   0.24477   0.00000  Uiso   1.00
C296   C     0.18815   0.34079   0.24421   0.00000  Uiso   1.00
C297   C     0.28365   0.13702   0.27897   0.00000  Uiso   1.00
C298   C     0.26735   0.09548   0.31429   0.00000  Uiso   1.00
C299   C     0.31684   0.08313   0.34553   0.00000  Uiso   1.00
H300   H     0.40345   0.23107   0.23066   0.00000  Uiso   1.00
H301   H     0.42489   0.17481   0.15422   0.00000  Uiso   1.00
H302   H     0.35746   0.35155   0.23357   0.00000  Uiso   1.00
H303   H     0.44575   0.17477   0.30308   0.00000  Uiso   1.00
H304   H     0.42066   0.10002   0.07122   0.00000  Uiso   1.00
H305   H     0.27847   0.47268   0.23856   0.00000  Uiso   1.00
H306   H     0.46465   0.09992   0.38512   0.00000  Uiso   1.00
H307   H     0.18777   0.13522   0.24420   0.00000  Uiso   1.00
H308   H     0.19737   0.07370   0.16851   0.00000  Uiso   1.00
H309   H     0.12994   0.25044   0.24786   0.00000  Uiso   1.00
H310   H     0.21823   0.07366   0.31736   0.00000  Uiso   1.00
H311   H     0.23600   0.01796   0.08282   0.00000  Uiso   1.00
H312   H     0.09381   0.39062   0.25015   0.00000  Uiso   1.00
H313   H     0.27999   0.01785   0.39672   0.00000  Uiso   1.00
O314   O     0.33853   0.02027   0.02697   0.00000  Uiso   1.00
O315   O     0.15199   0.50918   0.24652   0.00000  Uiso   1.00
O316   O     0.39625   0.02012   0.43881   0.00000  Uiso   1.00
N317   N     0.37589   0.08914   0.08434   0.00000  Uiso   1.00
N318   N     0.24295   0.43756   0.24078   0.00000  Uiso   1.00
N319   N     0.41700   0.08907   0.37782   0.00000  Uiso   1.00
N320   N     0.27652   0.04498   0.09058   0.00000  Uiso   1.00
N321   N     0.14359   0.39340   0.24702   0.00000  Uiso   1.00
N322   N     0.31764   0.04491   0.38406   0.00000  Uiso   1.00
C323   C     0.85404   0.70911   0.73376   0.00000  Uiso   1.00
C324   C     0.83578   0.66524   0.69411   0.00000  Uiso   1.00
C325   C     0.87578   0.65297   0.65729   0.00000  Uiso   1.00
C326   C     0.85003   0.61144   0.62456   0.00000  Uiso   1.00
C327   C     0.83132   0.54765   0.56238   0.00000  Uiso   1.00
C328   C     0.79914   0.76127   0.73722   0.00000  Uiso   1.00
C329   C     0.80833   0.82974   0.73665   0.00000  Uiso   1.00
C330   C     0.75174   0.86904   0.74021   0.00000  Uiso   1.00
C331   C     0.67615   0.95434   0.74499   0.00000  Uiso   1.00
C332   C     0.84712   0.66522   0.77498   0.00000  Uiso   1.00
C333   C     0.89664   0.65294   0.80617   0.00000  Uiso   1.00
C334   C     0.88042   0.61139   0.84153   0.00000  Uiso   1.00
C335   C     0.87932   0.54755   0.90494   0.00000  Uiso   1.00
C336   C     0.73719   0.65718   0.74110   0.00000  Uiso   1.00
C337   C     0.77231   0.63704   0.69810   0.00000  Uiso   1.00
C338   C     0.74649   0.59552   0.66541   0.00000  Uiso   1.00
C339   C     0.78644   0.58318   0.62855   0.00000  Uiso   1.00
C340   C     0.73567   0.73307   0.74120   0.00000  Uiso   1.00
C341   C     0.67905   0.77228   0.74477   0.00000  Uiso   1.00
C342   C     0.68815   0.84079   0.74421   0.00000  Uiso   1.00
C343   C     0.78365   0.63702   0.77897   0.00000  Uiso   1.00
C344   C     0.76735   0.59548   0.81429   0.00000  Uiso   1.00
C345   C     0.81684   0.58313   0.84553   0.00000  Uiso   1.00
H346   H     0.90345   0.73107   0.73066   0.00000  Uiso   1.00
H347   H     0.92489   0.67481   0.65422   0.00000  Uiso   1.00
H348   H     0.85746   0.85155   0.73357   0.00000  Uiso   1.00
H349   H     0.94575   0.67477   0.80308   0.00000  Uiso   1.00
H350   H     0.92066   0.60002   0.57122   0.00000  Uiso   1.00
H351   H     0.77847   0.97268   0.73856   0.00000  Uiso   1.00
H352   H     0.96465   0.59992   0.88512   0.00000  Uiso   1.00
H353   H     0.68777   0.63522   0.74420   0.00000  Uiso   1.00
H354   H     0.69737   0.57370   0.66851   0.00000  Uiso   1.00
H355   H     0.62994   0.75044   0.74786   0.00000  Uiso   1.00
H356   H     0.71823   0.57366   0.81736   0.00000  Uiso   1.00
H357   H     0.73600   0.51796   0.58282   0.00000  Uiso   1.00
H358   H     0.59381   0.89062   0.75015   0.00000  Uiso   1.00
H359   H     0.77999   0.51785   0.89672   0.00000  Uiso   1.00
O360   O     0.83853   0.52027   0.52697   0.00000  Uiso   1.00
O361   O     0.65199   0.00918   0.74652   0.00000  Uiso   1.00
O362   O     0.89625   0.52012   0.93881   0.00000  Uiso   1.00
N363   N     0.87589   0.58914   0.58434   0.00000  Uiso   1.00
N364   N     0.74295   0.93756   0.74078   0.00000  Uiso   1.00
N365   N     0.91700   0.58907   0.87782   0.00000  Uiso   1.00
N366   N     0.77652   0.54498   0.59058   0.00000  Uiso   1.00
N367   N     0.64359   0.89340   0.74702   0.00000  Uiso   1.00
N368   N     0.81764   0.54491   0.88406   0.00000  Uiso   1.00
C369   C     0.20911   0.64596   0.76624   0.00000  Uiso   1.00
C370   C     0.16524   0.66422   0.80589   0.00000  Uiso   1.00
C371   C     0.15297   0.62422   0.84271   0.00000  Uiso   1.00
C372   C     0.11144   0.64997   0.87544   0.00000  Uiso   1.00
C373   C     0.04765   0.66868   0.93762   0.00000  Uiso   1.00
C374   C     0.26127   0.70086   0.76278   0.00000  Uiso   1.00
C375   C     0.32974   0.69167   0.76335   0.00000  Uiso   1.00
C376   C     0.36904   0.74826   0.75979   0.00000  Uiso   1.00
C377   C     0.45434   0.82385   0.75501   0.00000  Uiso   1.00
C378   C     0.16522   0.65288   0.72502   0.00000  Uiso   1.00
C379   C     0.15294   0.60336   0.69383   0.00000  Uiso   1.00
C380   C     0.11139   0.61958   0.65847   0.00000  Uiso   1.00
C381   C     0.04755   0.62068   0.59506   0.00000  Uiso   1.00
C382   C     0.15718   0.76281   0.75890   0.00000  Uiso   1.00
C383   C     0.13704   0.72769   0.80190   0.00000  Uiso   1.00
C384   C     0.09552   0.75351   0.83459   0.00000  Uiso   1.00
C385   C     0.08318   0.71356   0.87145   0.00000  Uiso   1.00
C386   C     0.23307   0.76433   0.75880   0.00000  Uiso   1.00
C387   C     0.27228   0.82095   0.75523   0.00000  Uiso   1.00
C388   C     0.34079   0.81185   0.75579   0.00000  Uiso   1.00
C389   C     0.13702   0.71635   0.72103   0.00000  Uiso   1.00
C390   C     0.09548   0.73265   0.68571   0.00000  Uiso   1.00
C391   C     0.08313   0.68316   0.65447   0.00000  Uiso   1.00
H392   H     0.23107   0.59655   0.76934   0.00000  Uiso   1.00
H393   H     0.17481   0.57511   0.84578   0.00000  Uiso   1.00
H394   H     0.35155   0.64254   0.76643   0.00000  Uiso   1.00
H395   H     0.17477   0.55425   0.69692   0.00000  Uiso   1.00
H396   H     0.10002   0.57934   0.92878   0.00000  Uiso   1.00
H397   H     0.47268   0.72153   0.76144   0.00000  Uiso   1.00
H398   H     0.09992   0.53535   0.61488   0.00000  Uiso   1.00
H399   H     0.13522   0.81223   0.75580   0.00000  Uiso   1.00
H400   H     0.07370   0.80263   0.83149   0.00000  Uiso   1.00
H401   H     0.25044   0.87006   0.75214   0.00000  Uiso   1.00
H402   H     0.07366   0.78177   0.68264   0.00000  Uiso   1.00
H403   H     0.01796   0.76400   0.91718   0.00000  Uiso   1.00
H404   H     0.39062   0.90619   0.74985   0.00000  Uiso   1.00
H405   H     0.01785   0.72001   0.60328   0.00000  Uiso   1.00
O406   O     0.02027   0.66147   0.97303   0.00000  Uiso   1.00
O407   O     0.50918   0.84801   0.75348   0.00000  Uiso   1.00
O408   O     0.02012   0.60375   0.56119   0.00000  Uiso   1.00
N409   N     0.08914   0.62411   0.91566   0.00000  Uiso   1.00
N410   N     0.43756   0.75705   0.75922   0.00000  Uiso   1.00
N411   N     0.08907   0.58300   0.62218   0.00000  Uiso   1.00
N412   N     0.04498   0.72348   0.90942   0.00000  Uiso   1.00
N413   N     0.39340   0.85641   0.75298   0.00000  Uiso   1.00
N414   N     0.04491   0.68236   0.61594   0.00000  Uiso   1.00
C415   C     0.70911   0.14596   0.26624   0.00000  Uiso   1.00
C416   C     0.66524   0.16422   0.30589   0.00000  Uiso   1.00
C417   C     0.65297   0.12422   0.34271   0.00000  Uiso   1.00
C418   C     0.61144   0.14997   0.37544   0.00000  Uiso   1.00
C419   C     0.54765   0.16868   0.43762   0.00000  Uiso   1.00
C420   C     0.76127   0.20086   0.26278   0.00000  Uiso   1.00
C421   C     0.82974   0.19167   0.26335   0.00000  Uiso   1.00
C422   C     0.86904   0.24826   0.25979   0.00000  Uiso   1.00
C423   C     0.95434   0.32385   0.25501   0.00000  Uiso   1.00
C424   C     0.66522   0.15288   0.22502   0.00000  Uiso   1.00
C425   C     0.65294   0.10336   0.19383   0.00000  Uiso   1.00
C426   C     0.61139   0.11958   0.15847   0.00000  Uiso   1.00
C427   C     0.54755   0.12068   0.09506   0.00000  Uiso   1.00
C428   C     0.65718   0.26281   0.25890   0.00000  Uiso   1.00
C429   C     0.63704   0.22769   0.30190   0.00000  Uiso   1.00
C430   C     0.59552   0.25351   0.33459   0.00000  Uiso   1.00
C431   C     0.58318   0.21356   0.37145   0.00000  Uiso   1.00
C432   C     0.73307   0.26433   0.25880   0.00000  Uiso   1.00
C433   C     0.77228   0.32095   0.25523   0.00000  Uiso   1.00
C434   C     0.84079   0.31185   0.25579   0.00000  Uiso   1.00
C435   C     0.63702   0.21635   0.22103   0.00000  Uiso   1.00
C436   C     0.59548   0.23265   0.18571   0.00000  Uiso   1.00
C437   C     0.58313   0.18316   0.15447   0.00000  Uiso   1.00
H438   H     0.73107   0.09655   0.26934   0.00000  Uiso   1.00
H439   H     0.67481   0.07511   0.34578   0.00000  Uiso   1.00
H440   H     0.85155   0.14254   0.26643   0.00000  Uiso   1.00
H441   H     0.67477   0.05425   0.19692   0.00000  Uiso   1.00
H442   H     0.60002   0.07934   0.42878   0.00000  Uiso   1.00
H443   H     0.97268   0.22153   0.26144   0.00000  Uiso   1.00
H444   H     0.59992   0.03535   0.11488   0.00000  Uiso   1.00
H445   H     0.63522   0.31223   0.25580   0.00000  Uiso   1.00
H446   H     0.57370   0.30263   0.33149   0.00000  Uiso   1.00
H447   H     0.75044   0.37006   0.25214   0.00000  Uiso   1.00
H448   H     0.57366   0.28177   0.18264   0.00000  Uiso   1.00
H449   H     0.51796   0.26400   0.41718   0.00000  Uiso   1.00
H450   H     0.89062   0.40619   0.24985   0.00000  Uiso   1.00
H451   H     0.51785   0.22001   0.10328   0.00000  Uiso   1.00
O452   O     0.52027   0.16147   0.47303   0.00000  Uiso   1.00
O453   O     0.00918   0.34801   0.25348   0.00000  Uiso   1.00
O454   O     0.52012   0.10375   0.06119   0.00000  Uiso   1.00
N455   N     0.58914   0.12411   0.41566   0.00000  Uiso   1.00
N456   N     0.93756   0.25705   0.25922   0.00000  Uiso   1.00
N457   N     0.58907   0.08300   0.12218   0.00000  Uiso   1.00
N458   N     0.54498   0.22348   0.40942   0.00000  Uiso   1.00
N459   N     0.89340   0.35641   0.25298   0.00000  Uiso   1.00
N460   N     0.54491   0.18236   0.11594   0.00000  Uiso   1.00
C461   C     0.29089   0.85404   0.26624   0.00000  Uiso   1.00
C462   C     0.33476   0.83578   0.30589   0.00000  Uiso   1.00
C463   C     0.34703   0.87578   0.34271   0.00000  Uiso   1.00
C464   C     0.38856   0.85003   0.37544   0.00000  Uiso   1.00
C465   C     0.45235   0.83132   0.43762   0.00000  Uiso   1.00
C466   C     0.23873   0.79914   0.26278   0.00000  Uiso   1.00
C467   C     0.17026   0.80833   0.26335   0.00000  Uiso   1.00
C468   C     0.13096   0.75174   0.25979   0.00000  Uiso   1.00
C469   C     0.04566   0.67615   0.25501   0.00000  Uiso   1.00
C470   C     0.33478   0.84712   0.22502   0.00000  Uiso   1.00
C471   C     0.34706   0.89664   0.19383   0.00000  Uiso   1.00
C472   C     0.38861   0.88042   0.15847   0.00000  Uiso   1.00
C473   C     0.45245   0.87932   0.09506   0.00000  Uiso   1.00
C474   C     0.34282   0.73719   0.25890   0.00000  Uiso   1.00
C475   C     0.36296   0.77231   0.30190   0.00000  Uiso   1.00
C476   C     0.40448   0.74649   0.33459   0.00000  Uiso   1.00
C477   C     0.41682   0.78644   0.37145   0.00000  Uiso   1.00
C478   C     0.26693   0.73567   0.25880   0.00000  Uiso   1.00
C479   C     0.22772   0.67905   0.25523   0.00000  Uiso   1.00
C480   C     0.15921   0.68815   0.25579   0.00000  Uiso   1.00
C481   C     0.36298   0.78365   0.22103   0.00000  Uiso   1.00
C482   C     0.40452   0.76735   0.18571   0.00000  Uiso   1.00
C483   C     0.41687   0.81684   0.15447   0.00000  Uiso   1.00
H484   H     0.26893   0.90345   0.26934   0.00000  Uiso   1.00
H485   H     0.32519   0.92489   0.34578   0.00000  Uiso   1.00
H486   H     0.14845   0.85746   0.26643   0.00000  Uiso   1.00
H487   H     0.32523   0.94575   0.19692   0.00000  Uiso   1.00
H488   H     0.39998   0.92066   0.42878   0.00000  Uiso   1.00
H489   H     0.02732   0.77847   0.26144   0.00000  Uiso   1.00
H490   H     0.40008   0.96465   0.11488   0.00000  Uiso   1.00
H491   H     0.36478   0.68777   0.25580   0.00000  Uiso   1.00
H492   H     0.42630   0.69737   0.33149   0.00000  Uiso   1.00
H493   H     0.24956   0.62994   0.25214   0.00000  Uiso   1.00
H494   H     0.42634   0.71823   0.18264   0.00000  Uiso   1.00
H495   H     0.48204   0.73600   0.41718   0.00000  Uiso   1.00
H496   H     0.10938   0.59381   0.24985   0.00000  Uiso   1.00
H497   H     0.48215   0.77999   0.10328   0.00000  Uiso   1.00
O498   O     0.47973   0.83853   0.47303   0.00000  Uiso   1.00
O499   O     0.99082   0.65199   0.25348   0.00000  Uiso   1.00
O500   O     0.47988   0.89625   0.06119   0.00000  Uiso   1.00
N501   N     0.41086   0.87589   0.41566   0.00000  Uiso   1.00
N502   N     0.06244   0.74295   0.25922   0.00000  Uiso   1.00
N503   N     0.41093   0.91700   0.12218   0.00000  Uiso   1.00
N504   N     0.45502   0.77652   0.40942   0.00000  Uiso   1.00
N505   N     0.10660   0.64359   0.25298   0.00000  Uiso   1.00
N506   N     0.45509   0.81764   0.11594   0.00000  Uiso   1.00
C507   C     0.79089   0.35404   0.76624   0.00000  Uiso   1.00
C508   C     0.83476   0.33578   0.80589   0.00000  Uiso   1.00
C509   C     0.84703   0.37578   0.84271   0.00000  Uiso   1.00
C510   C     0.88856   0.35003   0.87544   0.00000  Uiso   1.00
C511   C     0.95235   0.33132   0.93762   0.00000  Uiso   1.00
C512   C     0.73873   0.29914   0.76278   0.00000  Uiso   1.00
C513   C     0.67026   0.30833   0.76335   0.00000  Uiso   1.00
C514   C     0.63096   0.25174   0.75979   0.00000  Uiso   1.00
C515   C     0.54566   0.17615   0.75501   0.00000  Uiso   1.00
C516   C     0.83478   0.34712   0.72502   0.00000  Uiso   1.00
C517   C     0.84706   0.39664   0.69383   0.00000  Uiso   1.00
C518   C     0.88861   0.38042   0.65847   0.00000  Uiso   1.00
C519   C     0.95245   0.37932   0.59506   0.00000  Uiso   1.00
C520   C     0.84282   0.23719   0.75890   0.00000  Uiso   1.00
C521   C     0.86296   0.27231   0.80190   0.00000  Uiso   1.00
C522   C     0.90448   0.24649   0.83459   0.00000  Uiso   1.00
C523   C     0.91682   0.28644   0.87145   0.00000  Uiso   1.00
C524   C     0.76693   0.23567   0.75880   0.00000  Uiso   1.00
C525   C     0.72772   0.17905   0.75523   0.00000  Uiso   1.00
C526   C     0.65921   0.18815   0.75579   0.00000  Uiso   1.00
C527   C     0.86298   0.28365   0.72103   0.00000  Uiso   1.00
C528   C     0.90452   0.26735   0.68571   0.00000  Uiso   1.00
C529   C     0.91687   0.31684   0.65447   0.00000  Uiso   1.00
H530   H     0.76893   0.40345   0.76934   0.00000  Uiso   1.00
H531   H     0.82519   0.42489   0.84578   0.00000  Uiso   1.00
H532   H     0.64845   0.35746   0.76643   0.00000  Uiso   1.00
H533   H     0.82523   0.44575   0.69692   0.00000  Uiso   1.00
H534   H     0.89998   0.42066   0.92878   0.00000  Uiso   1.00
H535   H     0.52732   0.27847   0.76144   0.00000  Uiso   1.00
H536   H     0.90008   0.46465   0.61488   0.00000  Uiso   1.00
H537   H     0.86478   0.18777   0.75580   0.00000  Uiso   1.00
H538   H     0.92630   0.19737   0.83149   0.00000  Uiso   1.00
H539   H     0.74956   0.12994   0.75214   0.00000  Uiso   1.00
H540   H     0.92634   0.21823   0.68264   0.00000  Uiso   1.00
H541   H     0.98204   0.23600   0.91718   0.00000  Uiso   1.00
H542   H     0.60938   0.09381   0.74985   0.00000  Uiso   1.00
H543   H     0.98215   0.27999   0.60328   0.00000  Uiso   1.00
O544   O     0.97973   0.33853   0.97303   0.00000  Uiso   1.00
O545   O     0.49082   0.15199   0.75348   0.00000  Uiso   1.00
O546   O     0.97988   0.39625   0.56119   0.00000  Uiso   1.00
N547   N     0.91086   0.37589   0.91566   0.00000  Uiso   1.00
N548   N     0.56244   0.24295   0.75922   0.00000  Uiso   1.00
N549   N     0.91093   0.41700   0.62218   0.00000  Uiso   1.00
N550   N     0.95502   0.27652   0.90942   0.00000  Uiso   1.00
N551   N     0.60660   0.14359   0.75298   0.00000  Uiso   1.00
N552   N     0.95509   0.31764   0.61594   0.00000  Uiso   1.00
C553   C     0.85404   0.20911   0.51624   0.00000  Uiso   1.00
C554   C     0.83578   0.16524   0.55589   0.00000  Uiso   1.00
C555   C     0.87578   0.15297   0.59271   0.00000  Uiso   1.00
C556   C     0.85003   0.11144   0.62544   0.00000  Uiso   1.00
C557   C     0.83132   0.04765   0.68762   0.00000  Uiso   1.00
C558   C     0.79914   0.26127   0.51278   0.00000  Uiso   1.00
C559   C     0.80833   0.32974   0.51335   0.00000  Uiso   1.00
C560   C     0.75174   0.36904   0.50979   0.00000  Uiso   1.00
C561   C     0.67615   0.45434   0.50501   0.00000  Uiso   1.00
C562   C     0.84712   0.16522   0.47502   0.00000  Uiso   1.00
C563   C     0.89664   0.15294   0.44383   0.00000  Uiso   1.00
C564   C     0.88042   0.11139   0.40847   0.00000  Uiso   1.00
C565   C     0.87932   0.04755   0.34506   0.00000  Uiso   1.00
C566   C     0.73719   0.15718   0.50890   0.00000  Uiso   1.00
C567   C     0.77231   0.13704   0.55190   0.00000  Uiso   1.00
C568   C     0.74649   0.09552   0.58459   0.00000  Uiso   1.00
C569   C     0.78644   0.08318   0.62145   0.00000  Uiso   1.00
C570   C     0.73567   0.23307   0.50880   0.00000  Uiso   1.00
C571   C     0.67905   0.27228   0.50523   0.00000  Uiso   1.00
C572   C     0.68815   0.34079   0.50579   0.00000  Uiso   1.00
C573   C     0.78365   0.13702   0.47103   0.00000  Uiso   1.00
C574   C     0.76735   0.09548   0.43571   0.00000  Uiso   1.00
C575   C     0.81684   0.08313   0.40447   0.00000  Uiso   1.00
H576   H     0.90345   0.23107   0.51934   0.00000  Uiso   1.00
H577   H     0.92489   0.17481   0.59578   0.00000  Uiso   1.00
H578   H     0.85746   0.35155   0.51643   0.00000  Uiso   1.00
H579   H     0.94575   0.17477   0.44692   0.00000  Uiso   1.00
H580   H     0.92066   0.10002   0.67878   0.00000  Uiso   1.00
H581   H     0.77847   0.47268   0.51144   0.00000  Uiso   1.00
H582   H     0.96465   0.09992   0.36488   0.00000  Uiso   1.00
H583   H     0.68777   0.13522   0.50580   0.00000  Uiso   1.00
H584   H     0.69737   0.07370   0.58149   0.00000  Uiso   1.00
H585   H     0.62994   0.25044   0.50214   0.00000  Uiso   1.00
H586   H     0.71823   0.07366   0.43264   0.00000  Uiso   1.00
H587   H     0.73600   0.01796   0.66718   0.00000  Uiso   1.00
H588   H     0.59381   0.39062   0.49985   0.00000  Uiso   1.00
H589   H     0.77999   0.01785   0.35328   0.00000  Uiso   1.00
O590   O     0.83853   0.02027   0.72303   0.00000  Uiso   1.00
O591   O     0.65199   0.50918   0.50348   0.00000  Uiso   1.00
O592   O     0.89625   0.02012   0.31119   0.00000  Uiso   1.00
N593   N     0.87589   0.08914   0.66566   0.00000  Uiso   1.00
N594   N     0.74295   0.43756   0.50922   0.00000  Uiso   1.00
N595   N     0.91700   0.08907   0.37218   0.00000  Uiso   1.00
N596   N     0.77652   0.04498   0.65942   0.00000  Uiso   1.00
N597   N     0.64359   0.39340   0.50298   0.00000  Uiso   1.00
N598   N     0.81764   0.04491   0.36594   0.00000  Uiso   1.00
C599   C     0.35404   0.70911   0.01624   0.00000  Uiso   1.00
C600   C     0.33578   0.66524   0.05589   0.00000  Uiso   1.00
C601   C     0.37578   0.65297   0.09271   0.00000  Uiso   1.00
C602   C     0.35003   0.61144   0.12544   0.00000  Uiso   1.00
C603   C     0.33132   0.54765   0.18762   0.00000  Uiso   1.00
C604   C     0.29914   0.76127   0.01278   0.00000  Uiso   1.00
C605   C     0.30833   0.82974   0.01335   0.00000  Uiso   1.00
C606   C     0.25174   0.86904   0.00979   0.00000  Uiso   1.00
C607   C     0.17615   0.95434   0.00501   0.00000  Uiso   1.00
C608   C     0.34712   0.66522   0.97502   0.00000  Uiso   1.00
C609   C     0.39664   0.65294   0.94383   0.00000  Uiso   1.00
C610   C     0.38042   0.61139   0.90847   0.00000  Uiso   1.00
C611   C     0.37932   0.54755   0.84506   0.00000  Uiso   1.00
C612   C     0.23719   0.65718   0.00890   0.00000  Uiso   1.00
C613   C     0.27231   0.63704   0.05190   0.00000  Uiso   1.00
C614   C     0.24649   0.59552   0.08459   0.00000  Uiso   1.00
C615   C     0.28644   0.58318   0.12145   0.00000  Uiso   1.00
C616   C     0.23567   0.73307   0.00880   0.00000  Uiso   1.00
C617   C     0.17905   0.77228   0.00523   0.00000  Uiso   1.00
C618   C     0.18815   0.84079   0.00579   0.00000  Uiso   1.00
C619   C     0.28365   0.63702   0.97103   0.00000  Uiso   1.00
C620   C     0.26735   0.59548   0.93571   0.00000  Uiso   1.00
C621   C     0.31684   0.58313   0.90447   0.00000  Uiso   1.00
H622   H     0.40345   0.73107   0.01934   0.00000  Uiso   1.00
H623   H     0.42489   0.67481   0.09578   0.00000  Uiso   1.00
H624   H     0.35746   0.85155   0.01643   0.00000  Uiso   1.00
H625   H     0.44575   0.67477   0.94692   0.00000  Uiso   1.00
H626   H     0.42066   0.60002   0.17878   0.00000  Uiso   1.00
H627   H     0.27847   0.97268   0.01144   0.00000  Uiso   1.00
H628   H     0.46465   0.59992   0.86488   0.00000  Uiso   1.00
H629   H     0.18777   0.63522   0.00580   0.00000  Uiso   1.00
H630   H     0.19737   0.57370   0.08149   0.00000  Uiso   1.00
H631   H     0.12994   0.75044   0.00214   0.00000  Uiso   1.00
H632   H     0.21823   0.57366   0.93264   0.00000  Uiso   1.00
H633   H     0.23600   0.51796   0.16718   0.00000  Uiso   1.00
H634   H     0.09381   0.89062   0.99985   0.00000  Uiso   1.00
H635   H     0.27999   0.51785   0.85328   0.00000  Uiso   1.00
O636   O     0.33853   0.52027   0.22303   0.00000  Uiso   1.00
O637   O     0.15199   0.00918   0.00348   0.00000  Uiso   1.00
O638   O     0.39625   0.52012   0.81119   0.00000  Uiso   1.00
N639   N     0.37589   0.58914   0.16566   0.00000  Uiso   1.00
N640   N     0.24295   0.93756   0.00922   0.00000  Uiso   1.00
N641   N     0.41700   0.58907   0.87218   0.00000  Uiso   1.00
N642   N     0.27652   0.54498   0.15942   0.00000  Uiso   1.00
N643   N     0.14359   0.89340   0.00298   0.00000  Uiso   1.00
N644   N     0.31764   0.54491   0.86594   0.00000  Uiso   1.00
C645   C     0.64596   0.29089   0.01624   0.00000  Uiso   1.00
C646   C     0.66422   0.33476   0.05589   0.00000  Uiso   1.00
C647   C     0.62422   0.34703   0.09271   0.00000  Uiso   1.00
C648   C     0.64997   0.38856   0.12544   0.00000  Uiso   1.00
C649   C     0.66868   0.45235   0.18762   0.00000  Uiso   1.00
C650   C     0.70086   0.23873   0.01278   0.00000  Uiso   1.00
C651   C     0.69167   0.17026   0.01335   0.00000  Uiso   1.00
C652   C     0.74826   0.13096   0.00979   0.00000  Uiso   1.00
C653   C     0.82385   0.04566   0.00501   0.00000  Uiso   1.00
C654   C     0.65288   0.33478   0.97502   0.00000  Uiso   1.00
C655   C     0.60336   0.34706   0.94383   0.00000  Uiso   1.00
C656   C     0.61958   0.38861   0.90847   0.00000  Uiso   1.00
C657   C     0.62068   0.45245   0.84506   0.00000  Uiso   1.00
C658   C     0.76281   0.34282   0.00890   0.00000  Uiso   1.00
C659   C     0.72769   0.36296   0.05190   0.00000  Uiso   1.00
C660   C     0.75351   0.40448   0.08459   0.00000  Uiso   1.00
C661   C     0.71356   0.41682   0.12145   0.00000  Uiso   1.00
C662   C     0.76433   0.26693   0.00880   0.00000  Uiso   1.00
C663   C     0.82095   0.22772   0.00523   0.00000  Uiso   1.00
C664   C     0.81185   0.15921   0.00579   0.00000  Uiso   1.00
C665   C     0.71635   0.36298   0.97103   0.00000  Uiso   1.00
C666   C     0.73265   0.40452   0.93571   0.00000  Uiso   1.00
C667   C     0.68316   0.41687   0.90447   0.00000  Uiso   1.00
H668   H     0.59655   0.26893   0.01934   0.00000  Uiso   1.00
H669   H     0.57511   0.32519   0.09578   0.00000  Uiso   1.00
H670   H     0.64254   0.14845   0.01643   0.00000  Uiso   1.00
H671   H     0.55425   0.32523   0.94692   0.00000  Uiso   1.00
H672   H     0.57934   0.39998   0.17878   0.00000  Uiso   1.00
H673   H     0.72153   0.02732   0.01144   0.00000  Uiso   1.00
H674   H     0.53535   0.40008   0.86488   0.00000  Uiso   1.00
H675   H     0.81223   0.36478   0.00580   0.00000  Uiso   1.00
H676   H     0.80263   0.42630   0.08149   0.00000  Uiso   1.00
H677   H     0.87006   0.24956   0.00214   0.00000  Uiso   1.00
H678   H     0.78177   0.42634   0.93264   0.00000  Uiso   1.00
H679   H     0.76400   0.48204   0.16718   0.00000  Uiso   1.00
H680   H     0.90619   0.10938   0.99985   0.00000  Uiso   1.00
H681   H     0.72001   0.48215   0.85328   0.00000  Uiso   1.00
O682   O     0.66147   0.47973   0.22303   0.00000  Uiso   1.00
O683   O     0.84801   0.99082   0.00348   0.00000  Uiso   1.00
O684   O     0.60375   0.47988   0.81119   0.00000  Uiso   1.00
N685   N     0.62411   0.41086   0.16566   0.00000  Uiso   1.00
N686   N     0.75705   0.06244   0.00922   0.00000  Uiso   1.00
N687   N     0.58300   0.41093   0.87218   0.00000  Uiso   1.00
N688   N     0.72348   0.45502   0.15942   0.00000  Uiso   1.00
N689   N     0.85641   0.10660   0.00298   0.00000  Uiso   1.00
N690   N     0.68236   0.45509   0.86594   0.00000  Uiso   1.00
C691   C     0.14596   0.79089   0.51624   0.00000  Uiso   1.00
C692   C     0.16422   0.83476   0.55589   0.00000  Uiso   1.00
C693   C     0.12422   0.84703   0.59271   0.00000  Uiso   1.00
C694   C     0.14997   0.88856   0.62544   0.00000  Uiso   1.00
C695   C     0.16868   0.95235   0.68762   0.00000  Uiso   1.00
C696   C     0.20086   0.73873   0.51278   0.00000  Uiso   1.00
C697   C     0.19167   0.67026   0.51335   0.00000  Uiso   1.00
C698   C     0.24826   0.63096   0.50979   0.00000  Uiso   1.00
C699   C     0.32385   0.54566   0.50501   0.00000  Uiso   1.00
C700   C     0.15288   0.83478   0.47502   0.00000  Uiso   1.00
C701   C     0.10336   0.84706   0.44383   0.00000  Uiso   1.00
C702   C     0.11958   0.88861   0.40847   0.00000  Uiso   1.00
C703   C     0.12068   0.95245   0.34506   0.00000  Uiso   1.00
C704   C     0.26281   0.84282   0.50890   0.00000  Uiso   1.00
C705   C     0.22769   0.86296   0.55190   0.00000  Uiso   1.00
C706   C     0.25351   0.90448   0.58459   0.00000  Uiso   1.00
C707   C     0.21356   0.91682   0.62145   0.00000  Uiso   1.00
C708   C     0.26433   0.76693   0.50880   0.00000  Uiso   1.00
C709   C     0.32095   0.72772   0.50523   0.00000  Uiso   1.00
C710   C     0.31185   0.65921   0.50579   0.00000  Uiso   1.00
C711   C     0.21635   0.86298   0.47103   0.00000  Uiso   1.00
C712   C     0.23265   0.90452   0.43571   0.00000  Uiso   1.00
C713   C     0.18316   0.91687   0.40447   0.00000  Uiso   1.00
H714   H     0.09655   0.76893   0.51934   0.00000  Uiso   1.00
H715   H     0.07511   0.82519   0.59578   0.00000  Uiso   1.00
H716   H     0.14254   0.64845   0.51643   0.00000  Uiso   1.00
H717   H     0.05425   0.82523   0.44692   0.00000  Uiso   1.00
H718   H     0.07934   0.89998   0.67878   0.00000  Uiso   1.00
H719   H     0.22153   0.52732   0.51144   0.00000  Uiso   1.00
H720   H     0.03535   0.90008   0.36488   0.00000  Uiso   1.00
H721   H     0.31223   0.86478   0.50580   0.00000  Uiso   1.00
H722   H     0.30263   0.92630   0.58149   0.00000  Uiso   1.00
H723   H     0.37006   0.74956   0.50214   0.00000  Uiso   1.00
H724   H     0.28177   0.92634   0.43264   0.00000  Uiso   1.00
H725   H     0.26400   0.98204   0.66718   0.00000  Uiso   1.00
H726   H     0.40619   0.60938   0.49985   0.00000  Uiso   1.00
H727   H     0.22001   0.98215   0.35328   0.00000  Uiso   1.00
O728   O     0.16147   0.97973   0.72303   0.00000  Uiso   1.00
O729   O     0.34801   0.49082   0.50348   0.00000  Uiso   1.00
O730   O     0.10375   0.97988   0.31119   0.00000  Uiso   1.00
N731   N     0.12411   0.91086   0.66566   0.00000  Uiso   1.00
N732   N     0.25705   0.56244   0.50922   0.00000  Uiso   1.00
N733   N     0.08300   0.91093   0.37218   0.00000  Uiso   1.00
N734   N     0.22348   0.95502   0.65942   0.00000  Uiso   1.00
N735   N     0.35641   0.60660   0.50298   0.00000  Uiso   1.00
N736   N     0.18236   0.95509   0.36594   0.00000  Uiso   1.00
