data_job_02368
_audit_creation_date              2018-12-19
_audit_creation_method            'Materials Studio'
_symmetry_space_group_name_H-M    'P1'
_symmetry_Int_Tables_number       1
_symmetry_cell_setting            triclinic
loop_
_symmetry_equiv_pos_as_xyz
  x,y,z
_cell_length_a                    38.8027
_cell_length_b                    11.9168
_cell_length_c                    28.9431
_cell_angle_alpha                 90.0000
_cell_angle_beta                  90.0000
_cell_angle_gamma                 90.0000
loop_
_atom_site_label
_atom_site_type_symbol
_atom_site_fract_x
_atom_site_fract_y
_atom_site_fract_z
_atom_site_U_iso_or_equiv
_atom_site_adp_type
_atom_site_occupancy
C1     C     0.66485   0.90443   0.06252   0.00000  Uiso   1.00
C2     C     0.68140   0.97585   0.10019   0.00000  Uiso   1.00
C3     C     0.70290   0.06727   0.09300   0.00000  Uiso   1.00
C4     C     0.71541   0.12150   0.13200   0.00000  Uiso   1.00
C5     C     0.74245   0.23783   0.18372   0.00000  Uiso   1.00
C6     C     0.67604   0.78397   0.07205   0.00000  Uiso   1.00
C7     C     0.69302   0.71405   0.04120   0.00000  Uiso   1.00
C8     C     0.70102   0.60674   0.05651   0.00000  Uiso   1.00
C9     C     0.71971   0.42515   0.06451   0.00000  Uiso   1.00
C10    C     0.62615   0.90808   0.07155   0.00000  Uiso   1.00
C11    C     0.60118   0.94248   0.04027   0.00000  Uiso   1.00
C12    C     0.56718   0.93964   0.05516   0.00000  Uiso   1.00
C13    C     0.50840   0.95074   0.06239   0.00000  Uiso   1.00
C14    C     0.64885   0.83819   0.14457   0.00000  Uiso   1.00
C15    C     0.67271   0.93986   0.14476   0.00000  Uiso   1.00
C16    C     0.68519   0.99397   0.18378   0.00000  Uiso   1.00
C17    C     0.70671   0.08545   0.17665   0.00000  Uiso   1.00
C18    C     0.66735   0.74798   0.11661   0.00000  Uiso   1.00
C19    C     0.67532   0.64075   0.13197   0.00000  Uiso   1.00
C20    C     0.69232   0.57069   0.10115   0.00000  Uiso   1.00
C21    C     0.61746   0.87210   0.11612   0.00000  Uiso   1.00
C22    C     0.58348   0.86919   0.13105   0.00000  Uiso   1.00
C23    C     0.55847   0.90359   0.09980   0.00000  Uiso   1.00
H24    H     0.67161   0.93244   0.02783   0.00000  Uiso   1.00
H25    H     0.70962   0.09508   0.05851   0.00000  Uiso   1.00
H26    H     0.69974   0.74191   0.00671   0.00000  Uiso   1.00
H27    H     0.60792   0.97032   0.00579   0.00000  Uiso   1.00
H28    H     0.74793   0.25950   0.11218   0.00000  Uiso   1.00
H29    H     0.72709   0.51482   0.00295   0.00000  Uiso   1.00
H30    H     0.53346   0.99645   0.00101   0.00000  Uiso   1.00
H31    H     0.64208   0.81017   0.17927   0.00000  Uiso   1.00
H32    H     0.67847   0.96611   0.21826   0.00000  Uiso   1.00
H33    H     0.66859   0.61294   0.16646   0.00000  Uiso   1.00
H34    H     0.57677   0.84134   0.16554   0.00000  Uiso   1.00
H35    H     0.72265   0.15482   0.24184   0.00000  Uiso   1.00
H36    H     0.70181   0.41013   0.13261   0.00000  Uiso   1.00
H37    H     0.50818   0.89177   0.13067   0.00000  Uiso   1.00
O38    O     0.75976   0.31192   0.19993   0.00000  Uiso   1.00
O39    O     0.73242   0.33493   0.05662   0.00000  Uiso   1.00
O40    O     0.47839   0.96682   0.05407   0.00000  Uiso   1.00
N41    N     0.73698   0.21348   0.13734   0.00000  Uiso   1.00
N42    N     0.71751   0.51725   0.03522   0.00000  Uiso   1.00
N43    N     0.53648   0.96751   0.03340   0.00000  Uiso   1.00
N44    N     0.72338   0.15715   0.20711   0.00000  Uiso   1.00
N45    N     0.70390   0.46092   0.10499   0.00000  Uiso   1.00
N46    N     0.52287   0.91118   0.10317   0.00000  Uiso   1.00
C47    C     0.16485   0.40443   0.56252   0.00000  Uiso   1.00
C48    C     0.18140   0.47585   0.60019   0.00000  Uiso   1.00
C49    C     0.20290   0.56727   0.59300   0.00000  Uiso   1.00
C50    C     0.21541   0.62150   0.63200   0.00000  Uiso   1.00
C51    C     0.24245   0.73783   0.68372   0.00000  Uiso   1.00
C52    C     0.17604   0.28397   0.57205   0.00000  Uiso   1.00
C53    C     0.19302   0.21405   0.54120   0.00000  Uiso   1.00
C54    C     0.20102   0.10674   0.55651   0.00000  Uiso   1.00
C55    C     0.21971   0.92515   0.56451   0.00000  Uiso   1.00
C56    C     0.12615   0.40808   0.57155   0.00000  Uiso   1.00
C57    C     0.10118   0.44248   0.54027   0.00000  Uiso   1.00
C58    C     0.06718   0.43964   0.55516   0.00000  Uiso   1.00
C59    C     0.00840   0.45074   0.56239   0.00000  Uiso   1.00
C60    C     0.14885   0.33819   0.64457   0.00000  Uiso   1.00
C61    C     0.17271   0.43986   0.64476   0.00000  Uiso   1.00
C62    C     0.18519   0.49397   0.68378   0.00000  Uiso   1.00
C63    C     0.20671   0.58545   0.67665   0.00000  Uiso   1.00
C64    C     0.16735   0.24798   0.61661   0.00000  Uiso   1.00
C65    C     0.17532   0.14075   0.63197   0.00000  Uiso   1.00
C66    C     0.19232   0.07069   0.60115   0.00000  Uiso   1.00
C67    C     0.11746   0.37210   0.61612   0.00000  Uiso   1.00
C68    C     0.08348   0.36919   0.63105   0.00000  Uiso   1.00
C69    C     0.05847   0.40359   0.59980   0.00000  Uiso   1.00
H70    H     0.17161   0.43244   0.52783   0.00000  Uiso   1.00
H71    H     0.20962   0.59508   0.55851   0.00000  Uiso   1.00
H72    H     0.19974   0.24191   0.50671   0.00000  Uiso   1.00
H73    H     0.10792   0.47032   0.50579   0.00000  Uiso   1.00
H74    H     0.24793   0.75950   0.61218   0.00000  Uiso   1.00
H75    H     0.22709   0.01482   0.50295   0.00000  Uiso   1.00
H76    H     0.03346   0.49645   0.50101   0.00000  Uiso   1.00
H77    H     0.14208   0.31017   0.67927   0.00000  Uiso   1.00
H78    H     0.17847   0.46611   0.71826   0.00000  Uiso   1.00
H79    H     0.16859   0.11294   0.66646   0.00000  Uiso   1.00
H80    H     0.07677   0.34134   0.66554   0.00000  Uiso   1.00
H81    H     0.22265   0.65482   0.74184   0.00000  Uiso   1.00
H82    H     0.20181   0.91013   0.63261   0.00000  Uiso   1.00
H83    H     0.00818   0.39177   0.63067   0.00000  Uiso   1.00
O84    O     0.25976   0.81192   0.69993   0.00000  Uiso   1.00
O85    O     0.23242   0.83493   0.55662   0.00000  Uiso   1.00
O86    O     0.97839   0.46682   0.55407   0.00000  Uiso   1.00
N87    N     0.23698   0.71348   0.63734   0.00000  Uiso   1.00
N88    N     0.21751   0.01725   0.53522   0.00000  Uiso   1.00
N89    N     0.03648   0.46751   0.53340   0.00000  Uiso   1.00
N90    N     0.22338   0.65715   0.70711   0.00000  Uiso   1.00
N91    N     0.20390   0.96092   0.60499   0.00000  Uiso   1.00
N92    N     0.02287   0.41118   0.60317   0.00000  Uiso   1.00
C93    C     0.83515   0.09557   0.56252   0.00000  Uiso   1.00
C94    C     0.81860   0.02415   0.60019   0.00000  Uiso   1.00
C95    C     0.79710   0.93273   0.59300   0.00000  Uiso   1.00
C96    C     0.78459   0.87850   0.63200   0.00000  Uiso   1.00
C97    C     0.75755   0.76217   0.68372   0.00000  Uiso   1.00
C98    C     0.82396   0.21603   0.57205   0.00000  Uiso   1.00
C99    C     0.80698   0.28595   0.54120   0.00000  Uiso   1.00
C100   C     0.79898   0.39326   0.55651   0.00000  Uiso   1.00
C101   C     0.78029   0.57485   0.56451   0.00000  Uiso   1.00
C102   C     0.87385   0.09192   0.57155   0.00000  Uiso   1.00
C103   C     0.89882   0.05752   0.54027   0.00000  Uiso   1.00
C104   C     0.93282   0.06036   0.55516   0.00000  Uiso   1.00
C105   C     0.99160   0.04926   0.56239   0.00000  Uiso   1.00
C106   C     0.85115   0.16181   0.64457   0.00000  Uiso   1.00
C107   C     0.82729   0.06014   0.64476   0.00000  Uiso   1.00
C108   C     0.81481   0.00603   0.68378   0.00000  Uiso   1.00
C109   C     0.79329   0.91455   0.67665   0.00000  Uiso   1.00
C110   C     0.83265   0.25202   0.61661   0.00000  Uiso   1.00
C111   C     0.82468   0.35925   0.63197   0.00000  Uiso   1.00
C112   C     0.80768   0.42931   0.60115   0.00000  Uiso   1.00
C113   C     0.88254   0.12790   0.61612   0.00000  Uiso   1.00
C114   C     0.91652   0.13081   0.63105   0.00000  Uiso   1.00
C115   C     0.94153   0.09641   0.59980   0.00000  Uiso   1.00
H116   H     0.82839   0.06756   0.52783   0.00000  Uiso   1.00
H117   H     0.79038   0.90492   0.55851   0.00000  Uiso   1.00
H118   H     0.80026   0.25809   0.50671   0.00000  Uiso   1.00
H119   H     0.89208   0.02968   0.50579   0.00000  Uiso   1.00
H120   H     0.75207   0.74050   0.61218   0.00000  Uiso   1.00
H121   H     0.77291   0.48518   0.50295   0.00000  Uiso   1.00
H122   H     0.96654   0.00355   0.50101   0.00000  Uiso   1.00
H123   H     0.85792   0.18983   0.67927   0.00000  Uiso   1.00
H124   H     0.82153   0.03389   0.71826   0.00000  Uiso   1.00
H125   H     0.83141   0.38706   0.66646   0.00000  Uiso   1.00
H126   H     0.92323   0.15866   0.66554   0.00000  Uiso   1.00
H127   H     0.77735   0.84518   0.74184   0.00000  Uiso   1.00
H128   H     0.79819   0.58987   0.63261   0.00000  Uiso   1.00
H129   H     0.99182   0.10823   0.63067   0.00000  Uiso   1.00
O130   O     0.74024   0.68808   0.69993   0.00000  Uiso   1.00
O131   O     0.76758   0.66507   0.55662   0.00000  Uiso   1.00
O132   O     0.02161   0.03318   0.55407   0.00000  Uiso   1.00
N133   N     0.76302   0.78652   0.63734   0.00000  Uiso   1.00
N134   N     0.78249   0.48275   0.53522   0.00000  Uiso   1.00
N135   N     0.96352   0.03249   0.53340   0.00000  Uiso   1.00
N136   N     0.77662   0.84285   0.70711   0.00000  Uiso   1.00
N137   N     0.79610   0.53908   0.60499   0.00000  Uiso   1.00
N138   N     0.97713   0.08882   0.60317   0.00000  Uiso   1.00
C139   C     0.33515   0.59557   0.06252   0.00000  Uiso   1.00
C140   C     0.31860   0.52415   0.10019   0.00000  Uiso   1.00
C141   C     0.29710   0.43273   0.09300   0.00000  Uiso   1.00
C142   C     0.28459   0.37850   0.13200   0.00000  Uiso   1.00
C143   C     0.25755   0.26217   0.18372   0.00000  Uiso   1.00
C144   C     0.32396   0.71603   0.07205   0.00000  Uiso   1.00
C145   C     0.30698   0.78595   0.04120   0.00000  Uiso   1.00
C146   C     0.29898   0.89326   0.05651   0.00000  Uiso   1.00
C147   C     0.28029   0.07485   0.06451   0.00000  Uiso   1.00
C148   C     0.37385   0.59192   0.07155   0.00000  Uiso   1.00
C149   C     0.39882   0.55752   0.04027   0.00000  Uiso   1.00
C150   C     0.43282   0.56036   0.05516   0.00000  Uiso   1.00
C151   C     0.49160   0.54926   0.06239   0.00000  Uiso   1.00
C152   C     0.35115   0.66181   0.14457   0.00000  Uiso   1.00
C153   C     0.32729   0.56014   0.14476   0.00000  Uiso   1.00
C154   C     0.31481   0.50603   0.18378   0.00000  Uiso   1.00
C155   C     0.29329   0.41455   0.17665   0.00000  Uiso   1.00
C156   C     0.33265   0.75202   0.11661   0.00000  Uiso   1.00
C157   C     0.32468   0.85925   0.13197   0.00000  Uiso   1.00
C158   C     0.30768   0.92931   0.10115   0.00000  Uiso   1.00
C159   C     0.38254   0.62790   0.11612   0.00000  Uiso   1.00
C160   C     0.41652   0.63081   0.13105   0.00000  Uiso   1.00
C161   C     0.44153   0.59641   0.09980   0.00000  Uiso   1.00
H162   H     0.32839   0.56756   0.02783   0.00000  Uiso   1.00
H163   H     0.29038   0.40492   0.05851   0.00000  Uiso   1.00
H164   H     0.30026   0.75809   0.00671   0.00000  Uiso   1.00
H165   H     0.39208   0.52968   0.00579   0.00000  Uiso   1.00
H166   H     0.25207   0.24050   0.11218   0.00000  Uiso   1.00
H167   H     0.27291   0.98518   0.00295   0.00000  Uiso   1.00
H168   H     0.46654   0.50355   0.00101   0.00000  Uiso   1.00
H169   H     0.35792   0.68983   0.17927   0.00000  Uiso   1.00
H170   H     0.32153   0.53389   0.21826   0.00000  Uiso   1.00
H171   H     0.33141   0.88706   0.16646   0.00000  Uiso   1.00
H172   H     0.42323   0.65866   0.16554   0.00000  Uiso   1.00
H173   H     0.27735   0.34518   0.24184   0.00000  Uiso   1.00
H174   H     0.29819   0.08987   0.13261   0.00000  Uiso   1.00
H175   H     0.49182   0.60823   0.13067   0.00000  Uiso   1.00
O176   O     0.24024   0.18808   0.19993   0.00000  Uiso   1.00
O177   O     0.26758   0.16507   0.05662   0.00000  Uiso   1.00
O178   O     0.52161   0.53318   0.05407   0.00000  Uiso   1.00
N179   N     0.26302   0.28652   0.13734   0.00000  Uiso   1.00
N180   N     0.28249   0.98275   0.03522   0.00000  Uiso   1.00
N181   N     0.46352   0.53249   0.03340   0.00000  Uiso   1.00
N182   N     0.27662   0.34285   0.20711   0.00000  Uiso   1.00
N183   N     0.29610   0.03908   0.10499   0.00000  Uiso   1.00
N184   N     0.47713   0.58882   0.10317   0.00000  Uiso   1.00
C185   C     0.33515   0.40443   0.43748   0.00000  Uiso   1.00
C186   C     0.31860   0.47585   0.39981   0.00000  Uiso   1.00
C187   C     0.29710   0.56727   0.40700   0.00000  Uiso   1.00
C188   C     0.28459   0.62150   0.36800   0.00000  Uiso   1.00
C189   C     0.25755   0.73783   0.31628   0.00000  Uiso   1.00
C190   C     0.32396   0.28397   0.42795   0.00000  Uiso   1.00
C191   C     0.30698   0.21405   0.45880   0.00000  Uiso   1.00
C192   C     0.29898   0.10674   0.44349   0.00000  Uiso   1.00
C193   C     0.28029   0.92515   0.43549   0.00000  Uiso   1.00
C194   C     0.37385   0.40808   0.42845   0.00000  Uiso   1.00
C195   C     0.39882   0.44248   0.45973   0.00000  Uiso   1.00
C196   C     0.43282   0.43964   0.44484   0.00000  Uiso   1.00
C197   C     0.49160   0.45074   0.43761   0.00000  Uiso   1.00
C198   C     0.35115   0.33819   0.35543   0.00000  Uiso   1.00
C199   C     0.32729   0.43986   0.35524   0.00000  Uiso   1.00
C200   C     0.31481   0.49397   0.31622   0.00000  Uiso   1.00
C201   C     0.29329   0.58545   0.32335   0.00000  Uiso   1.00
C202   C     0.33265   0.24798   0.38339   0.00000  Uiso   1.00
C203   C     0.32468   0.14075   0.36803   0.00000  Uiso   1.00
C204   C     0.30768   0.07069   0.39885   0.00000  Uiso   1.00
C205   C     0.38254   0.37210   0.38388   0.00000  Uiso   1.00
C206   C     0.41652   0.36919   0.36895   0.00000  Uiso   1.00
C207   C     0.44153   0.40359   0.40020   0.00000  Uiso   1.00
H208   H     0.32839   0.43244   0.47217   0.00000  Uiso   1.00
H209   H     0.29038   0.59508   0.44149   0.00000  Uiso   1.00
H210   H     0.30026   0.24191   0.49329   0.00000  Uiso   1.00
H211   H     0.39208   0.47032   0.49421   0.00000  Uiso   1.00
H212   H     0.25207   0.75950   0.38782   0.00000  Uiso   1.00
H213   H     0.27291   0.01482   0.49705   0.00000  Uiso   1.00
H214   H     0.46654   0.49645   0.49899   0.00000  Uiso   1.00
H215   H     0.35792   0.31017   0.32073   0.00000  Uiso   1.00
H216   H     0.32153   0.46611   0.28174   0.00000  Uiso   1.00
H217   H     0.33141   0.11294   0.33354   0.00000  Uiso   1.00
H218   H     0.42323   0.34134   0.33446   0.00000  Uiso   1.00
H219   H     0.27735   0.65482   0.25816   0.00000  Uiso   1.00
H220   H     0.29819   0.91013   0.36739   0.00000  Uiso   1.00
H221   H     0.49182   0.39177   0.36933   0.00000  Uiso   1.00
O222   O     0.24024   0.81192   0.30007   0.00000  Uiso   1.00
O223   O     0.26758   0.83493   0.44338   0.00000  Uiso   1.00
O224   O     0.52161   0.46682   0.44593   0.00000  Uiso   1.00
N225   N     0.26302   0.71348   0.36266   0.00000  Uiso   1.00
N226   N     0.28249   0.01725   0.46478   0.00000  Uiso   1.00
N227   N     0.46352   0.46751   0.46660   0.00000  Uiso   1.00
N228   N     0.27662   0.65715   0.29289   0.00000  Uiso   1.00
N229   N     0.29610   0.96092   0.39501   0.00000  Uiso   1.00
N230   N     0.47713   0.41118   0.39683   0.00000  Uiso   1.00
C231   C     0.83515   0.90443   0.93748   0.00000  Uiso   1.00
C232   C     0.81860   0.97585   0.89981   0.00000  Uiso   1.00
C233   C     0.79710   0.06727   0.90700   0.00000  Uiso   1.00
C234   C     0.78459   0.12150   0.86800   0.00000  Uiso   1.00
C235   C     0.75755   0.23783   0.81628   0.00000  Uiso   1.00
C236   C     0.82396   0.78397   0.92795   0.00000  Uiso   1.00
C237   C     0.80698   0.71405   0.95880   0.00000  Uiso   1.00
C238   C     0.79898   0.60674   0.94349   0.00000  Uiso   1.00
C239   C     0.78029   0.42515   0.93549   0.00000  Uiso   1.00
C240   C     0.87385   0.90808   0.92845   0.00000  Uiso   1.00
C241   C     0.89882   0.94248   0.95973   0.00000  Uiso   1.00
C242   C     0.93282   0.93964   0.94484   0.00000  Uiso   1.00
C243   C     0.99160   0.95074   0.93761   0.00000  Uiso   1.00
C244   C     0.85115   0.83819   0.85543   0.00000  Uiso   1.00
C245   C     0.82729   0.93986   0.85524   0.00000  Uiso   1.00
C246   C     0.81481   0.99397   0.81622   0.00000  Uiso   1.00
C247   C     0.79329   0.08545   0.82335   0.00000  Uiso   1.00
C248   C     0.83265   0.74798   0.88339   0.00000  Uiso   1.00
C249   C     0.82468   0.64075   0.86803   0.00000  Uiso   1.00
C250   C     0.80768   0.57069   0.89885   0.00000  Uiso   1.00
C251   C     0.88254   0.87210   0.88388   0.00000  Uiso   1.00
C252   C     0.91652   0.86919   0.86895   0.00000  Uiso   1.00
C253   C     0.94153   0.90359   0.90020   0.00000  Uiso   1.00
H254   H     0.82839   0.93244   0.97217   0.00000  Uiso   1.00
H255   H     0.79038   0.09508   0.94149   0.00000  Uiso   1.00
H256   H     0.80026   0.74191   0.99329   0.00000  Uiso   1.00
H257   H     0.89208   0.97032   0.99421   0.00000  Uiso   1.00
H258   H     0.75207   0.25950   0.88782   0.00000  Uiso   1.00
H259   H     0.77291   0.51482   0.99705   0.00000  Uiso   1.00
H260   H     0.96654   0.99645   0.99899   0.00000  Uiso   1.00
H261   H     0.85792   0.81017   0.82073   0.00000  Uiso   1.00
H262   H     0.82153   0.96611   0.78174   0.00000  Uiso   1.00
H263   H     0.83141   0.61294   0.83354   0.00000  Uiso   1.00
H264   H     0.92323   0.84134   0.83446   0.00000  Uiso   1.00
H265   H     0.77735   0.15482   0.75816   0.00000  Uiso   1.00
H266   H     0.79819   0.41013   0.86739   0.00000  Uiso   1.00
H267   H     0.99182   0.89177   0.86933   0.00000  Uiso   1.00
O268   O     0.74024   0.31192   0.80007   0.00000  Uiso   1.00
O269   O     0.76758   0.33493   0.94338   0.00000  Uiso   1.00
O270   O     0.02161   0.96682   0.94593   0.00000  Uiso   1.00
N271   N     0.76302   0.21348   0.86266   0.00000  Uiso   1.00
N272   N     0.78249   0.51725   0.96478   0.00000  Uiso   1.00
N273   N     0.96352   0.96751   0.96660   0.00000  Uiso   1.00
N274   N     0.77662   0.15715   0.79289   0.00000  Uiso   1.00
N275   N     0.79610   0.46092   0.89501   0.00000  Uiso   1.00
N276   N     0.97713   0.91118   0.89683   0.00000  Uiso   1.00
C277   C     0.16485   0.59557   0.93748   0.00000  Uiso   1.00
C278   C     0.18140   0.52415   0.89981   0.00000  Uiso   1.00
C279   C     0.20290   0.43273   0.90700   0.00000  Uiso   1.00
C280   C     0.21541   0.37850   0.86800   0.00000  Uiso   1.00
C281   C     0.24245   0.26217   0.81628   0.00000  Uiso   1.00
C282   C     0.17604   0.71603   0.92795   0.00000  Uiso   1.00
C283   C     0.19302   0.78595   0.95880   0.00000  Uiso   1.00
C284   C     0.20102   0.89326   0.94349   0.00000  Uiso   1.00
C285   C     0.21971   0.07485   0.93549   0.00000  Uiso   1.00
C286   C     0.12615   0.59192   0.92845   0.00000  Uiso   1.00
C287   C     0.10118   0.55752   0.95973   0.00000  Uiso   1.00
C288   C     0.06718   0.56036   0.94484   0.00000  Uiso   1.00
C289   C     0.00840   0.54926   0.93761   0.00000  Uiso   1.00
C290   C     0.14885   0.66181   0.85543   0.00000  Uiso   1.00
C291   C     0.17271   0.56014   0.85524   0.00000  Uiso   1.00
C292   C     0.18519   0.50603   0.81622   0.00000  Uiso   1.00
C293   C     0.20671   0.41455   0.82335   0.00000  Uiso   1.00
C294   C     0.16735   0.75202   0.88339   0.00000  Uiso   1.00
C295   C     0.17532   0.85925   0.86803   0.00000  Uiso   1.00
C296   C     0.19232   0.92931   0.89885   0.00000  Uiso   1.00
C297   C     0.11746   0.62790   0.88388   0.00000  Uiso   1.00
C298   C     0.08348   0.63081   0.86895   0.00000  Uiso   1.00
C299   C     0.05847   0.59641   0.90020   0.00000  Uiso   1.00
H300   H     0.17161   0.56756   0.97217   0.00000  Uiso   1.00
H301   H     0.20962   0.40492   0.94149   0.00000  Uiso   1.00
H302   H     0.19974   0.75809   0.99329   0.00000  Uiso   1.00
H303   H     0.10792   0.52968   0.99421   0.00000  Uiso   1.00
H304   H     0.24793   0.24050   0.88782   0.00000  Uiso   1.00
H305   H     0.22709   0.98518   0.99705   0.00000  Uiso   1.00
H306   H     0.03346   0.50355   0.99899   0.00000  Uiso   1.00
H307   H     0.14208   0.68983   0.82073   0.00000  Uiso   1.00
H308   H     0.17847   0.53389   0.78174   0.00000  Uiso   1.00
H309   H     0.16859   0.88706   0.83354   0.00000  Uiso   1.00
H310   H     0.07677   0.65866   0.83446   0.00000  Uiso   1.00
H311   H     0.22265   0.34518   0.75816   0.00000  Uiso   1.00
H312   H     0.20181   0.08987   0.86739   0.00000  Uiso   1.00
H313   H     0.00818   0.60823   0.86933   0.00000  Uiso   1.00
O314   O     0.25976   0.18808   0.80007   0.00000  Uiso   1.00
O315   O     0.23242   0.16507   0.94338   0.00000  Uiso   1.00
O316   O     0.97839   0.53318   0.94593   0.00000  Uiso   1.00
N317   N     0.23698   0.28652   0.86266   0.00000  Uiso   1.00
N318   N     0.21751   0.98275   0.96478   0.00000  Uiso   1.00
N319   N     0.03648   0.53249   0.96660   0.00000  Uiso   1.00
N320   N     0.22338   0.34285   0.79289   0.00000  Uiso   1.00
N321   N     0.20390   0.03908   0.89501   0.00000  Uiso   1.00
N322   N     0.02287   0.58882   0.89683   0.00000  Uiso   1.00
C323   C     0.66485   0.09557   0.43748   0.00000  Uiso   1.00
C324   C     0.68140   0.02415   0.39981   0.00000  Uiso   1.00
C325   C     0.70290   0.93273   0.40700   0.00000  Uiso   1.00
C326   C     0.71541   0.87850   0.36800   0.00000  Uiso   1.00
C327   C     0.74245   0.76217   0.31628   0.00000  Uiso   1.00
C328   C     0.67604   0.21603   0.42795   0.00000  Uiso   1.00
C329   C     0.69302   0.28595   0.45880   0.00000  Uiso   1.00
C330   C     0.70102   0.39326   0.44349   0.00000  Uiso   1.00
C331   C     0.71971   0.57485   0.43549   0.00000  Uiso   1.00
C332   C     0.62615   0.09192   0.42845   0.00000  Uiso   1.00
C333   C     0.60118   0.05752   0.45973   0.00000  Uiso   1.00
C334   C     0.56718   0.06036   0.44484   0.00000  Uiso   1.00
C335   C     0.50840   0.04926   0.43761   0.00000  Uiso   1.00
C336   C     0.64885   0.16181   0.35543   0.00000  Uiso   1.00
C337   C     0.67271   0.06014   0.35524   0.00000  Uiso   1.00
C338   C     0.68519   0.00603   0.31622   0.00000  Uiso   1.00
C339   C     0.70671   0.91455   0.32335   0.00000  Uiso   1.00
C340   C     0.66735   0.25202   0.38339   0.00000  Uiso   1.00
C341   C     0.67532   0.35925   0.36803   0.00000  Uiso   1.00
C342   C     0.69232   0.42931   0.39885   0.00000  Uiso   1.00
C343   C     0.61746   0.12790   0.38388   0.00000  Uiso   1.00
C344   C     0.58348   0.13081   0.36895   0.00000  Uiso   1.00
C345   C     0.55847   0.09641   0.40020   0.00000  Uiso   1.00
H346   H     0.67161   0.06756   0.47217   0.00000  Uiso   1.00
H347   H     0.70962   0.90492   0.44149   0.00000  Uiso   1.00
H348   H     0.69974   0.25809   0.49329   0.00000  Uiso   1.00
H349   H     0.60792   0.02968   0.49421   0.00000  Uiso   1.00
H350   H     0.74793   0.74050   0.38782   0.00000  Uiso   1.00
H351   H     0.72709   0.48518   0.49705   0.00000  Uiso   1.00
H352   H     0.53346   0.00355   0.49899   0.00000  Uiso   1.00
H353   H     0.64208   0.18983   0.32073   0.00000  Uiso   1.00
H354   H     0.67847   0.03389   0.28174   0.00000  Uiso   1.00
H355   H     0.66859   0.38706   0.33354   0.00000  Uiso   1.00
H356   H     0.57677   0.15866   0.33446   0.00000  Uiso   1.00
H357   H     0.72265   0.84518   0.25816   0.00000  Uiso   1.00
H358   H     0.70181   0.58987   0.36739   0.00000  Uiso   1.00
H359   H     0.50818   0.10823   0.36933   0.00000  Uiso   1.00
O360   O     0.75976   0.68808   0.30007   0.00000  Uiso   1.00
O361   O     0.73242   0.66507   0.44338   0.00000  Uiso   1.00
O362   O     0.47839   0.03318   0.44593   0.00000  Uiso   1.00
N363   N     0.73698   0.78652   0.36266   0.00000  Uiso   1.00
N364   N     0.71751   0.48275   0.46478   0.00000  Uiso   1.00
N365   N     0.53648   0.03249   0.46660   0.00000  Uiso   1.00
N366   N     0.72338   0.84285   0.29289   0.00000  Uiso   1.00
N367   N     0.70390   0.53908   0.39501   0.00000  Uiso   1.00
N368   N     0.52287   0.08882   0.39683   0.00000  Uiso   1.00
C369   C     0.33515   0.09557   0.93748   0.00000  Uiso   1.00
C370   C     0.31860   0.02415   0.89981   0.00000  Uiso   1.00
C371   C     0.29710   0.93273   0.90700   0.00000  Uiso   1.00
C372   C     0.28459   0.87850   0.86800   0.00000  Uiso   1.00
C373   C     0.25755   0.76217   0.81628   0.00000  Uiso   1.00
C374   C     0.32396   0.21603   0.92795   0.00000  Uiso   1.00
C375   C     0.30698   0.28595   0.95880   0.00000  Uiso   1.00
C376   C     0.29898   0.39326   0.94349   0.00000  Uiso   1.00
C377   C     0.28029   0.57485   0.93549   0.00000  Uiso   1.00
C378   C     0.37385   0.09192   0.92845   0.00000  Uiso   1.00
C379   C     0.39882   0.05752   0.95973   0.00000  Uiso   1.00
C380   C     0.43282   0.06036   0.94484   0.00000  Uiso   1.00
C381   C     0.49160   0.04926   0.93761   0.00000  Uiso   1.00
C382   C     0.35115   0.16181   0.85543   0.00000  Uiso   1.00
C383   C     0.32729   0.06014   0.85524   0.00000  Uiso   1.00
C384   C     0.31481   0.00603   0.81622   0.00000  Uiso   1.00
C385   C     0.29329   0.91455   0.82335   0.00000  Uiso   1.00
C386   C     0.33265   0.25202   0.88339   0.00000  Uiso   1.00
C387   C     0.32468   0.35925   0.86803   0.00000  Uiso   1.00
C388   C     0.30768   0.42931   0.89885   0.00000  Uiso   1.00
C389   C     0.38254   0.12790   0.88388   0.00000  Uiso   1.00
C390   C     0.41652   0.13081   0.86895   0.00000  Uiso   1.00
C391   C     0.44153   0.09641   0.90020   0.00000  Uiso   1.00
H392   H     0.32839   0.06756   0.97217   0.00000  Uiso   1.00
H393   H     0.29038   0.90492   0.94149   0.00000  Uiso   1.00
H394   H     0.30026   0.25809   0.99329   0.00000  Uiso   1.00
H395   H     0.39208   0.02968   0.99421   0.00000  Uiso   1.00
H396   H     0.25207   0.74050   0.88782   0.00000  Uiso   1.00
H397   H     0.27291   0.48518   0.99705   0.00000  Uiso   1.00
H398   H     0.46654   0.00355   0.99899   0.00000  Uiso   1.00
H399   H     0.35792   0.18983   0.82073   0.00000  Uiso   1.00
H400   H     0.32153   0.03389   0.78174   0.00000  Uiso   1.00
H401   H     0.33141   0.38706   0.83354   0.00000  Uiso   1.00
H402   H     0.42323   0.15866   0.83446   0.00000  Uiso   1.00
H403   H     0.27735   0.84518   0.75816   0.00000  Uiso   1.00
H404   H     0.29819   0.58987   0.86739   0.00000  Uiso   1.00
H405   H     0.49182   0.10823   0.86933   0.00000  Uiso   1.00
O406   O     0.24024   0.68808   0.80007   0.00000  Uiso   1.00
O407   O     0.26758   0.66507   0.94338   0.00000  Uiso   1.00
O408   O     0.52161   0.03318   0.94593   0.00000  Uiso   1.00
N409   N     0.26302   0.78652   0.86266   0.00000  Uiso   1.00
N410   N     0.28249   0.48275   0.96478   0.00000  Uiso   1.00
N411   N     0.46352   0.03249   0.96660   0.00000  Uiso   1.00
N412   N     0.27662   0.84285   0.79289   0.00000  Uiso   1.00
N413   N     0.29610   0.53908   0.89501   0.00000  Uiso   1.00
N414   N     0.47713   0.08882   0.89683   0.00000  Uiso   1.00
C415   C     0.83515   0.59557   0.43748   0.00000  Uiso   1.00
C416   C     0.81860   0.52415   0.39981   0.00000  Uiso   1.00
C417   C     0.79710   0.43273   0.40700   0.00000  Uiso   1.00
C418   C     0.78459   0.37850   0.36800   0.00000  Uiso   1.00
C419   C     0.75755   0.26217   0.31628   0.00000  Uiso   1.00
C420   C     0.82396   0.71603   0.42795   0.00000  Uiso   1.00
C421   C     0.80698   0.78595   0.45880   0.00000  Uiso   1.00
C422   C     0.79898   0.89326   0.44349   0.00000  Uiso   1.00
C423   C     0.78029   0.07485   0.43549   0.00000  Uiso   1.00
C424   C     0.87385   0.59192   0.42845   0.00000  Uiso   1.00
C425   C     0.89882   0.55752   0.45973   0.00000  Uiso   1.00
C426   C     0.93282   0.56036   0.44484   0.00000  Uiso   1.00
C427   C     0.99160   0.54926   0.43761   0.00000  Uiso   1.00
C428   C     0.85115   0.66181   0.35543   0.00000  Uiso   1.00
C429   C     0.82729   0.56014   0.35524   0.00000  Uiso   1.00
C430   C     0.81481   0.50603   0.31622   0.00000  Uiso   1.00
C431   C     0.79329   0.41455   0.32335   0.00000  Uiso   1.00
C432   C     0.83265   0.75202   0.38339   0.00000  Uiso   1.00
C433   C     0.82468   0.85925   0.36803   0.00000  Uiso   1.00
C434   C     0.80768   0.92931   0.39885   0.00000  Uiso   1.00
C435   C     0.88254   0.62790   0.38388   0.00000  Uiso   1.00
C436   C     0.91652   0.63081   0.36895   0.00000  Uiso   1.00
C437   C     0.94153   0.59641   0.40020   0.00000  Uiso   1.00
H438   H     0.82839   0.56756   0.47217   0.00000  Uiso   1.00
H439   H     0.79038   0.40492   0.44149   0.00000  Uiso   1.00
H440   H     0.80026   0.75809   0.49329   0.00000  Uiso   1.00
H441   H     0.89208   0.52968   0.49421   0.00000  Uiso   1.00
H442   H     0.75207   0.24050   0.38782   0.00000  Uiso   1.00
H443   H     0.77291   0.98518   0.49705   0.00000  Uiso   1.00
H444   H     0.96654   0.50355   0.49899   0.00000  Uiso   1.00
H445   H     0.85792   0.68983   0.32073   0.00000  Uiso   1.00
H446   H     0.82153   0.53389   0.28174   0.00000  Uiso   1.00
H447   H     0.83141   0.88706   0.33354   0.00000  Uiso   1.00
H448   H     0.92323   0.65866   0.33446   0.00000  Uiso   1.00
H449   H     0.77735   0.34518   0.25816   0.00000  Uiso   1.00
H450   H     0.79819   0.08987   0.36739   0.00000  Uiso   1.00
H451   H     0.99182   0.60823   0.36933   0.00000  Uiso   1.00
O452   O     0.74024   0.18808   0.30007   0.00000  Uiso   1.00
O453   O     0.76758   0.16507   0.44338   0.00000  Uiso   1.00
O454   O     0.02161   0.53318   0.44593   0.00000  Uiso   1.00
N455   N     0.76302   0.28652   0.36266   0.00000  Uiso   1.00
N456   N     0.78249   0.98275   0.46478   0.00000  Uiso   1.00
N457   N     0.96352   0.53249   0.46660   0.00000  Uiso   1.00
N458   N     0.77662   0.34285   0.29289   0.00000  Uiso   1.00
N459   N     0.79610   0.03908   0.39501   0.00000  Uiso   1.00
N460   N     0.97713   0.58882   0.39683   0.00000  Uiso   1.00
C461   C     0.16485   0.90443   0.43748   0.00000  Uiso   1.00
C462   C     0.18140   0.97585   0.39981   0.00000  Uiso   1.00
C463   C     0.20290   0.06727   0.40700   0.00000  Uiso   1.00
C464   C     0.21541   0.12150   0.36800   0.00000  Uiso   1.00
C465   C     0.24245   0.23783   0.31628   0.00000  Uiso   1.00
C466   C     0.17604   0.78397   0.42795   0.00000  Uiso   1.00
C467   C     0.19302   0.71405   0.45880   0.00000  Uiso   1.00
C468   C     0.20102   0.60674   0.44349   0.00000  Uiso   1.00
C469   C     0.21971   0.42515   0.43549   0.00000  Uiso   1.00
C470   C     0.12615   0.90808   0.42845   0.00000  Uiso   1.00
C471   C     0.10118   0.94248   0.45973   0.00000  Uiso   1.00
C472   C     0.06718   0.93964   0.44484   0.00000  Uiso   1.00
C473   C     0.00840   0.95074   0.43761   0.00000  Uiso   1.00
C474   C     0.14885   0.83819   0.35543   0.00000  Uiso   1.00
C475   C     0.17271   0.93986   0.35524   0.00000  Uiso   1.00
C476   C     0.18519   0.99397   0.31622   0.00000  Uiso   1.00
C477   C     0.20671   0.08545   0.32335   0.00000  Uiso   1.00
C478   C     0.16735   0.74798   0.38339   0.00000  Uiso   1.00
C479   C     0.17532   0.64075   0.36803   0.00000  Uiso   1.00
C480   C     0.19232   0.57069   0.39885   0.00000  Uiso   1.00
C481   C     0.11746   0.87210   0.38388   0.00000  Uiso   1.00
C482   C     0.08348   0.86919   0.36895   0.00000  Uiso   1.00
C483   C     0.05847   0.90359   0.40020   0.00000  Uiso   1.00
H484   H     0.17161   0.93244   0.47217   0.00000  Uiso   1.00
H485   H     0.20962   0.09508   0.44149   0.00000  Uiso   1.00
H486   H     0.19974   0.74191   0.49329   0.00000  Uiso   1.00
H487   H     0.10792   0.97032   0.49421   0.00000  Uiso   1.00
H488   H     0.24793   0.25950   0.38782   0.00000  Uiso   1.00
H489   H     0.22709   0.51482   0.49705   0.00000  Uiso   1.00
H490   H     0.03346   0.99645   0.49899   0.00000  Uiso   1.00
H491   H     0.14208   0.81017   0.32073   0.00000  Uiso   1.00
H492   H     0.17847   0.96611   0.28174   0.00000  Uiso   1.00
H493   H     0.16859   0.61294   0.33354   0.00000  Uiso   1.00
H494   H     0.07677   0.84134   0.33446   0.00000  Uiso   1.00
H495   H     0.22265   0.15482   0.25816   0.00000  Uiso   1.00
H496   H     0.20181   0.41013   0.36739   0.00000  Uiso   1.00
H497   H     0.00818   0.89177   0.36933   0.00000  Uiso   1.00
O498   O     0.25976   0.31192   0.30007   0.00000  Uiso   1.00
O499   O     0.23242   0.33493   0.44338   0.00000  Uiso   1.00
O500   O     0.97839   0.96682   0.44593   0.00000  Uiso   1.00
N501   N     0.23698   0.21348   0.36266   0.00000  Uiso   1.00
N502   N     0.21751   0.51725   0.46478   0.00000  Uiso   1.00
N503   N     0.03648   0.96751   0.46660   0.00000  Uiso   1.00
N504   N     0.22338   0.15715   0.29289   0.00000  Uiso   1.00
N505   N     0.20390   0.46092   0.39501   0.00000  Uiso   1.00
N506   N     0.02287   0.91118   0.39683   0.00000  Uiso   1.00
C507   C     0.66485   0.40443   0.93748   0.00000  Uiso   1.00
C508   C     0.68140   0.47585   0.89981   0.00000  Uiso   1.00
C509   C     0.70290   0.56727   0.90700   0.00000  Uiso   1.00
C510   C     0.71541   0.62150   0.86800   0.00000  Uiso   1.00
C511   C     0.74245   0.73783   0.81628   0.00000  Uiso   1.00
C512   C     0.67604   0.28397   0.92795   0.00000  Uiso   1.00
C513   C     0.69302   0.21405   0.95880   0.00000  Uiso   1.00
C514   C     0.70102   0.10674   0.94349   0.00000  Uiso   1.00
C515   C     0.71971   0.92515   0.93549   0.00000  Uiso   1.00
C516   C     0.62615   0.40808   0.92845   0.00000  Uiso   1.00
C517   C     0.60118   0.44248   0.95973   0.00000  Uiso   1.00
C518   C     0.56718   0.43964   0.94484   0.00000  Uiso   1.00
C519   C     0.50840   0.45074   0.93761   0.00000  Uiso   1.00
C520   C     0.64885   0.33819   0.85543   0.00000  Uiso   1.00
C521   C     0.67271   0.43986   0.85524   0.00000  Uiso   1.00
C522   C     0.68519   0.49397   0.81622   0.00000  Uiso   1.00
C523   C     0.70671   0.58545   0.82335   0.00000  Uiso   1.00
C524   C     0.66735   0.24798   0.88339   0.00000  Uiso   1.00
C525   C     0.67532   0.14075   0.86803   0.00000  Uiso   1.00
C526   C     0.69232   0.07069   0.89885   0.00000  Uiso   1.00
C527   C     0.61746   0.37210   0.88388   0.00000  Uiso   1.00
C528   C     0.58348   0.36919   0.86895   0.00000  Uiso   1.00
C529   C     0.55847   0.40359   0.90020   0.00000  Uiso   1.00
H530   H     0.67161   0.43244   0.97217   0.00000  Uiso   1.00
H531   H     0.70962   0.59508   0.94149   0.00000  Uiso   1.00
H532   H     0.69974   0.24191   0.99329   0.00000  Uiso   1.00
H533   H     0.60792   0.47032   0.99421   0.00000  Uiso   1.00
H534   H     0.74793   0.75950   0.88782   0.00000  Uiso   1.00
H535   H     0.72709   0.01482   0.99705   0.00000  Uiso   1.00
H536   H     0.53346   0.49645   0.99899   0.00000  Uiso   1.00
H537   H     0.64208   0.31017   0.82073   0.00000  Uiso   1.00
H538   H     0.67847   0.46611   0.78174   0.00000  Uiso   1.00
H539   H     0.66859   0.11294   0.83354   0.00000  Uiso   1.00
H540   H     0.57677   0.34134   0.83446   0.00000  Uiso   1.00
H541   H     0.72265   0.65482   0.75816   0.00000  Uiso   1.00
H542   H     0.70181   0.91013   0.86739   0.00000  Uiso   1.00
H543   H     0.50818   0.39177   0.86933   0.00000  Uiso   1.00
O544   O     0.75976   0.81192   0.80007   0.00000  Uiso   1.00
O545   O     0.73242   0.83493   0.94338   0.00000  Uiso   1.00
O546   O     0.47839   0.46682   0.94593   0.00000  Uiso   1.00
N547   N     0.73698   0.71348   0.86266   0.00000  Uiso   1.00
N548   N     0.71751   0.01725   0.96478   0.00000  Uiso   1.00
N549   N     0.53648   0.46751   0.96660   0.00000  Uiso   1.00
N550   N     0.72338   0.65715   0.79289   0.00000  Uiso   1.00
N551   N     0.70390   0.96092   0.89501   0.00000  Uiso   1.00
N552   N     0.52287   0.41118   0.89683   0.00000  Uiso   1.00
C553   C     0.66485   0.59557   0.56252   0.00000  Uiso   1.00
C554   C     0.68140   0.52415   0.60019   0.00000  Uiso   1.00
C555   C     0.70290   0.43273   0.59300   0.00000  Uiso   1.00
C556   C     0.71541   0.37850   0.63200   0.00000  Uiso   1.00
C557   C     0.74245   0.26217   0.68372   0.00000  Uiso   1.00
C558   C     0.67604   0.71603   0.57205   0.00000  Uiso   1.00
C559   C     0.69302   0.78595   0.54120   0.00000  Uiso   1.00
C560   C     0.70102   0.89326   0.55651   0.00000  Uiso   1.00
C561   C     0.71971   0.07485   0.56451   0.00000  Uiso   1.00
C562   C     0.62615   0.59192   0.57155   0.00000  Uiso   1.00
C563   C     0.60118   0.55752   0.54027   0.00000  Uiso   1.00
C564   C     0.56718   0.56036   0.55516   0.00000  Uiso   1.00
C565   C     0.50840   0.54926   0.56239   0.00000  Uiso   1.00
C566   C     0.64885   0.66181   0.64457   0.00000  Uiso   1.00
C567   C     0.67271   0.56014   0.64476   0.00000  Uiso   1.00
C568   C     0.68519   0.50603   0.68378   0.00000  Uiso   1.00
C569   C     0.70671   0.41455   0.67665   0.00000  Uiso   1.00
C570   C     0.66735   0.75202   0.61661   0.00000  Uiso   1.00
C571   C     0.67532   0.85925   0.63197   0.00000  Uiso   1.00
C572   C     0.69232   0.92931   0.60115   0.00000  Uiso   1.00
C573   C     0.61746   0.62790   0.61612   0.00000  Uiso   1.00
C574   C     0.58348   0.63081   0.63105   0.00000  Uiso   1.00
C575   C     0.55847   0.59641   0.59980   0.00000  Uiso   1.00
H576   H     0.67161   0.56756   0.52783   0.00000  Uiso   1.00
H577   H     0.70962   0.40492   0.55851   0.00000  Uiso   1.00
H578   H     0.69974   0.75809   0.50671   0.00000  Uiso   1.00
H579   H     0.60792   0.52968   0.50579   0.00000  Uiso   1.00
H580   H     0.74793   0.24050   0.61218   0.00000  Uiso   1.00
H581   H     0.72709   0.98518   0.50295   0.00000  Uiso   1.00
H582   H     0.53346   0.50355   0.50101   0.00000  Uiso   1.00
H583   H     0.64208   0.68983   0.67927   0.00000  Uiso   1.00
H584   H     0.67847   0.53389   0.71826   0.00000  Uiso   1.00
H585   H     0.66859   0.88706   0.66646   0.00000  Uiso   1.00
H586   H     0.57677   0.65866   0.66554   0.00000  Uiso   1.00
H587   H     0.72265   0.34518   0.74184   0.00000  Uiso   1.00
H588   H     0.70181   0.08987   0.63261   0.00000  Uiso   1.00
H589   H     0.50818   0.60823   0.63067   0.00000  Uiso   1.00
O590   O     0.75976   0.18808   0.69993   0.00000  Uiso   1.00
O591   O     0.73242   0.16507   0.55662   0.00000  Uiso   1.00
O592   O     0.47839   0.53318   0.55407   0.00000  Uiso   1.00
N593   N     0.73698   0.28652   0.63734   0.00000  Uiso   1.00
N594   N     0.71751   0.98275   0.53522   0.00000  Uiso   1.00
N595   N     0.53648   0.53249   0.53340   0.00000  Uiso   1.00
N596   N     0.72338   0.34285   0.70711   0.00000  Uiso   1.00
N597   N     0.70390   0.03908   0.60499   0.00000  Uiso   1.00
N598   N     0.52287   0.58882   0.60317   0.00000  Uiso   1.00
C599   C     0.16485   0.09557   0.06252   0.00000  Uiso   1.00
C600   C     0.18140   0.02415   0.10019   0.00000  Uiso   1.00
C601   C     0.20290   0.93273   0.09300   0.00000  Uiso   1.00
C602   C     0.21541   0.87850   0.13200   0.00000  Uiso   1.00
C603   C     0.24245   0.76217   0.18372   0.00000  Uiso   1.00
C604   C     0.17604   0.21603   0.07205   0.00000  Uiso   1.00
C605   C     0.19302   0.28595   0.04120   0.00000  Uiso   1.00
C606   C     0.20102   0.39326   0.05651   0.00000  Uiso   1.00
C607   C     0.21971   0.57485   0.06451   0.00000  Uiso   1.00
C608   C     0.12615   0.09192   0.07155   0.00000  Uiso   1.00
C609   C     0.10118   0.05752   0.04027   0.00000  Uiso   1.00
C610   C     0.06718   0.06036   0.05516   0.00000  Uiso   1.00
C611   C     0.00840   0.04926   0.06239   0.00000  Uiso   1.00
C612   C     0.14885   0.16181   0.14457   0.00000  Uiso   1.00
C613   C     0.17271   0.06014   0.14476   0.00000  Uiso   1.00
C614   C     0.18519   0.00603   0.18378   0.00000  Uiso   1.00
C615   C     0.20671   0.91455   0.17665   0.00000  Uiso   1.00
C616   C     0.16735   0.25202   0.11661   0.00000  Uiso   1.00
C617   C     0.17532   0.35925   0.13197   0.00000  Uiso   1.00
C618   C     0.19232   0.42931   0.10115   0.00000  Uiso   1.00
C619   C     0.11746   0.12790   0.11612   0.00000  Uiso   1.00
C620   C     0.08348   0.13081   0.13105   0.00000  Uiso   1.00
C621   C     0.05847   0.09641   0.09980   0.00000  Uiso   1.00
H622   H     0.17161   0.06756   0.02783   0.00000  Uiso   1.00
H623   H     0.20962   0.90492   0.05851   0.00000  Uiso   1.00
H624   H     0.19974   0.25809   0.00671   0.00000  Uiso   1.00
H625   H     0.10792   0.02968   0.00579   0.00000  Uiso   1.00
H626   H     0.24793   0.74050   0.11218   0.00000  Uiso   1.00
H627   H     0.22709   0.48518   0.00295   0.00000  Uiso   1.00
H628   H     0.03346   0.00355   0.00101   0.00000  Uiso   1.00
H629   H     0.14208   0.18983   0.17927   0.00000  Uiso   1.00
H630   H     0.17847   0.03389   0.21826   0.00000  Uiso   1.00
H631   H     0.16859   0.38706   0.16646   0.00000  Uiso   1.00
H632   H     0.07677   0.15866   0.16554   0.00000  Uiso   1.00
H633   H     0.22265   0.84518   0.24184   0.00000  Uiso   1.00
H634   H     0.20181   0.58987   0.13261   0.00000  Uiso   1.00
H635   H     0.00818   0.10823   0.13067   0.00000  Uiso   1.00
O636   O     0.25976   0.68808   0.19993   0.00000  Uiso   1.00
O637   O     0.23242   0.66507   0.05662   0.00000  Uiso   1.00
O638   O     0.97839   0.03318   0.05407   0.00000  Uiso   1.00
N639   N     0.23698   0.78652   0.13734   0.00000  Uiso   1.00
N640   N     0.21751   0.48275   0.03522   0.00000  Uiso   1.00
N641   N     0.03648   0.03249   0.03340   0.00000  Uiso   1.00
N642   N     0.22338   0.84285   0.20711   0.00000  Uiso   1.00
N643   N     0.20390   0.53908   0.10499   0.00000  Uiso   1.00
N644   N     0.02287   0.08882   0.10317   0.00000  Uiso   1.00
C645   C     0.83515   0.40443   0.06252   0.00000  Uiso   1.00
C646   C     0.81860   0.47585   0.10019   0.00000  Uiso   1.00
C647   C     0.79710   0.56727   0.09300   0.00000  Uiso   1.00
C648   C     0.78459   0.62150   0.13200   0.00000  Uiso   1.00
C649   C     0.75755   0.73783   0.18372   0.00000  Uiso   1.00
C650   C     0.82396   0.28397   0.07205   0.00000  Uiso   1.00
C651   C     0.80698   0.21405   0.04120   0.00000  Uiso   1.00
C652   C     0.79898   0.10674   0.05651   0.00000  Uiso   1.00
C653   C     0.78029   0.92515   0.06451   0.00000  Uiso   1.00
C654   C     0.87385   0.40808   0.07155   0.00000  Uiso   1.00
C655   C     0.89882   0.44248   0.04027   0.00000  Uiso   1.00
C656   C     0.93282   0.43964   0.05516   0.00000  Uiso   1.00
C657   C     0.99160   0.45074   0.06239   0.00000  Uiso   1.00
C658   C     0.85115   0.33819   0.14457   0.00000  Uiso   1.00
C659   C     0.82729   0.43986   0.14476   0.00000  Uiso   1.00
C660   C     0.81481   0.49397   0.18378   0.00000  Uiso   1.00
C661   C     0.79329   0.58545   0.17665   0.00000  Uiso   1.00
C662   C     0.83265   0.24798   0.11661   0.00000  Uiso   1.00
C663   C     0.82468   0.14075   0.13197   0.00000  Uiso   1.00
C664   C     0.80768   0.07069   0.10115   0.00000  Uiso   1.00
C665   C     0.88254   0.37210   0.11612   0.00000  Uiso   1.00
C666   C     0.91652   0.36919   0.13105   0.00000  Uiso   1.00
C667   C     0.94153   0.40359   0.09980   0.00000  Uiso   1.00
H668   H     0.82839   0.43244   0.02783   0.00000  Uiso   1.00
H669   H     0.79038   0.59508   0.05851   0.00000  Uiso   1.00
H670   H     0.80026   0.24191   0.00671   0.00000  Uiso   1.00
H671   H     0.89208   0.47032   0.00579   0.00000  Uiso   1.00
H672   H     0.75207   0.75950   0.11218   0.00000  Uiso   1.00
H673   H     0.77291   0.01482   0.00295   0.00000  Uiso   1.00
H674   H     0.96654   0.49645   0.00101   0.00000  Uiso   1.00
H675   H     0.85792   0.31017   0.17927   0.00000  Uiso   1.00
H676   H     0.82153   0.46611   0.21826   0.00000  Uiso   1.00
H677   H     0.83141   0.11294   0.16646   0.00000  Uiso   1.00
H678   H     0.92323   0.34134   0.16554   0.00000  Uiso   1.00
H679   H     0.77735   0.65482   0.24184   0.00000  Uiso   1.00
H680   H     0.79819   0.91013   0.13261   0.00000  Uiso   1.00
H681   H     0.99182   0.39177   0.13067   0.00000  Uiso   1.00
O682   O     0.74024   0.81192   0.19993   0.00000  Uiso   1.00
O683   O     0.76758   0.83493   0.05662   0.00000  Uiso   1.00
O684   O     0.02161   0.46682   0.05407   0.00000  Uiso   1.00
N685   N     0.76302   0.71348   0.13734   0.00000  Uiso   1.00
N686   N     0.78249   0.01725   0.03522   0.00000  Uiso   1.00
N687   N     0.96352   0.46751   0.03340   0.00000  Uiso   1.00
N688   N     0.77662   0.65715   0.20711   0.00000  Uiso   1.00
N689   N     0.79610   0.96092   0.10499   0.00000  Uiso   1.00
N690   N     0.97713   0.41118   0.10317   0.00000  Uiso   1.00
C691   C     0.33515   0.90443   0.56252   0.00000  Uiso   1.00
C692   C     0.31860   0.97585   0.60019   0.00000  Uiso   1.00
C693   C     0.29710   0.06727   0.59300   0.00000  Uiso   1.00
C694   C     0.28459   0.12150   0.63200   0.00000  Uiso   1.00
C695   C     0.25755   0.23783   0.68372   0.00000  Uiso   1.00
C696   C     0.32396   0.78397   0.57205   0.00000  Uiso   1.00
C697   C     0.30698   0.71405   0.54120   0.00000  Uiso   1.00
C698   C     0.29898   0.60674   0.55651   0.00000  Uiso   1.00
C699   C     0.28029   0.42515   0.56451   0.00000  Uiso   1.00
C700   C     0.37385   0.90808   0.57155   0.00000  Uiso   1.00
C701   C     0.39882   0.94248   0.54027   0.00000  Uiso   1.00
C702   C     0.43282   0.93964   0.55516   0.00000  Uiso   1.00
C703   C     0.49160   0.95074   0.56239   0.00000  Uiso   1.00
C704   C     0.35115   0.83819   0.64457   0.00000  Uiso   1.00
C705   C     0.32729   0.93986   0.64476   0.00000  Uiso   1.00
C706   C     0.31481   0.99397   0.68378   0.00000  Uiso   1.00
C707   C     0.29329   0.08545   0.67665   0.00000  Uiso   1.00
C708   C     0.33265   0.74798   0.61661   0.00000  Uiso   1.00
C709   C     0.32468   0.64075   0.63197   0.00000  Uiso   1.00
C710   C     0.30768   0.57069   0.60115   0.00000  Uiso   1.00
C711   C     0.38254   0.87210   0.61612   0.00000  Uiso   1.00
C712   C     0.41652   0.86919   0.63105   0.00000  Uiso   1.00
C713   C     0.44153   0.90359   0.59980   0.00000  Uiso   1.00
H714   H     0.32839   0.93244   0.52783   0.00000  Uiso   1.00
H715   H     0.29038   0.09508   0.55851   0.00000  Uiso   1.00
H716   H     0.30026   0.74191   0.50671   0.00000  Uiso   1.00
H717   H     0.39208   0.97032   0.50579   0.00000  Uiso   1.00
H718   H     0.25207   0.25950   0.61218   0.00000  Uiso   1.00
H719   H     0.27291   0.51482   0.50295   0.00000  Uiso   1.00
H720   H     0.46654   0.99645   0.50101   0.00000  Uiso   1.00
H721   H     0.35792   0.81017   0.67927   0.00000  Uiso   1.00
H722   H     0.32153   0.96611   0.71826   0.00000  Uiso   1.00
H723   H     0.33141   0.61294   0.66646   0.00000  Uiso   1.00
H724   H     0.42323   0.84134   0.66554   0.00000  Uiso   1.00
H725   H     0.27735   0.15482   0.74184   0.00000  Uiso   1.00
H726   H     0.29819   0.41013   0.63261   0.00000  Uiso   1.00
H727   H     0.49182   0.89177   0.63067   0.00000  Uiso   1.00
O728   O     0.24024   0.31192   0.69993   0.00000  Uiso   1.00
O729   O     0.26758   0.33493   0.55662   0.00000  Uiso   1.00
O730   O     0.52161   0.96682   0.55407   0.00000  Uiso   1.00
N731   N     0.26302   0.21348   0.63734   0.00000  Uiso   1.00
N732   N     0.28249   0.51725   0.53522   0.00000  Uiso   1.00
N733   N     0.46352   0.96751   0.53340   0.00000  Uiso   1.00
N734   N     0.27662   0.15715   0.70711   0.00000  Uiso   1.00
N735   N     0.29610   0.46092   0.60499   0.00000  Uiso   1.00
N736   N     0.47713   0.91118   0.60317   0.00000  Uiso   1.00
