data_job_02771
_audit_creation_date              2018-12-19
_audit_creation_method            'Materials Studio'
_symmetry_space_group_name_H-M    'P1'
_symmetry_Int_Tables_number       1
_symmetry_cell_setting            triclinic
loop_
_symmetry_equiv_pos_as_xyz
  x,y,z
_cell_length_a                    12.4310
_cell_length_b                    63.3191
_cell_length_c                    14.7359
_cell_angle_alpha                 90.0000
_cell_angle_beta                  90.0000
_cell_angle_gamma                 90.0000
loop_
_atom_site_label
_atom_site_type_symbol
_atom_site_fract_x
_atom_site_fract_y
_atom_site_fract_z
_atom_site_U_iso_or_equiv
_atom_site_adp_type
_atom_site_occupancy
C1     C     0.60062   0.93718   0.60710   0.00000  Uiso   1.00
C2     C     0.70321   0.92725   0.56972   0.00000  Uiso   1.00
C3     C     0.76228   0.91132   0.61098   0.00000  Uiso   1.00
C4     C     0.85376   0.90438   0.56589   0.00000  Uiso   1.00
C5     C     0.00834   0.88764   0.52055   0.00000  Uiso   1.00
C6     C     0.62251   0.96084   0.61290   0.00000  Uiso   1.00
C7     C     0.61371   0.97316   0.69045   0.00000  Uiso   1.00
C8     C     0.63724   0.99450   0.68171   0.00000  Uiso   1.00
C9     C     0.66645   0.02991   0.70339   0.00000  Uiso   1.00
C10    C     0.51550   0.93443   0.53354   0.00000  Uiso   1.00
C11    C     0.41670   0.92453   0.54437   0.00000  Uiso   1.00
C12    C     0.35012   0.92364   0.46882   0.00000  Uiso   1.00
C13    C     0.21319   0.91803   0.36728   0.00000  Uiso   1.00
C14    C     0.65804   0.95318   0.45367   0.00000  Uiso   1.00
C15    C     0.73440   0.93594   0.48639   0.00000  Uiso   1.00
C16    C     0.82581   0.92902   0.44122   0.00000  Uiso   1.00
C17    C     0.88500   0.91309   0.48240   0.00000  Uiso   1.00
C18    C     0.65370   0.96953   0.52956   0.00000  Uiso   1.00
C19    C     0.67724   0.99086   0.52070   0.00000  Uiso   1.00
C20    C     0.66848   0.00320   0.59822   0.00000  Uiso   1.00
C21    C     0.54669   0.94311   0.45020   0.00000  Uiso   1.00
C22    C     0.48024   0.94223   0.37462   0.00000  Uiso   1.00
C23    C     0.38137   0.93234   0.38533   0.00000  Uiso   1.00
H24    H     0.57634   0.93042   0.67198   0.00000  Uiso   1.00
H25    H     0.73812   0.90460   0.67548   0.00000  Uiso   1.00
H26    H     0.58956   0.96643   0.75493   0.00000  Uiso   1.00
H27    H     0.39259   0.91781   0.60887   0.00000  Uiso   1.00
H28    H     0.93126   0.87982   0.64261   0.00000  Uiso   1.00
H29    H     0.61798   0.01018   0.81015   0.00000  Uiso   1.00
H30    H     0.20263   0.90766   0.50215   0.00000  Uiso   1.00
H31    H     0.68233   0.95995   0.38879   0.00000  Uiso   1.00
H32    H     0.84993   0.93575   0.37673   0.00000  Uiso   1.00
H33    H     0.70137   0.99758   0.45620   0.00000  Uiso   1.00
H34    H     0.50440   0.94896   0.31014   0.00000  Uiso   1.00
H35    H     0.02201   0.90510   0.40014   0.00000  Uiso   1.00
H36    H     0.70873   0.03546   0.56768   0.00000  Uiso   1.00
H37    H     0.29338   0.93295   0.25968   0.00000  Uiso   1.00
O38    O     0.08499   0.87601   0.51857   0.00000  Uiso   1.00
O39    O     0.67396   0.04705   0.73837   0.00000  Uiso   1.00
O40    O     0.12905   0.91254   0.33429   0.00000  Uiso   1.00
N41    N     0.92960   0.88908   0.58719   0.00000  Uiso   1.00
N42    N     0.63672   0.01097   0.74383   0.00000  Uiso   1.00
N43    N     0.24840   0.91513   0.45589   0.00000  Uiso   1.00
N44    N     0.97844   0.90269   0.45672   0.00000  Uiso   1.00
N45    N     0.68556   0.02457   0.61336   0.00000  Uiso   1.00
N46    N     0.29723   0.92873   0.32542   0.00000  Uiso   1.00
C47    C     0.60062   0.43718   0.10710   0.00000  Uiso   1.00
C48    C     0.70321   0.42725   0.06972   0.00000  Uiso   1.00
C49    C     0.76228   0.41132   0.11098   0.00000  Uiso   1.00
C50    C     0.85376   0.40438   0.06589   0.00000  Uiso   1.00
C51    C     0.00834   0.38764   0.02055   0.00000  Uiso   1.00
C52    C     0.62251   0.46084   0.11290   0.00000  Uiso   1.00
C53    C     0.61371   0.47316   0.19045   0.00000  Uiso   1.00
C54    C     0.63724   0.49450   0.18171   0.00000  Uiso   1.00
C55    C     0.66645   0.52991   0.20339   0.00000  Uiso   1.00
C56    C     0.51550   0.43443   0.03354   0.00000  Uiso   1.00
C57    C     0.41670   0.42453   0.04437   0.00000  Uiso   1.00
C58    C     0.35012   0.42364   0.96882   0.00000  Uiso   1.00
C59    C     0.21319   0.41803   0.86728   0.00000  Uiso   1.00
C60    C     0.65804   0.45318   0.95367   0.00000  Uiso   1.00
C61    C     0.73440   0.43594   0.98639   0.00000  Uiso   1.00
C62    C     0.82581   0.42902   0.94122   0.00000  Uiso   1.00
C63    C     0.88500   0.41309   0.98240   0.00000  Uiso   1.00
C64    C     0.65370   0.46953   0.02956   0.00000  Uiso   1.00
C65    C     0.67724   0.49086   0.02070   0.00000  Uiso   1.00
C66    C     0.66848   0.50320   0.09822   0.00000  Uiso   1.00
C67    C     0.54669   0.44311   0.95020   0.00000  Uiso   1.00
C68    C     0.48024   0.44223   0.87462   0.00000  Uiso   1.00
C69    C     0.38137   0.43234   0.88533   0.00000  Uiso   1.00
H70    H     0.57634   0.43042   0.17198   0.00000  Uiso   1.00
H71    H     0.73812   0.40460   0.17548   0.00000  Uiso   1.00
H72    H     0.58956   0.46643   0.25493   0.00000  Uiso   1.00
H73    H     0.39259   0.41781   0.10887   0.00000  Uiso   1.00
H74    H     0.93126   0.37982   0.14261   0.00000  Uiso   1.00
H75    H     0.61798   0.51018   0.31015   0.00000  Uiso   1.00
H76    H     0.20263   0.40766   0.00215   0.00000  Uiso   1.00
H77    H     0.68233   0.45995   0.88879   0.00000  Uiso   1.00
H78    H     0.84993   0.43575   0.87673   0.00000  Uiso   1.00
H79    H     0.70137   0.49758   0.95620   0.00000  Uiso   1.00
H80    H     0.50440   0.44896   0.81014   0.00000  Uiso   1.00
H81    H     0.02201   0.40510   0.90014   0.00000  Uiso   1.00
H82    H     0.70873   0.53546   0.06768   0.00000  Uiso   1.00
H83    H     0.29338   0.43295   0.75968   0.00000  Uiso   1.00
O84    O     0.08499   0.37601   0.01857   0.00000  Uiso   1.00
O85    O     0.67396   0.54705   0.23837   0.00000  Uiso   1.00
O86    O     0.12905   0.41254   0.83429   0.00000  Uiso   1.00
N87    N     0.92960   0.38908   0.08719   0.00000  Uiso   1.00
N88    N     0.63672   0.51097   0.24383   0.00000  Uiso   1.00
N89    N     0.24840   0.41513   0.95589   0.00000  Uiso   1.00
N90    N     0.97844   0.40269   0.95672   0.00000  Uiso   1.00
N91    N     0.68556   0.52457   0.11336   0.00000  Uiso   1.00
N92    N     0.29723   0.42873   0.82542   0.00000  Uiso   1.00
C93    C     0.10062   0.93718   0.10710   0.00000  Uiso   1.00
C94    C     0.20321   0.92725   0.06972   0.00000  Uiso   1.00
C95    C     0.26228   0.91132   0.11098   0.00000  Uiso   1.00
C96    C     0.35376   0.90438   0.06589   0.00000  Uiso   1.00
C97    C     0.50834   0.88764   0.02055   0.00000  Uiso   1.00
C98    C     0.12251   0.96084   0.11290   0.00000  Uiso   1.00
C99    C     0.11371   0.97316   0.19045   0.00000  Uiso   1.00
C100   C     0.13724   0.99450   0.18171   0.00000  Uiso   1.00
C101   C     0.16645   0.02991   0.20339   0.00000  Uiso   1.00
C102   C     0.01550   0.93443   0.03354   0.00000  Uiso   1.00
C103   C     0.91670   0.92453   0.04437   0.00000  Uiso   1.00
C104   C     0.85012   0.92364   0.96882   0.00000  Uiso   1.00
C105   C     0.71319   0.91803   0.86728   0.00000  Uiso   1.00
C106   C     0.15804   0.95318   0.95367   0.00000  Uiso   1.00
C107   C     0.23440   0.93594   0.98639   0.00000  Uiso   1.00
C108   C     0.32581   0.92902   0.94122   0.00000  Uiso   1.00
C109   C     0.38500   0.91309   0.98240   0.00000  Uiso   1.00
C110   C     0.15370   0.96953   0.02956   0.00000  Uiso   1.00
C111   C     0.17724   0.99086   0.02070   0.00000  Uiso   1.00
C112   C     0.16848   0.00320   0.09822   0.00000  Uiso   1.00
C113   C     0.04669   0.94311   0.95020   0.00000  Uiso   1.00
C114   C     0.98024   0.94223   0.87462   0.00000  Uiso   1.00
C115   C     0.88137   0.93234   0.88533   0.00000  Uiso   1.00
H116   H     0.07634   0.93042   0.17198   0.00000  Uiso   1.00
H117   H     0.23812   0.90460   0.17548   0.00000  Uiso   1.00
H118   H     0.08956   0.96643   0.25493   0.00000  Uiso   1.00
H119   H     0.89259   0.91781   0.10887   0.00000  Uiso   1.00
H120   H     0.43126   0.87982   0.14261   0.00000  Uiso   1.00
H121   H     0.11798   0.01018   0.31015   0.00000  Uiso   1.00
H122   H     0.70263   0.90766   0.00215   0.00000  Uiso   1.00
H123   H     0.18233   0.95995   0.88879   0.00000  Uiso   1.00
H124   H     0.34993   0.93575   0.87673   0.00000  Uiso   1.00
H125   H     0.20137   0.99758   0.95620   0.00000  Uiso   1.00
H126   H     0.00440   0.94896   0.81014   0.00000  Uiso   1.00
H127   H     0.52201   0.90510   0.90014   0.00000  Uiso   1.00
H128   H     0.20873   0.03546   0.06768   0.00000  Uiso   1.00
H129   H     0.79338   0.93295   0.75968   0.00000  Uiso   1.00
O130   O     0.58499   0.87601   0.01857   0.00000  Uiso   1.00
O131   O     0.17396   0.04705   0.23837   0.00000  Uiso   1.00
O132   O     0.62905   0.91254   0.83429   0.00000  Uiso   1.00
N133   N     0.42960   0.88908   0.08719   0.00000  Uiso   1.00
N134   N     0.13672   0.01097   0.24383   0.00000  Uiso   1.00
N135   N     0.74840   0.91513   0.95589   0.00000  Uiso   1.00
N136   N     0.47844   0.90269   0.95672   0.00000  Uiso   1.00
N137   N     0.18556   0.02457   0.11336   0.00000  Uiso   1.00
N138   N     0.79723   0.92873   0.82542   0.00000  Uiso   1.00
C139   C     0.10062   0.43718   0.60710   0.00000  Uiso   1.00
C140   C     0.20321   0.42725   0.56972   0.00000  Uiso   1.00
C141   C     0.26228   0.41132   0.61098   0.00000  Uiso   1.00
C142   C     0.35376   0.40438   0.56589   0.00000  Uiso   1.00
C143   C     0.50834   0.38764   0.52055   0.00000  Uiso   1.00
C144   C     0.12251   0.46084   0.61290   0.00000  Uiso   1.00
C145   C     0.11371   0.47316   0.69045   0.00000  Uiso   1.00
C146   C     0.13724   0.49450   0.68171   0.00000  Uiso   1.00
C147   C     0.16645   0.52991   0.70339   0.00000  Uiso   1.00
C148   C     0.01550   0.43443   0.53354   0.00000  Uiso   1.00
C149   C     0.91670   0.42453   0.54437   0.00000  Uiso   1.00
C150   C     0.85012   0.42364   0.46882   0.00000  Uiso   1.00
C151   C     0.71319   0.41803   0.36728   0.00000  Uiso   1.00
C152   C     0.15804   0.45318   0.45367   0.00000  Uiso   1.00
C153   C     0.23440   0.43594   0.48639   0.00000  Uiso   1.00
C154   C     0.32581   0.42902   0.44122   0.00000  Uiso   1.00
C155   C     0.38500   0.41309   0.48240   0.00000  Uiso   1.00
C156   C     0.15370   0.46953   0.52956   0.00000  Uiso   1.00
C157   C     0.17724   0.49086   0.52070   0.00000  Uiso   1.00
C158   C     0.16848   0.50320   0.59822   0.00000  Uiso   1.00
C159   C     0.04669   0.44311   0.45020   0.00000  Uiso   1.00
C160   C     0.98024   0.44223   0.37462   0.00000  Uiso   1.00
C161   C     0.88137   0.43234   0.38533   0.00000  Uiso   1.00
H162   H     0.07634   0.43042   0.67198   0.00000  Uiso   1.00
H163   H     0.23812   0.40460   0.67548   0.00000  Uiso   1.00
H164   H     0.08956   0.46643   0.75493   0.00000  Uiso   1.00
H165   H     0.89259   0.41781   0.60887   0.00000  Uiso   1.00
H166   H     0.43126   0.37982   0.64261   0.00000  Uiso   1.00
H167   H     0.11798   0.51018   0.81015   0.00000  Uiso   1.00
H168   H     0.70263   0.40766   0.50215   0.00000  Uiso   1.00
H169   H     0.18233   0.45995   0.38879   0.00000  Uiso   1.00
H170   H     0.34993   0.43575   0.37673   0.00000  Uiso   1.00
H171   H     0.20137   0.49758   0.45620   0.00000  Uiso   1.00
H172   H     0.00440   0.44896   0.31014   0.00000  Uiso   1.00
H173   H     0.52201   0.40510   0.40014   0.00000  Uiso   1.00
H174   H     0.20873   0.53546   0.56768   0.00000  Uiso   1.00
H175   H     0.79338   0.43295   0.25968   0.00000  Uiso   1.00
O176   O     0.58499   0.37601   0.51857   0.00000  Uiso   1.00
O177   O     0.17396   0.54705   0.73837   0.00000  Uiso   1.00
O178   O     0.62905   0.41254   0.33429   0.00000  Uiso   1.00
N179   N     0.42960   0.38908   0.58719   0.00000  Uiso   1.00
N180   N     0.13672   0.51097   0.74383   0.00000  Uiso   1.00
N181   N     0.74840   0.41513   0.45589   0.00000  Uiso   1.00
N182   N     0.47844   0.40269   0.45672   0.00000  Uiso   1.00
N183   N     0.18556   0.52457   0.61336   0.00000  Uiso   1.00
N184   N     0.79723   0.42873   0.32542   0.00000  Uiso   1.00
C185   C     0.39938   0.06282   0.60710   0.00000  Uiso   1.00
C186   C     0.29679   0.07275   0.56972   0.00000  Uiso   1.00
C187   C     0.23772   0.08868   0.61098   0.00000  Uiso   1.00
C188   C     0.14624   0.09562   0.56589   0.00000  Uiso   1.00
C189   C     0.99166   0.11236   0.52055   0.00000  Uiso   1.00
C190   C     0.37749   0.03916   0.61290   0.00000  Uiso   1.00
C191   C     0.38629   0.02684   0.69045   0.00000  Uiso   1.00
C192   C     0.36276   0.00550   0.68171   0.00000  Uiso   1.00
C193   C     0.33355   0.97009   0.70339   0.00000  Uiso   1.00
C194   C     0.48450   0.06557   0.53354   0.00000  Uiso   1.00
C195   C     0.58330   0.07547   0.54437   0.00000  Uiso   1.00
C196   C     0.64988   0.07636   0.46882   0.00000  Uiso   1.00
C197   C     0.78681   0.08197   0.36728   0.00000  Uiso   1.00
C198   C     0.34196   0.04682   0.45367   0.00000  Uiso   1.00
C199   C     0.26560   0.06406   0.48639   0.00000  Uiso   1.00
C200   C     0.17419   0.07098   0.44122   0.00000  Uiso   1.00
C201   C     0.11500   0.08691   0.48240   0.00000  Uiso   1.00
C202   C     0.34630   0.03047   0.52956   0.00000  Uiso   1.00
C203   C     0.32276   0.00914   0.52070   0.00000  Uiso   1.00
C204   C     0.33152   0.99680   0.59822   0.00000  Uiso   1.00
C205   C     0.45331   0.05689   0.45020   0.00000  Uiso   1.00
C206   C     0.51976   0.05777   0.37462   0.00000  Uiso   1.00
C207   C     0.61863   0.06766   0.38533   0.00000  Uiso   1.00
H208   H     0.42366   0.06958   0.67198   0.00000  Uiso   1.00
H209   H     0.26188   0.09540   0.67548   0.00000  Uiso   1.00
H210   H     0.41044   0.03357   0.75493   0.00000  Uiso   1.00
H211   H     0.60741   0.08219   0.60887   0.00000  Uiso   1.00
H212   H     0.06874   0.12018   0.64261   0.00000  Uiso   1.00
H213   H     0.38202   0.98982   0.81015   0.00000  Uiso   1.00
H214   H     0.79737   0.09234   0.50215   0.00000  Uiso   1.00
H215   H     0.31767   0.04005   0.38879   0.00000  Uiso   1.00
H216   H     0.15007   0.06425   0.37673   0.00000  Uiso   1.00
H217   H     0.29863   0.00242   0.45620   0.00000  Uiso   1.00
H218   H     0.49560   0.05104   0.31014   0.00000  Uiso   1.00
H219   H     0.97799   0.09490   0.40014   0.00000  Uiso   1.00
H220   H     0.29127   0.96454   0.56768   0.00000  Uiso   1.00
H221   H     0.70662   0.06705   0.25968   0.00000  Uiso   1.00
O222   O     0.91501   0.12399   0.51857   0.00000  Uiso   1.00
O223   O     0.32604   0.95295   0.73837   0.00000  Uiso   1.00
O224   O     0.87095   0.08746   0.33429   0.00000  Uiso   1.00
N225   N     0.07040   0.11092   0.58719   0.00000  Uiso   1.00
N226   N     0.36328   0.98903   0.74383   0.00000  Uiso   1.00
N227   N     0.75160   0.08487   0.45589   0.00000  Uiso   1.00
N228   N     0.02156   0.09731   0.45672   0.00000  Uiso   1.00
N229   N     0.31444   0.97543   0.61336   0.00000  Uiso   1.00
N230   N     0.70277   0.07127   0.32542   0.00000  Uiso   1.00
C231   C     0.39938   0.56282   0.10710   0.00000  Uiso   1.00
C232   C     0.29679   0.57275   0.06972   0.00000  Uiso   1.00
C233   C     0.23772   0.58868   0.11098   0.00000  Uiso   1.00
C234   C     0.14624   0.59562   0.06589   0.00000  Uiso   1.00
C235   C     0.99166   0.61236   0.02055   0.00000  Uiso   1.00
C236   C     0.37749   0.53916   0.11290   0.00000  Uiso   1.00
C237   C     0.38629   0.52684   0.19045   0.00000  Uiso   1.00
C238   C     0.36276   0.50550   0.18171   0.00000  Uiso   1.00
C239   C     0.33355   0.47009   0.20339   0.00000  Uiso   1.00
C240   C     0.48450   0.56557   0.03354   0.00000  Uiso   1.00
C241   C     0.58330   0.57547   0.04437   0.00000  Uiso   1.00
C242   C     0.64988   0.57636   0.96882   0.00000  Uiso   1.00
C243   C     0.78681   0.58197   0.86728   0.00000  Uiso   1.00
C244   C     0.34196   0.54682   0.95367   0.00000  Uiso   1.00
C245   C     0.26560   0.56406   0.98639   0.00000  Uiso   1.00
C246   C     0.17419   0.57098   0.94122   0.00000  Uiso   1.00
C247   C     0.11500   0.58691   0.98240   0.00000  Uiso   1.00
C248   C     0.34630   0.53047   0.02956   0.00000  Uiso   1.00
C249   C     0.32276   0.50914   0.02070   0.00000  Uiso   1.00
C250   C     0.33152   0.49680   0.09822   0.00000  Uiso   1.00
C251   C     0.45331   0.55689   0.95020   0.00000  Uiso   1.00
C252   C     0.51976   0.55777   0.87462   0.00000  Uiso   1.00
C253   C     0.61863   0.56766   0.88533   0.00000  Uiso   1.00
H254   H     0.42366   0.56958   0.17198   0.00000  Uiso   1.00
H255   H     0.26188   0.59540   0.17548   0.00000  Uiso   1.00
H256   H     0.41044   0.53357   0.25493   0.00000  Uiso   1.00
H257   H     0.60741   0.58219   0.10887   0.00000  Uiso   1.00
H258   H     0.06874   0.62018   0.14261   0.00000  Uiso   1.00
H259   H     0.38202   0.48982   0.31015   0.00000  Uiso   1.00
H260   H     0.79737   0.59234   0.00215   0.00000  Uiso   1.00
H261   H     0.31767   0.54005   0.88879   0.00000  Uiso   1.00
H262   H     0.15007   0.56425   0.87673   0.00000  Uiso   1.00
H263   H     0.29863   0.50242   0.95620   0.00000  Uiso   1.00
H264   H     0.49560   0.55104   0.81014   0.00000  Uiso   1.00
H265   H     0.97799   0.59490   0.90014   0.00000  Uiso   1.00
H266   H     0.29127   0.46454   0.06768   0.00000  Uiso   1.00
H267   H     0.70662   0.56705   0.75968   0.00000  Uiso   1.00
O268   O     0.91501   0.62399   0.01857   0.00000  Uiso   1.00
O269   O     0.32604   0.45295   0.23837   0.00000  Uiso   1.00
O270   O     0.87095   0.58746   0.83429   0.00000  Uiso   1.00
N271   N     0.07040   0.61092   0.08719   0.00000  Uiso   1.00
N272   N     0.36328   0.48903   0.24383   0.00000  Uiso   1.00
N273   N     0.75160   0.58487   0.95589   0.00000  Uiso   1.00
N274   N     0.02156   0.59731   0.95672   0.00000  Uiso   1.00
N275   N     0.31444   0.47543   0.11336   0.00000  Uiso   1.00
N276   N     0.70277   0.57127   0.82542   0.00000  Uiso   1.00
C277   C     0.89938   0.06282   0.10710   0.00000  Uiso   1.00
C278   C     0.79679   0.07275   0.06972   0.00000  Uiso   1.00
C279   C     0.73772   0.08868   0.11098   0.00000  Uiso   1.00
C280   C     0.64624   0.09562   0.06589   0.00000  Uiso   1.00
C281   C     0.49166   0.11236   0.02055   0.00000  Uiso   1.00
C282   C     0.87749   0.03916   0.11290   0.00000  Uiso   1.00
C283   C     0.88629   0.02684   0.19045   0.00000  Uiso   1.00
C284   C     0.86276   0.00550   0.18171   0.00000  Uiso   1.00
C285   C     0.83355   0.97009   0.20339   0.00000  Uiso   1.00
C286   C     0.98450   0.06557   0.03354   0.00000  Uiso   1.00
C287   C     0.08330   0.07547   0.04437   0.00000  Uiso   1.00
C288   C     0.14988   0.07636   0.96882   0.00000  Uiso   1.00
C289   C     0.28681   0.08197   0.86728   0.00000  Uiso   1.00
C290   C     0.84196   0.04682   0.95367   0.00000  Uiso   1.00
C291   C     0.76560   0.06406   0.98639   0.00000  Uiso   1.00
C292   C     0.67419   0.07098   0.94122   0.00000  Uiso   1.00
C293   C     0.61500   0.08691   0.98240   0.00000  Uiso   1.00
C294   C     0.84630   0.03047   0.02956   0.00000  Uiso   1.00
C295   C     0.82276   0.00914   0.02070   0.00000  Uiso   1.00
C296   C     0.83152   0.99680   0.09822   0.00000  Uiso   1.00
C297   C     0.95331   0.05689   0.95020   0.00000  Uiso   1.00
C298   C     0.01976   0.05777   0.87462   0.00000  Uiso   1.00
C299   C     0.11863   0.06766   0.88533   0.00000  Uiso   1.00
H300   H     0.92366   0.06958   0.17198   0.00000  Uiso   1.00
H301   H     0.76188   0.09540   0.17548   0.00000  Uiso   1.00
H302   H     0.91044   0.03357   0.25493   0.00000  Uiso   1.00
H303   H     0.10741   0.08219   0.10887   0.00000  Uiso   1.00
H304   H     0.56874   0.12018   0.14261   0.00000  Uiso   1.00
H305   H     0.88202   0.98982   0.31015   0.00000  Uiso   1.00
H306   H     0.29737   0.09234   0.00215   0.00000  Uiso   1.00
H307   H     0.81767   0.04005   0.88879   0.00000  Uiso   1.00
H308   H     0.65007   0.06425   0.87673   0.00000  Uiso   1.00
H309   H     0.79863   0.00242   0.95620   0.00000  Uiso   1.00
H310   H     0.99560   0.05104   0.81014   0.00000  Uiso   1.00
H311   H     0.47799   0.09490   0.90014   0.00000  Uiso   1.00
H312   H     0.79127   0.96454   0.06768   0.00000  Uiso   1.00
H313   H     0.20662   0.06705   0.75968   0.00000  Uiso   1.00
O314   O     0.41501   0.12399   0.01857   0.00000  Uiso   1.00
O315   O     0.82604   0.95295   0.23837   0.00000  Uiso   1.00
O316   O     0.37095   0.08746   0.83429   0.00000  Uiso   1.00
N317   N     0.57040   0.11092   0.08719   0.00000  Uiso   1.00
N318   N     0.86328   0.98903   0.24383   0.00000  Uiso   1.00
N319   N     0.25160   0.08487   0.95589   0.00000  Uiso   1.00
N320   N     0.52156   0.09731   0.95672   0.00000  Uiso   1.00
N321   N     0.81444   0.97543   0.11336   0.00000  Uiso   1.00
N322   N     0.20277   0.07127   0.82542   0.00000  Uiso   1.00
C323   C     0.89938   0.56282   0.60710   0.00000  Uiso   1.00
C324   C     0.79679   0.57275   0.56972   0.00000  Uiso   1.00
C325   C     0.73772   0.58868   0.61098   0.00000  Uiso   1.00
C326   C     0.64624   0.59562   0.56589   0.00000  Uiso   1.00
C327   C     0.49166   0.61236   0.52055   0.00000  Uiso   1.00
C328   C     0.87749   0.53916   0.61290   0.00000  Uiso   1.00
C329   C     0.88629   0.52684   0.69045   0.00000  Uiso   1.00
C330   C     0.86276   0.50550   0.68171   0.00000  Uiso   1.00
C331   C     0.83355   0.47009   0.70339   0.00000  Uiso   1.00
C332   C     0.98450   0.56557   0.53354   0.00000  Uiso   1.00
C333   C     0.08330   0.57547   0.54437   0.00000  Uiso   1.00
C334   C     0.14988   0.57636   0.46882   0.00000  Uiso   1.00
C335   C     0.28681   0.58197   0.36728   0.00000  Uiso   1.00
C336   C     0.84196   0.54682   0.45367   0.00000  Uiso   1.00
C337   C     0.76560   0.56406   0.48639   0.00000  Uiso   1.00
C338   C     0.67419   0.57098   0.44122   0.00000  Uiso   1.00
C339   C     0.61500   0.58691   0.48240   0.00000  Uiso   1.00
C340   C     0.84630   0.53047   0.52956   0.00000  Uiso   1.00
C341   C     0.82276   0.50914   0.52070   0.00000  Uiso   1.00
C342   C     0.83152   0.49680   0.59822   0.00000  Uiso   1.00
C343   C     0.95331   0.55689   0.45020   0.00000  Uiso   1.00
C344   C     0.01976   0.55777   0.37462   0.00000  Uiso   1.00
C345   C     0.11863   0.56766   0.38533   0.00000  Uiso   1.00
H346   H     0.92366   0.56958   0.67198   0.00000  Uiso   1.00
H347   H     0.76188   0.59540   0.67548   0.00000  Uiso   1.00
H348   H     0.91044   0.53357   0.75493   0.00000  Uiso   1.00
H349   H     0.10741   0.58219   0.60887   0.00000  Uiso   1.00
H350   H     0.56874   0.62018   0.64261   0.00000  Uiso   1.00
H351   H     0.88202   0.48982   0.81015   0.00000  Uiso   1.00
H352   H     0.29737   0.59234   0.50215   0.00000  Uiso   1.00
H353   H     0.81767   0.54005   0.38879   0.00000  Uiso   1.00
H354   H     0.65007   0.56425   0.37673   0.00000  Uiso   1.00
H355   H     0.79863   0.50242   0.45620   0.00000  Uiso   1.00
H356   H     0.99560   0.55104   0.31014   0.00000  Uiso   1.00
H357   H     0.47799   0.59490   0.40014   0.00000  Uiso   1.00
H358   H     0.79127   0.46454   0.56768   0.00000  Uiso   1.00
H359   H     0.20662   0.56705   0.25968   0.00000  Uiso   1.00
O360   O     0.41501   0.62399   0.51857   0.00000  Uiso   1.00
O361   O     0.82604   0.45295   0.73837   0.00000  Uiso   1.00
O362   O     0.37095   0.58746   0.33429   0.00000  Uiso   1.00
N363   N     0.57040   0.61092   0.58719   0.00000  Uiso   1.00
N364   N     0.86328   0.48903   0.74383   0.00000  Uiso   1.00
N365   N     0.25160   0.58487   0.45589   0.00000  Uiso   1.00
N366   N     0.52156   0.59731   0.45672   0.00000  Uiso   1.00
N367   N     0.81444   0.47543   0.61336   0.00000  Uiso   1.00
N368   N     0.20277   0.57127   0.32542   0.00000  Uiso   1.00
C369   C     0.85062   0.31282   0.85710   0.00000  Uiso   1.00
C370   C     0.95321   0.32275   0.81972   0.00000  Uiso   1.00
C371   C     0.01228   0.33868   0.86098   0.00000  Uiso   1.00
C372   C     0.10376   0.34562   0.81589   0.00000  Uiso   1.00
C373   C     0.25834   0.36236   0.77055   0.00000  Uiso   1.00
C374   C     0.87251   0.28916   0.86290   0.00000  Uiso   1.00
C375   C     0.86371   0.27684   0.94045   0.00000  Uiso   1.00
C376   C     0.88724   0.25550   0.93171   0.00000  Uiso   1.00
C377   C     0.91645   0.22009   0.95339   0.00000  Uiso   1.00
C378   C     0.76550   0.31557   0.78354   0.00000  Uiso   1.00
C379   C     0.66670   0.32547   0.79437   0.00000  Uiso   1.00
C380   C     0.60012   0.32636   0.71882   0.00000  Uiso   1.00
C381   C     0.46319   0.33197   0.61728   0.00000  Uiso   1.00
C382   C     0.90804   0.29682   0.70367   0.00000  Uiso   1.00
C383   C     0.98440   0.31406   0.73639   0.00000  Uiso   1.00
C384   C     0.07581   0.32098   0.69122   0.00000  Uiso   1.00
C385   C     0.13500   0.33691   0.73240   0.00000  Uiso   1.00
C386   C     0.90370   0.28047   0.77956   0.00000  Uiso   1.00
C387   C     0.92724   0.25914   0.77070   0.00000  Uiso   1.00
C388   C     0.91848   0.24680   0.84822   0.00000  Uiso   1.00
C389   C     0.79669   0.30689   0.70020   0.00000  Uiso   1.00
C390   C     0.73024   0.30777   0.62462   0.00000  Uiso   1.00
C391   C     0.63137   0.31766   0.63533   0.00000  Uiso   1.00
H392   H     0.82634   0.31958   0.92198   0.00000  Uiso   1.00
H393   H     0.98812   0.34540   0.92548   0.00000  Uiso   1.00
H394   H     0.83956   0.28357   0.00493   0.00000  Uiso   1.00
H395   H     0.64259   0.33219   0.85887   0.00000  Uiso   1.00
H396   H     0.18126   0.37018   0.89261   0.00000  Uiso   1.00
H397   H     0.86798   0.23982   0.06015   0.00000  Uiso   1.00
H398   H     0.45263   0.34234   0.75215   0.00000  Uiso   1.00
H399   H     0.93233   0.29005   0.63879   0.00000  Uiso   1.00
H400   H     0.09993   0.31425   0.62673   0.00000  Uiso   1.00
H401   H     0.95137   0.25242   0.70620   0.00000  Uiso   1.00
H402   H     0.75440   0.30104   0.56014   0.00000  Uiso   1.00
H403   H     0.27201   0.34490   0.65014   0.00000  Uiso   1.00
H404   H     0.95873   0.21454   0.81768   0.00000  Uiso   1.00
H405   H     0.54338   0.31705   0.50968   0.00000  Uiso   1.00
O406   O     0.33499   0.37399   0.76857   0.00000  Uiso   1.00
O407   O     0.92396   0.20295   0.98837   0.00000  Uiso   1.00
O408   O     0.37905   0.33746   0.58429   0.00000  Uiso   1.00
N409   N     0.17960   0.36092   0.83719   0.00000  Uiso   1.00
N410   N     0.88672   0.23903   0.99383   0.00000  Uiso   1.00
N411   N     0.49840   0.33487   0.70589   0.00000  Uiso   1.00
N412   N     0.22844   0.34731   0.70672   0.00000  Uiso   1.00
N413   N     0.93556   0.22543   0.86336   0.00000  Uiso   1.00
N414   N     0.54723   0.32127   0.57542   0.00000  Uiso   1.00
C415   C     0.85062   0.81282   0.35710   0.00000  Uiso   1.00
C416   C     0.95321   0.82275   0.31972   0.00000  Uiso   1.00
C417   C     0.01228   0.83868   0.36098   0.00000  Uiso   1.00
C418   C     0.10376   0.84562   0.31589   0.00000  Uiso   1.00
C419   C     0.25834   0.86236   0.27055   0.00000  Uiso   1.00
C420   C     0.87251   0.78916   0.36290   0.00000  Uiso   1.00
C421   C     0.86371   0.77684   0.44045   0.00000  Uiso   1.00
C422   C     0.88724   0.75550   0.43171   0.00000  Uiso   1.00
C423   C     0.91645   0.72009   0.45339   0.00000  Uiso   1.00
C424   C     0.76550   0.81557   0.28354   0.00000  Uiso   1.00
C425   C     0.66670   0.82547   0.29437   0.00000  Uiso   1.00
C426   C     0.60012   0.82636   0.21882   0.00000  Uiso   1.00
C427   C     0.46319   0.83197   0.11728   0.00000  Uiso   1.00
C428   C     0.90804   0.79682   0.20367   0.00000  Uiso   1.00
C429   C     0.98440   0.81406   0.23639   0.00000  Uiso   1.00
C430   C     0.07581   0.82098   0.19122   0.00000  Uiso   1.00
C431   C     0.13500   0.83691   0.23240   0.00000  Uiso   1.00
C432   C     0.90370   0.78047   0.27956   0.00000  Uiso   1.00
C433   C     0.92724   0.75914   0.27070   0.00000  Uiso   1.00
C434   C     0.91848   0.74680   0.34822   0.00000  Uiso   1.00
C435   C     0.79669   0.80689   0.20020   0.00000  Uiso   1.00
C436   C     0.73024   0.80777   0.12462   0.00000  Uiso   1.00
C437   C     0.63137   0.81766   0.13533   0.00000  Uiso   1.00
H438   H     0.82634   0.81958   0.42198   0.00000  Uiso   1.00
H439   H     0.98812   0.84540   0.42548   0.00000  Uiso   1.00
H440   H     0.83956   0.78357   0.50493   0.00000  Uiso   1.00
H441   H     0.64259   0.83219   0.35887   0.00000  Uiso   1.00
H442   H     0.18126   0.87018   0.39261   0.00000  Uiso   1.00
H443   H     0.86798   0.73982   0.56015   0.00000  Uiso   1.00
H444   H     0.45263   0.84234   0.25215   0.00000  Uiso   1.00
H445   H     0.93233   0.79005   0.13879   0.00000  Uiso   1.00
H446   H     0.09993   0.81425   0.12673   0.00000  Uiso   1.00
H447   H     0.95137   0.75242   0.20620   0.00000  Uiso   1.00
H448   H     0.75440   0.80104   0.06014   0.00000  Uiso   1.00
H449   H     0.27201   0.84490   0.15014   0.00000  Uiso   1.00
H450   H     0.95873   0.71454   0.31768   0.00000  Uiso   1.00
H451   H     0.54338   0.81705   0.00968   0.00000  Uiso   1.00
O452   O     0.33499   0.87399   0.26857   0.00000  Uiso   1.00
O453   O     0.92396   0.70295   0.48837   0.00000  Uiso   1.00
O454   O     0.37905   0.83746   0.08429   0.00000  Uiso   1.00
N455   N     0.17960   0.86092   0.33719   0.00000  Uiso   1.00
N456   N     0.88672   0.73903   0.49383   0.00000  Uiso   1.00
N457   N     0.49840   0.83487   0.20589   0.00000  Uiso   1.00
N458   N     0.22844   0.84731   0.20672   0.00000  Uiso   1.00
N459   N     0.93556   0.72543   0.36336   0.00000  Uiso   1.00
N460   N     0.54723   0.82127   0.07542   0.00000  Uiso   1.00
C461   C     0.35062   0.31282   0.35710   0.00000  Uiso   1.00
C462   C     0.45321   0.32275   0.31972   0.00000  Uiso   1.00
C463   C     0.51228   0.33868   0.36098   0.00000  Uiso   1.00
C464   C     0.60376   0.34562   0.31589   0.00000  Uiso   1.00
C465   C     0.75834   0.36236   0.27055   0.00000  Uiso   1.00
C466   C     0.37251   0.28916   0.36290   0.00000  Uiso   1.00
C467   C     0.36371   0.27684   0.44045   0.00000  Uiso   1.00
C468   C     0.38724   0.25550   0.43171   0.00000  Uiso   1.00
C469   C     0.41645   0.22009   0.45339   0.00000  Uiso   1.00
C470   C     0.26550   0.31557   0.28354   0.00000  Uiso   1.00
C471   C     0.16670   0.32547   0.29437   0.00000  Uiso   1.00
C472   C     0.10012   0.32636   0.21882   0.00000  Uiso   1.00
C473   C     0.96319   0.33197   0.11728   0.00000  Uiso   1.00
C474   C     0.40804   0.29682   0.20367   0.00000  Uiso   1.00
C475   C     0.48440   0.31406   0.23639   0.00000  Uiso   1.00
C476   C     0.57581   0.32098   0.19122   0.00000  Uiso   1.00
C477   C     0.63500   0.33691   0.23240   0.00000  Uiso   1.00
C478   C     0.40370   0.28047   0.27956   0.00000  Uiso   1.00
C479   C     0.42724   0.25914   0.27070   0.00000  Uiso   1.00
C480   C     0.41848   0.24680   0.34822   0.00000  Uiso   1.00
C481   C     0.29669   0.30689   0.20020   0.00000  Uiso   1.00
C482   C     0.23024   0.30777   0.12462   0.00000  Uiso   1.00
C483   C     0.13137   0.31766   0.13533   0.00000  Uiso   1.00
H484   H     0.32634   0.31958   0.42198   0.00000  Uiso   1.00
H485   H     0.48812   0.34540   0.42548   0.00000  Uiso   1.00
H486   H     0.33956   0.28357   0.50493   0.00000  Uiso   1.00
H487   H     0.14259   0.33219   0.35887   0.00000  Uiso   1.00
H488   H     0.68126   0.37018   0.39261   0.00000  Uiso   1.00
H489   H     0.36798   0.23982   0.56015   0.00000  Uiso   1.00
H490   H     0.95263   0.34234   0.25215   0.00000  Uiso   1.00
H491   H     0.43233   0.29005   0.13879   0.00000  Uiso   1.00
H492   H     0.59993   0.31425   0.12673   0.00000  Uiso   1.00
H493   H     0.45137   0.25242   0.20620   0.00000  Uiso   1.00
H494   H     0.25440   0.30104   0.06014   0.00000  Uiso   1.00
H495   H     0.77201   0.34490   0.15014   0.00000  Uiso   1.00
H496   H     0.45873   0.21454   0.31768   0.00000  Uiso   1.00
H497   H     0.04338   0.31705   0.00968   0.00000  Uiso   1.00
O498   O     0.83499   0.37399   0.26857   0.00000  Uiso   1.00
O499   O     0.42396   0.20295   0.48837   0.00000  Uiso   1.00
O500   O     0.87905   0.33746   0.08429   0.00000  Uiso   1.00
N501   N     0.67960   0.36092   0.33719   0.00000  Uiso   1.00
N502   N     0.38672   0.23903   0.49383   0.00000  Uiso   1.00
N503   N     0.99840   0.33487   0.20589   0.00000  Uiso   1.00
N504   N     0.72844   0.34731   0.20672   0.00000  Uiso   1.00
N505   N     0.43556   0.22543   0.36336   0.00000  Uiso   1.00
N506   N     0.04723   0.32127   0.07542   0.00000  Uiso   1.00
C507   C     0.35062   0.81282   0.85710   0.00000  Uiso   1.00
C508   C     0.45321   0.82275   0.81972   0.00000  Uiso   1.00
C509   C     0.51228   0.83868   0.86098   0.00000  Uiso   1.00
C510   C     0.60376   0.84562   0.81589   0.00000  Uiso   1.00
C511   C     0.75834   0.86236   0.77055   0.00000  Uiso   1.00
C512   C     0.37251   0.78916   0.86290   0.00000  Uiso   1.00
C513   C     0.36371   0.77684   0.94045   0.00000  Uiso   1.00
C514   C     0.38724   0.75550   0.93171   0.00000  Uiso   1.00
C515   C     0.41645   0.72009   0.95339   0.00000  Uiso   1.00
C516   C     0.26550   0.81557   0.78354   0.00000  Uiso   1.00
C517   C     0.16670   0.82547   0.79437   0.00000  Uiso   1.00
C518   C     0.10012   0.82636   0.71882   0.00000  Uiso   1.00
C519   C     0.96319   0.83197   0.61728   0.00000  Uiso   1.00
C520   C     0.40804   0.79682   0.70367   0.00000  Uiso   1.00
C521   C     0.48440   0.81406   0.73639   0.00000  Uiso   1.00
C522   C     0.57581   0.82098   0.69122   0.00000  Uiso   1.00
C523   C     0.63500   0.83691   0.73240   0.00000  Uiso   1.00
C524   C     0.40370   0.78047   0.77956   0.00000  Uiso   1.00
C525   C     0.42724   0.75914   0.77070   0.00000  Uiso   1.00
C526   C     0.41848   0.74680   0.84822   0.00000  Uiso   1.00
C527   C     0.29669   0.80689   0.70020   0.00000  Uiso   1.00
C528   C     0.23024   0.80777   0.62462   0.00000  Uiso   1.00
C529   C     0.13137   0.81766   0.63533   0.00000  Uiso   1.00
H530   H     0.32634   0.81958   0.92198   0.00000  Uiso   1.00
H531   H     0.48812   0.84540   0.92548   0.00000  Uiso   1.00
H532   H     0.33956   0.78357   0.00493   0.00000  Uiso   1.00
H533   H     0.14259   0.83219   0.85887   0.00000  Uiso   1.00
H534   H     0.68126   0.87018   0.89261   0.00000  Uiso   1.00
H535   H     0.36798   0.73982   0.06015   0.00000  Uiso   1.00
H536   H     0.95263   0.84234   0.75215   0.00000  Uiso   1.00
H537   H     0.43233   0.79005   0.63879   0.00000  Uiso   1.00
H538   H     0.59993   0.81425   0.62673   0.00000  Uiso   1.00
H539   H     0.45137   0.75242   0.70620   0.00000  Uiso   1.00
H540   H     0.25440   0.80104   0.56014   0.00000  Uiso   1.00
H541   H     0.77201   0.84490   0.65014   0.00000  Uiso   1.00
H542   H     0.45873   0.71454   0.81768   0.00000  Uiso   1.00
H543   H     0.04338   0.81705   0.50968   0.00000  Uiso   1.00
O544   O     0.83499   0.87399   0.76857   0.00000  Uiso   1.00
O545   O     0.42396   0.70295   0.98837   0.00000  Uiso   1.00
O546   O     0.87905   0.83746   0.58429   0.00000  Uiso   1.00
N547   N     0.67960   0.86092   0.83719   0.00000  Uiso   1.00
N548   N     0.38672   0.73903   0.99383   0.00000  Uiso   1.00
N549   N     0.99840   0.83487   0.70589   0.00000  Uiso   1.00
N550   N     0.72844   0.84731   0.70672   0.00000  Uiso   1.00
N551   N     0.43556   0.72543   0.86336   0.00000  Uiso   1.00
N552   N     0.04723   0.82127   0.57542   0.00000  Uiso   1.00
C553   C     0.64938   0.18718   0.85710   0.00000  Uiso   1.00
C554   C     0.54679   0.17725   0.81972   0.00000  Uiso   1.00
C555   C     0.48772   0.16132   0.86098   0.00000  Uiso   1.00
C556   C     0.39624   0.15438   0.81589   0.00000  Uiso   1.00
C557   C     0.24166   0.13764   0.77055   0.00000  Uiso   1.00
C558   C     0.62749   0.21084   0.86290   0.00000  Uiso   1.00
C559   C     0.63629   0.22316   0.94045   0.00000  Uiso   1.00
C560   C     0.61276   0.24450   0.93171   0.00000  Uiso   1.00
C561   C     0.58355   0.27991   0.95339   0.00000  Uiso   1.00
C562   C     0.73450   0.18443   0.78354   0.00000  Uiso   1.00
C563   C     0.83330   0.17453   0.79437   0.00000  Uiso   1.00
C564   C     0.89988   0.17364   0.71882   0.00000  Uiso   1.00
C565   C     0.03681   0.16803   0.61728   0.00000  Uiso   1.00
C566   C     0.59196   0.20318   0.70367   0.00000  Uiso   1.00
C567   C     0.51560   0.18594   0.73639   0.00000  Uiso   1.00
C568   C     0.42419   0.17902   0.69122   0.00000  Uiso   1.00
C569   C     0.36500   0.16309   0.73240   0.00000  Uiso   1.00
C570   C     0.59630   0.21953   0.77956   0.00000  Uiso   1.00
C571   C     0.57276   0.24086   0.77070   0.00000  Uiso   1.00
C572   C     0.58152   0.25320   0.84822   0.00000  Uiso   1.00
C573   C     0.70331   0.19311   0.70020   0.00000  Uiso   1.00
C574   C     0.76976   0.19223   0.62462   0.00000  Uiso   1.00
C575   C     0.86863   0.18234   0.63533   0.00000  Uiso   1.00
H576   H     0.67366   0.18042   0.92198   0.00000  Uiso   1.00
H577   H     0.51188   0.15460   0.92548   0.00000  Uiso   1.00
H578   H     0.66044   0.21643   0.00493   0.00000  Uiso   1.00
H579   H     0.85741   0.16781   0.85887   0.00000  Uiso   1.00
H580   H     0.31874   0.12982   0.89261   0.00000  Uiso   1.00
H581   H     0.63202   0.26018   0.06015   0.00000  Uiso   1.00
H582   H     0.04737   0.15766   0.75215   0.00000  Uiso   1.00
H583   H     0.56767   0.20995   0.63879   0.00000  Uiso   1.00
H584   H     0.40007   0.18575   0.62673   0.00000  Uiso   1.00
H585   H     0.54863   0.24758   0.70620   0.00000  Uiso   1.00
H586   H     0.74560   0.19896   0.56014   0.00000  Uiso   1.00
H587   H     0.22799   0.15510   0.65014   0.00000  Uiso   1.00
H588   H     0.54127   0.28546   0.81768   0.00000  Uiso   1.00
H589   H     0.95662   0.18295   0.50968   0.00000  Uiso   1.00
O590   O     0.16501   0.12601   0.76857   0.00000  Uiso   1.00
O591   O     0.57604   0.29705   0.98837   0.00000  Uiso   1.00
O592   O     0.12095   0.16254   0.58429   0.00000  Uiso   1.00
N593   N     0.32040   0.13908   0.83719   0.00000  Uiso   1.00
N594   N     0.61328   0.26097   0.99383   0.00000  Uiso   1.00
N595   N     0.00160   0.16513   0.70589   0.00000  Uiso   1.00
N596   N     0.27156   0.15269   0.70672   0.00000  Uiso   1.00
N597   N     0.56444   0.27457   0.86336   0.00000  Uiso   1.00
N598   N     0.95277   0.17873   0.57542   0.00000  Uiso   1.00
C599   C     0.64938   0.68718   0.35710   0.00000  Uiso   1.00
C600   C     0.54679   0.67725   0.31972   0.00000  Uiso   1.00
C601   C     0.48772   0.66132   0.36098   0.00000  Uiso   1.00
C602   C     0.39624   0.65438   0.31589   0.00000  Uiso   1.00
C603   C     0.24166   0.63764   0.27055   0.00000  Uiso   1.00
C604   C     0.62749   0.71084   0.36290   0.00000  Uiso   1.00
C605   C     0.63629   0.72316   0.44045   0.00000  Uiso   1.00
C606   C     0.61276   0.74450   0.43171   0.00000  Uiso   1.00
C607   C     0.58355   0.77991   0.45339   0.00000  Uiso   1.00
C608   C     0.73450   0.68443   0.28354   0.00000  Uiso   1.00
C609   C     0.83330   0.67453   0.29437   0.00000  Uiso   1.00
C610   C     0.89988   0.67364   0.21882   0.00000  Uiso   1.00
C611   C     0.03681   0.66803   0.11728   0.00000  Uiso   1.00
C612   C     0.59196   0.70318   0.20367   0.00000  Uiso   1.00
C613   C     0.51560   0.68594   0.23639   0.00000  Uiso   1.00
C614   C     0.42419   0.67902   0.19122   0.00000  Uiso   1.00
C615   C     0.36500   0.66309   0.23240   0.00000  Uiso   1.00
C616   C     0.59630   0.71953   0.27956   0.00000  Uiso   1.00
C617   C     0.57276   0.74086   0.27070   0.00000  Uiso   1.00
C618   C     0.58152   0.75320   0.34822   0.00000  Uiso   1.00
C619   C     0.70331   0.69311   0.20020   0.00000  Uiso   1.00
C620   C     0.76976   0.69223   0.12462   0.00000  Uiso   1.00
C621   C     0.86863   0.68234   0.13533   0.00000  Uiso   1.00
H622   H     0.67366   0.68042   0.42198   0.00000  Uiso   1.00
H623   H     0.51188   0.65460   0.42548   0.00000  Uiso   1.00
H624   H     0.66044   0.71643   0.50493   0.00000  Uiso   1.00
H625   H     0.85741   0.66781   0.35887   0.00000  Uiso   1.00
H626   H     0.31874   0.62982   0.39261   0.00000  Uiso   1.00
H627   H     0.63202   0.76018   0.56015   0.00000  Uiso   1.00
H628   H     0.04737   0.65766   0.25215   0.00000  Uiso   1.00
H629   H     0.56767   0.70995   0.13879   0.00000  Uiso   1.00
H630   H     0.40007   0.68575   0.12673   0.00000  Uiso   1.00
H631   H     0.54863   0.74758   0.20620   0.00000  Uiso   1.00
H632   H     0.74560   0.69896   0.06014   0.00000  Uiso   1.00
H633   H     0.22799   0.65510   0.15014   0.00000  Uiso   1.00
H634   H     0.54127   0.78546   0.31768   0.00000  Uiso   1.00
H635   H     0.95662   0.68295   0.00968   0.00000  Uiso   1.00
O636   O     0.16501   0.62601   0.26857   0.00000  Uiso   1.00
O637   O     0.57604   0.79705   0.48837   0.00000  Uiso   1.00
O638   O     0.12095   0.66254   0.08429   0.00000  Uiso   1.00
N639   N     0.32040   0.63908   0.33719   0.00000  Uiso   1.00
N640   N     0.61328   0.76097   0.49383   0.00000  Uiso   1.00
N641   N     0.00160   0.66513   0.20589   0.00000  Uiso   1.00
N642   N     0.27156   0.65269   0.20672   0.00000  Uiso   1.00
N643   N     0.56444   0.77457   0.36336   0.00000  Uiso   1.00
N644   N     0.95277   0.67873   0.07542   0.00000  Uiso   1.00
C645   C     0.14938   0.18718   0.35710   0.00000  Uiso   1.00
C646   C     0.04679   0.17725   0.31972   0.00000  Uiso   1.00
C647   C     0.98772   0.16132   0.36098   0.00000  Uiso   1.00
C648   C     0.89624   0.15438   0.31589   0.00000  Uiso   1.00
C649   C     0.74166   0.13764   0.27055   0.00000  Uiso   1.00
C650   C     0.12749   0.21084   0.36290   0.00000  Uiso   1.00
C651   C     0.13629   0.22316   0.44045   0.00000  Uiso   1.00
C652   C     0.11276   0.24450   0.43171   0.00000  Uiso   1.00
C653   C     0.08355   0.27991   0.45339   0.00000  Uiso   1.00
C654   C     0.23450   0.18443   0.28354   0.00000  Uiso   1.00
C655   C     0.33330   0.17453   0.29437   0.00000  Uiso   1.00
C656   C     0.39988   0.17364   0.21882   0.00000  Uiso   1.00
C657   C     0.53681   0.16803   0.11728   0.00000  Uiso   1.00
C658   C     0.09196   0.20318   0.20367   0.00000  Uiso   1.00
C659   C     0.01560   0.18594   0.23639   0.00000  Uiso   1.00
C660   C     0.92419   0.17902   0.19122   0.00000  Uiso   1.00
C661   C     0.86500   0.16309   0.23240   0.00000  Uiso   1.00
C662   C     0.09630   0.21953   0.27956   0.00000  Uiso   1.00
C663   C     0.07276   0.24086   0.27070   0.00000  Uiso   1.00
C664   C     0.08152   0.25320   0.34822   0.00000  Uiso   1.00
C665   C     0.20331   0.19311   0.20020   0.00000  Uiso   1.00
C666   C     0.26976   0.19223   0.12462   0.00000  Uiso   1.00
C667   C     0.36863   0.18234   0.13533   0.00000  Uiso   1.00
H668   H     0.17366   0.18042   0.42198   0.00000  Uiso   1.00
H669   H     0.01188   0.15460   0.42548   0.00000  Uiso   1.00
H670   H     0.16044   0.21643   0.50493   0.00000  Uiso   1.00
H671   H     0.35741   0.16781   0.35887   0.00000  Uiso   1.00
H672   H     0.81874   0.12982   0.39261   0.00000  Uiso   1.00
H673   H     0.13202   0.26018   0.56015   0.00000  Uiso   1.00
H674   H     0.54737   0.15766   0.25215   0.00000  Uiso   1.00
H675   H     0.06767   0.20995   0.13879   0.00000  Uiso   1.00
H676   H     0.90007   0.18575   0.12673   0.00000  Uiso   1.00
H677   H     0.04863   0.24758   0.20620   0.00000  Uiso   1.00
H678   H     0.24560   0.19896   0.06014   0.00000  Uiso   1.00
H679   H     0.72799   0.15510   0.15014   0.00000  Uiso   1.00
H680   H     0.04127   0.28546   0.31768   0.00000  Uiso   1.00
H681   H     0.45662   0.18295   0.00968   0.00000  Uiso   1.00
O682   O     0.66501   0.12601   0.26857   0.00000  Uiso   1.00
O683   O     0.07604   0.29705   0.48837   0.00000  Uiso   1.00
O684   O     0.62095   0.16254   0.08429   0.00000  Uiso   1.00
N685   N     0.82040   0.13908   0.33719   0.00000  Uiso   1.00
N686   N     0.11328   0.26097   0.49383   0.00000  Uiso   1.00
N687   N     0.50160   0.16513   0.20589   0.00000  Uiso   1.00
N688   N     0.77156   0.15269   0.20672   0.00000  Uiso   1.00
N689   N     0.06444   0.27457   0.36336   0.00000  Uiso   1.00
N690   N     0.45277   0.17873   0.07542   0.00000  Uiso   1.00
C691   C     0.14938   0.68718   0.85710   0.00000  Uiso   1.00
C692   C     0.04679   0.67725   0.81972   0.00000  Uiso   1.00
C693   C     0.98772   0.66132   0.86098   0.00000  Uiso   1.00
C694   C     0.89624   0.65438   0.81589   0.00000  Uiso   1.00
C695   C     0.74166   0.63764   0.77055   0.00000  Uiso   1.00
C696   C     0.12749   0.71084   0.86290   0.00000  Uiso   1.00
C697   C     0.13629   0.72316   0.94045   0.00000  Uiso   1.00
C698   C     0.11276   0.74450   0.93171   0.00000  Uiso   1.00
C699   C     0.08355   0.77991   0.95339   0.00000  Uiso   1.00
C700   C     0.23450   0.68443   0.78354   0.00000  Uiso   1.00
C701   C     0.33330   0.67453   0.79437   0.00000  Uiso   1.00
C702   C     0.39988   0.67364   0.71882   0.00000  Uiso   1.00
C703   C     0.53681   0.66803   0.61728   0.00000  Uiso   1.00
C704   C     0.09196   0.70318   0.70367   0.00000  Uiso   1.00
C705   C     0.01560   0.68594   0.73639   0.00000  Uiso   1.00
C706   C     0.92419   0.67902   0.69122   0.00000  Uiso   1.00
C707   C     0.86500   0.66309   0.73240   0.00000  Uiso   1.00
C708   C     0.09630   0.71953   0.77956   0.00000  Uiso   1.00
C709   C     0.07276   0.74086   0.77070   0.00000  Uiso   1.00
C710   C     0.08152   0.75320   0.84822   0.00000  Uiso   1.00
C711   C     0.20331   0.69311   0.70020   0.00000  Uiso   1.00
C712   C     0.26976   0.69223   0.62462   0.00000  Uiso   1.00
C713   C     0.36863   0.68234   0.63533   0.00000  Uiso   1.00
H714   H     0.17366   0.68042   0.92198   0.00000  Uiso   1.00
H715   H     0.01188   0.65460   0.92548   0.00000  Uiso   1.00
H716   H     0.16044   0.71643   0.00493   0.00000  Uiso   1.00
H717   H     0.35741   0.66781   0.85887   0.00000  Uiso   1.00
H718   H     0.81874   0.62982   0.89261   0.00000  Uiso   1.00
H719   H     0.13202   0.76018   0.06015   0.00000  Uiso   1.00
H720   H     0.54737   0.65766   0.75215   0.00000  Uiso   1.00
H721   H     0.06767   0.70995   0.63879   0.00000  Uiso   1.00
H722   H     0.90007   0.68575   0.62673   0.00000  Uiso   1.00
H723   H     0.04863   0.74758   0.70620   0.00000  Uiso   1.00
H724   H     0.24560   0.69896   0.56014   0.00000  Uiso   1.00
H725   H     0.72799   0.65510   0.65014   0.00000  Uiso   1.00
H726   H     0.04127   0.78546   0.81768   0.00000  Uiso   1.00
H727   H     0.45662   0.68295   0.50968   0.00000  Uiso   1.00
O728   O     0.66501   0.62601   0.76857   0.00000  Uiso   1.00
O729   O     0.07604   0.79705   0.98837   0.00000  Uiso   1.00
O730   O     0.62095   0.66254   0.58429   0.00000  Uiso   1.00
N731   N     0.82040   0.63908   0.83719   0.00000  Uiso   1.00
N732   N     0.11328   0.76097   0.99383   0.00000  Uiso   1.00
N733   N     0.50160   0.66513   0.70589   0.00000  Uiso   1.00
N734   N     0.77156   0.65269   0.70672   0.00000  Uiso   1.00
N735   N     0.06444   0.77457   0.86336   0.00000  Uiso   1.00
N736   N     0.45277   0.67873   0.57542   0.00000  Uiso   1.00
