data_job_02727
_audit_creation_date              2018-12-19
_audit_creation_method            'Materials Studio'
_symmetry_space_group_name_H-M    'P1'
_symmetry_Int_Tables_number       1
_symmetry_cell_setting            triclinic
loop_
_symmetry_equiv_pos_as_xyz
  x,y,z
_cell_length_a                    26.6816
_cell_length_b                    26.6816
_cell_length_c                    12.6802
_cell_angle_alpha                 90.0000
_cell_angle_beta                  90.0000
_cell_angle_gamma                 90.0000
loop_
_atom_site_label
_atom_site_type_symbol
_atom_site_fract_x
_atom_site_fract_y
_atom_site_fract_z
_atom_site_U_iso_or_equiv
_atom_site_adp_type
_atom_site_occupancy
C1     C     0.35182   0.15655   0.68683   0.00000  Uiso   1.00
C2     C     0.36520   0.11130   0.75467   0.00000  Uiso   1.00
C3     C     0.39939   0.11097   0.83715   0.00000  Uiso   1.00
C4     C     0.40636   0.06579   0.88948   0.00000  Uiso   1.00
C5     C     0.43116   0.00210   0.99923   0.00000  Uiso   1.00
C6     C     0.36191   0.14096   0.57310   0.00000  Uiso   1.00
C7     C     0.39332   0.16558   0.50290   0.00000  Uiso   1.00
C8     C     0.39752   0.14538   0.40238   0.00000  Uiso   1.00
C9     C     0.41718   0.12776   0.23020   0.00000  Uiso   1.00
C10    C     0.29518   0.16282   0.69590   0.00000  Uiso   1.00
C11    C     0.27048   0.20582   0.72894   0.00000  Uiso   1.00
C12    C     0.21849   0.20403   0.73178   0.00000  Uiso   1.00
C13    C     0.13454   0.22034   0.75028   0.00000  Uiso   1.00
C14    C     0.30341   0.07691   0.63310   0.00000  Uiso   1.00
C15    C     0.33891   0.06804   0.72549   0.00000  Uiso   1.00
C16    C     0.34583   0.02286   0.77771   0.00000  Uiso   1.00
C17    C     0.38002   0.02246   0.86025   0.00000  Uiso   1.00
C18    C     0.33562   0.09771   0.54391   0.00000  Uiso   1.00
C19    C     0.33976   0.07747   0.44346   0.00000  Uiso   1.00
C20    C     0.37118   0.10205   0.37314   0.00000  Uiso   1.00
C21    C     0.26888   0.11956   0.66672   0.00000  Uiso   1.00
C22    C     0.21692   0.11771   0.66950   0.00000  Uiso   1.00
C23    C     0.19215   0.16069   0.70254   0.00000  Uiso   1.00
H24    H     0.37229   0.19023   0.70954   0.00000  Uiso   1.00
H25    H     0.41973   0.14445   0.85971   0.00000  Uiso   1.00
H26    H     0.41366   0.19905   0.52551   0.00000  Uiso   1.00
H27    H     0.29084   0.23928   0.75151   0.00000  Uiso   1.00
H28    H     0.46075   0.07461   0.01329   0.00000  Uiso   1.00
H29    H     0.44794   0.18976   0.30861   0.00000  Uiso   1.00
H30    H     0.18894   0.27460   0.78518   0.00000  Uiso   1.00
H31    H     0.28294   0.04324   0.61038   0.00000  Uiso   1.00
H32    H     0.32547   0.98939   0.75511   0.00000  Uiso   1.00
H33    H     0.31941   0.04400   0.42091   0.00000  Uiso   1.00
H34    H     0.19658   0.08423   0.64691   0.00000  Uiso   1.00
H35    H     0.38424   0.94876   0.92839   0.00000  Uiso   1.00
H36    H     0.37143   0.06391   0.22371   0.00000  Uiso   1.00
H37    H     0.11244   0.14875   0.70028   0.00000  Uiso   1.00
O38    O     0.45210   0.97891   0.06781   0.00000  Uiso   1.00
O39    O     0.43529   0.12999   0.14329   0.00000  Uiso   1.00
O40    O     0.09549   0.24129   0.76855   0.00000  Uiso   1.00
N41    N     0.43690   0.05239   0.97346   0.00000  Uiso   1.00
N42    N     0.42493   0.16004   0.31463   0.00000  Uiso   1.00
N43    N     0.18279   0.23936   0.76016   0.00000  Uiso   1.00
N44    N     0.39573   0.98467   0.92778   0.00000  Uiso   1.00
N45    N     0.38376   0.09232   0.26895   0.00000  Uiso   1.00
N46    N     0.14162   0.17164   0.71448   0.00000  Uiso   1.00
C47    C     0.85182   0.65655   0.18683   0.00000  Uiso   1.00
C48    C     0.86520   0.61130   0.25467   0.00000  Uiso   1.00
C49    C     0.89939   0.61097   0.33715   0.00000  Uiso   1.00
C50    C     0.90636   0.56579   0.38948   0.00000  Uiso   1.00
C51    C     0.93116   0.50210   0.49923   0.00000  Uiso   1.00
C52    C     0.86191   0.64096   0.07310   0.00000  Uiso   1.00
C53    C     0.89332   0.66558   0.00290   0.00000  Uiso   1.00
C54    C     0.89752   0.64538   0.90238   0.00000  Uiso   1.00
C55    C     0.91718   0.62776   0.73020   0.00000  Uiso   1.00
C56    C     0.79518   0.66282   0.19590   0.00000  Uiso   1.00
C57    C     0.77048   0.70582   0.22894   0.00000  Uiso   1.00
C58    C     0.71849   0.70403   0.23178   0.00000  Uiso   1.00
C59    C     0.63454   0.72034   0.25028   0.00000  Uiso   1.00
C60    C     0.80341   0.57691   0.13310   0.00000  Uiso   1.00
C61    C     0.83891   0.56804   0.22549   0.00000  Uiso   1.00
C62    C     0.84583   0.52286   0.27771   0.00000  Uiso   1.00
C63    C     0.88002   0.52246   0.36025   0.00000  Uiso   1.00
C64    C     0.83562   0.59771   0.04391   0.00000  Uiso   1.00
C65    C     0.83976   0.57747   0.94346   0.00000  Uiso   1.00
C66    C     0.87118   0.60205   0.87314   0.00000  Uiso   1.00
C67    C     0.76888   0.61956   0.16672   0.00000  Uiso   1.00
C68    C     0.71692   0.61771   0.16950   0.00000  Uiso   1.00
C69    C     0.69215   0.66069   0.20254   0.00000  Uiso   1.00
H70    H     0.87229   0.69023   0.20954   0.00000  Uiso   1.00
H71    H     0.91973   0.64445   0.35971   0.00000  Uiso   1.00
H72    H     0.91366   0.69905   0.02551   0.00000  Uiso   1.00
H73    H     0.79084   0.73928   0.25151   0.00000  Uiso   1.00
H74    H     0.96075   0.57461   0.51329   0.00000  Uiso   1.00
H75    H     0.94794   0.68976   0.80861   0.00000  Uiso   1.00
H76    H     0.68894   0.77460   0.28518   0.00000  Uiso   1.00
H77    H     0.78294   0.54324   0.11038   0.00000  Uiso   1.00
H78    H     0.82547   0.48939   0.25511   0.00000  Uiso   1.00
H79    H     0.81941   0.54400   0.92091   0.00000  Uiso   1.00
H80    H     0.69658   0.58423   0.14691   0.00000  Uiso   1.00
H81    H     0.88424   0.44876   0.42839   0.00000  Uiso   1.00
H82    H     0.87143   0.56391   0.72371   0.00000  Uiso   1.00
H83    H     0.61244   0.64875   0.20028   0.00000  Uiso   1.00
O84    O     0.95210   0.47891   0.56781   0.00000  Uiso   1.00
O85    O     0.93529   0.62999   0.64329   0.00000  Uiso   1.00
O86    O     0.59549   0.74129   0.26855   0.00000  Uiso   1.00
N87    N     0.93690   0.55239   0.47346   0.00000  Uiso   1.00
N88    N     0.92493   0.66004   0.81463   0.00000  Uiso   1.00
N89    N     0.68279   0.73936   0.26016   0.00000  Uiso   1.00
N90    N     0.89573   0.48467   0.42778   0.00000  Uiso   1.00
N91    N     0.88376   0.59232   0.76895   0.00000  Uiso   1.00
N92    N     0.64162   0.67164   0.21448   0.00000  Uiso   1.00
C93    C     0.64818   0.84345   0.68683   0.00000  Uiso   1.00
C94    C     0.63480   0.88870   0.75467   0.00000  Uiso   1.00
C95    C     0.60061   0.88903   0.83715   0.00000  Uiso   1.00
C96    C     0.59364   0.93421   0.88948   0.00000  Uiso   1.00
C97    C     0.56884   0.99790   0.99923   0.00000  Uiso   1.00
C98    C     0.63809   0.85904   0.57310   0.00000  Uiso   1.00
C99    C     0.60668   0.83442   0.50290   0.00000  Uiso   1.00
C100   C     0.60248   0.85462   0.40238   0.00000  Uiso   1.00
C101   C     0.58282   0.87224   0.23020   0.00000  Uiso   1.00
C102   C     0.70482   0.83718   0.69590   0.00000  Uiso   1.00
C103   C     0.72952   0.79418   0.72894   0.00000  Uiso   1.00
C104   C     0.78151   0.79597   0.73178   0.00000  Uiso   1.00
C105   C     0.86546   0.77966   0.75028   0.00000  Uiso   1.00
C106   C     0.69659   0.92309   0.63310   0.00000  Uiso   1.00
C107   C     0.66109   0.93196   0.72549   0.00000  Uiso   1.00
C108   C     0.65417   0.97714   0.77771   0.00000  Uiso   1.00
C109   C     0.61998   0.97754   0.86025   0.00000  Uiso   1.00
C110   C     0.66438   0.90229   0.54391   0.00000  Uiso   1.00
C111   C     0.66024   0.92253   0.44346   0.00000  Uiso   1.00
C112   C     0.62882   0.89795   0.37314   0.00000  Uiso   1.00
C113   C     0.73112   0.88044   0.66672   0.00000  Uiso   1.00
C114   C     0.78308   0.88229   0.66950   0.00000  Uiso   1.00
C115   C     0.80785   0.83931   0.70254   0.00000  Uiso   1.00
H116   H     0.62771   0.80977   0.70954   0.00000  Uiso   1.00
H117   H     0.58027   0.85555   0.85971   0.00000  Uiso   1.00
H118   H     0.58634   0.80095   0.52551   0.00000  Uiso   1.00
H119   H     0.70916   0.76072   0.75151   0.00000  Uiso   1.00
H120   H     0.53925   0.92539   0.01329   0.00000  Uiso   1.00
H121   H     0.55206   0.81024   0.30861   0.00000  Uiso   1.00
H122   H     0.81106   0.72540   0.78518   0.00000  Uiso   1.00
H123   H     0.71706   0.95676   0.61038   0.00000  Uiso   1.00
H124   H     0.67453   0.01061   0.75511   0.00000  Uiso   1.00
H125   H     0.68059   0.95600   0.42091   0.00000  Uiso   1.00
H126   H     0.80342   0.91577   0.64691   0.00000  Uiso   1.00
H127   H     0.61576   0.05124   0.92839   0.00000  Uiso   1.00
H128   H     0.62857   0.93609   0.22371   0.00000  Uiso   1.00
H129   H     0.88756   0.85125   0.70028   0.00000  Uiso   1.00
O130   O     0.54790   0.02109   0.06781   0.00000  Uiso   1.00
O131   O     0.56471   0.87001   0.14329   0.00000  Uiso   1.00
O132   O     0.90451   0.75871   0.76855   0.00000  Uiso   1.00
N133   N     0.56310   0.94761   0.97346   0.00000  Uiso   1.00
N134   N     0.57507   0.83996   0.31463   0.00000  Uiso   1.00
N135   N     0.81721   0.76064   0.76016   0.00000  Uiso   1.00
N136   N     0.60427   0.01533   0.92778   0.00000  Uiso   1.00
N137   N     0.61624   0.90768   0.26895   0.00000  Uiso   1.00
N138   N     0.85838   0.82836   0.71448   0.00000  Uiso   1.00
C139   C     0.14818   0.34345   0.18683   0.00000  Uiso   1.00
C140   C     0.13480   0.38870   0.25467   0.00000  Uiso   1.00
C141   C     0.10061   0.38903   0.33715   0.00000  Uiso   1.00
C142   C     0.09364   0.43421   0.38948   0.00000  Uiso   1.00
C143   C     0.06884   0.49790   0.49923   0.00000  Uiso   1.00
C144   C     0.13809   0.35904   0.07310   0.00000  Uiso   1.00
C145   C     0.10668   0.33442   0.00290   0.00000  Uiso   1.00
C146   C     0.10248   0.35462   0.90238   0.00000  Uiso   1.00
C147   C     0.08282   0.37224   0.73020   0.00000  Uiso   1.00
C148   C     0.20482   0.33718   0.19590   0.00000  Uiso   1.00
C149   C     0.22952   0.29418   0.22894   0.00000  Uiso   1.00
C150   C     0.28151   0.29597   0.23178   0.00000  Uiso   1.00
C151   C     0.36546   0.27966   0.25028   0.00000  Uiso   1.00
C152   C     0.19659   0.42309   0.13310   0.00000  Uiso   1.00
C153   C     0.16109   0.43196   0.22549   0.00000  Uiso   1.00
C154   C     0.15417   0.47714   0.27771   0.00000  Uiso   1.00
C155   C     0.11998   0.47754   0.36025   0.00000  Uiso   1.00
C156   C     0.16438   0.40229   0.04391   0.00000  Uiso   1.00
C157   C     0.16024   0.42253   0.94346   0.00000  Uiso   1.00
C158   C     0.12882   0.39795   0.87314   0.00000  Uiso   1.00
C159   C     0.23112   0.38044   0.16672   0.00000  Uiso   1.00
C160   C     0.28308   0.38229   0.16950   0.00000  Uiso   1.00
C161   C     0.30785   0.33931   0.20254   0.00000  Uiso   1.00
H162   H     0.12771   0.30977   0.20954   0.00000  Uiso   1.00
H163   H     0.08027   0.35555   0.35971   0.00000  Uiso   1.00
H164   H     0.08634   0.30095   0.02551   0.00000  Uiso   1.00
H165   H     0.20916   0.26072   0.25151   0.00000  Uiso   1.00
H166   H     0.03925   0.42539   0.51329   0.00000  Uiso   1.00
H167   H     0.05206   0.31024   0.80861   0.00000  Uiso   1.00
H168   H     0.31106   0.22540   0.28518   0.00000  Uiso   1.00
H169   H     0.21706   0.45676   0.11038   0.00000  Uiso   1.00
H170   H     0.17453   0.51061   0.25511   0.00000  Uiso   1.00
H171   H     0.18059   0.45600   0.92091   0.00000  Uiso   1.00
H172   H     0.30342   0.41577   0.14691   0.00000  Uiso   1.00
H173   H     0.11576   0.55124   0.42839   0.00000  Uiso   1.00
H174   H     0.12857   0.43609   0.72371   0.00000  Uiso   1.00
H175   H     0.38756   0.35125   0.20028   0.00000  Uiso   1.00
O176   O     0.04790   0.52109   0.56781   0.00000  Uiso   1.00
O177   O     0.06471   0.37001   0.64329   0.00000  Uiso   1.00
O178   O     0.40451   0.25871   0.26855   0.00000  Uiso   1.00
N179   N     0.06310   0.44761   0.47346   0.00000  Uiso   1.00
N180   N     0.07507   0.33996   0.81463   0.00000  Uiso   1.00
N181   N     0.31721   0.26064   0.26016   0.00000  Uiso   1.00
N182   N     0.10427   0.51533   0.42778   0.00000  Uiso   1.00
N183   N     0.11624   0.40768   0.76895   0.00000  Uiso   1.00
N184   N     0.35838   0.32836   0.21448   0.00000  Uiso   1.00
C185   C     0.15655   0.64818   0.31317   0.00000  Uiso   1.00
C186   C     0.11130   0.63480   0.24533   0.00000  Uiso   1.00
C187   C     0.11097   0.60061   0.16285   0.00000  Uiso   1.00
C188   C     0.06579   0.59364   0.11052   0.00000  Uiso   1.00
C189   C     0.00210   0.56884   0.00077   0.00000  Uiso   1.00
C190   C     0.14096   0.63809   0.42690   0.00000  Uiso   1.00
C191   C     0.16558   0.60668   0.49710   0.00000  Uiso   1.00
C192   C     0.14538   0.60248   0.59762   0.00000  Uiso   1.00
C193   C     0.12776   0.58282   0.76980   0.00000  Uiso   1.00
C194   C     0.16282   0.70482   0.30410   0.00000  Uiso   1.00
C195   C     0.20582   0.72952   0.27106   0.00000  Uiso   1.00
C196   C     0.20403   0.78151   0.26822   0.00000  Uiso   1.00
C197   C     0.22034   0.86546   0.24972   0.00000  Uiso   1.00
C198   C     0.07691   0.69659   0.36690   0.00000  Uiso   1.00
C199   C     0.06804   0.66109   0.27451   0.00000  Uiso   1.00
C200   C     0.02286   0.65417   0.22229   0.00000  Uiso   1.00
C201   C     0.02246   0.61998   0.13975   0.00000  Uiso   1.00
C202   C     0.09771   0.66438   0.45609   0.00000  Uiso   1.00
C203   C     0.07747   0.66024   0.55654   0.00000  Uiso   1.00
C204   C     0.10205   0.62882   0.62686   0.00000  Uiso   1.00
C205   C     0.11956   0.73112   0.33328   0.00000  Uiso   1.00
C206   C     0.11771   0.78308   0.33050   0.00000  Uiso   1.00
C207   C     0.16069   0.80785   0.29746   0.00000  Uiso   1.00
H208   H     0.19023   0.62771   0.29046   0.00000  Uiso   1.00
H209   H     0.14445   0.58027   0.14029   0.00000  Uiso   1.00
H210   H     0.19905   0.58634   0.47449   0.00000  Uiso   1.00
H211   H     0.23928   0.70916   0.24849   0.00000  Uiso   1.00
H212   H     0.07461   0.53925   0.98671   0.00000  Uiso   1.00
H213   H     0.18976   0.55206   0.69139   0.00000  Uiso   1.00
H214   H     0.27460   0.81106   0.21482   0.00000  Uiso   1.00
H215   H     0.04324   0.71706   0.38962   0.00000  Uiso   1.00
H216   H     0.98939   0.67453   0.24489   0.00000  Uiso   1.00
H217   H     0.04400   0.68059   0.57909   0.00000  Uiso   1.00
H218   H     0.08423   0.80342   0.35309   0.00000  Uiso   1.00
H219   H     0.94876   0.61576   0.07161   0.00000  Uiso   1.00
H220   H     0.06391   0.62857   0.77629   0.00000  Uiso   1.00
H221   H     0.14875   0.88756   0.29972   0.00000  Uiso   1.00
O222   O     0.97891   0.54790   0.93219   0.00000  Uiso   1.00
O223   O     0.12999   0.56471   0.85671   0.00000  Uiso   1.00
O224   O     0.24129   0.90451   0.23145   0.00000  Uiso   1.00
N225   N     0.05239   0.56310   0.02654   0.00000  Uiso   1.00
N226   N     0.16004   0.57507   0.68537   0.00000  Uiso   1.00
N227   N     0.23936   0.81721   0.23984   0.00000  Uiso   1.00
N228   N     0.98467   0.60427   0.07222   0.00000  Uiso   1.00
N229   N     0.09232   0.61624   0.73105   0.00000  Uiso   1.00
N230   N     0.17164   0.85838   0.28552   0.00000  Uiso   1.00
C231   C     0.65655   0.14818   0.81317   0.00000  Uiso   1.00
C232   C     0.61130   0.13480   0.74533   0.00000  Uiso   1.00
C233   C     0.61097   0.10061   0.66285   0.00000  Uiso   1.00
C234   C     0.56579   0.09364   0.61052   0.00000  Uiso   1.00
C235   C     0.50210   0.06884   0.50077   0.00000  Uiso   1.00
C236   C     0.64096   0.13809   0.92690   0.00000  Uiso   1.00
C237   C     0.66558   0.10668   0.99710   0.00000  Uiso   1.00
C238   C     0.64538   0.10248   0.09762   0.00000  Uiso   1.00
C239   C     0.62776   0.08282   0.26980   0.00000  Uiso   1.00
C240   C     0.66282   0.20482   0.80410   0.00000  Uiso   1.00
C241   C     0.70582   0.22952   0.77106   0.00000  Uiso   1.00
C242   C     0.70403   0.28151   0.76822   0.00000  Uiso   1.00
C243   C     0.72034   0.36546   0.74972   0.00000  Uiso   1.00
C244   C     0.57691   0.19659   0.86690   0.00000  Uiso   1.00
C245   C     0.56804   0.16109   0.77451   0.00000  Uiso   1.00
C246   C     0.52286   0.15417   0.72229   0.00000  Uiso   1.00
C247   C     0.52246   0.11998   0.63975   0.00000  Uiso   1.00
C248   C     0.59771   0.16438   0.95609   0.00000  Uiso   1.00
C249   C     0.57747   0.16024   0.05654   0.00000  Uiso   1.00
C250   C     0.60205   0.12882   0.12686   0.00000  Uiso   1.00
C251   C     0.61956   0.23112   0.83328   0.00000  Uiso   1.00
C252   C     0.61771   0.28308   0.83050   0.00000  Uiso   1.00
C253   C     0.66069   0.30785   0.79746   0.00000  Uiso   1.00
H254   H     0.69023   0.12771   0.79046   0.00000  Uiso   1.00
H255   H     0.64445   0.08027   0.64029   0.00000  Uiso   1.00
H256   H     0.69905   0.08634   0.97449   0.00000  Uiso   1.00
H257   H     0.73928   0.20916   0.74849   0.00000  Uiso   1.00
H258   H     0.57461   0.03925   0.48671   0.00000  Uiso   1.00
H259   H     0.68976   0.05206   0.19139   0.00000  Uiso   1.00
H260   H     0.77460   0.31106   0.71482   0.00000  Uiso   1.00
H261   H     0.54324   0.21706   0.88962   0.00000  Uiso   1.00
H262   H     0.48939   0.17453   0.74489   0.00000  Uiso   1.00
H263   H     0.54400   0.18059   0.07909   0.00000  Uiso   1.00
H264   H     0.58423   0.30342   0.85309   0.00000  Uiso   1.00
H265   H     0.44876   0.11576   0.57161   0.00000  Uiso   1.00
H266   H     0.56391   0.12857   0.27629   0.00000  Uiso   1.00
H267   H     0.64875   0.38756   0.79972   0.00000  Uiso   1.00
O268   O     0.47891   0.04790   0.43219   0.00000  Uiso   1.00
O269   O     0.62999   0.06471   0.35671   0.00000  Uiso   1.00
O270   O     0.74129   0.40451   0.73145   0.00000  Uiso   1.00
N271   N     0.55239   0.06310   0.52654   0.00000  Uiso   1.00
N272   N     0.66004   0.07507   0.18537   0.00000  Uiso   1.00
N273   N     0.73936   0.31721   0.73984   0.00000  Uiso   1.00
N274   N     0.48467   0.10427   0.57222   0.00000  Uiso   1.00
N275   N     0.59232   0.11624   0.23105   0.00000  Uiso   1.00
N276   N     0.67164   0.35838   0.78552   0.00000  Uiso   1.00
C277   C     0.84345   0.35182   0.31317   0.00000  Uiso   1.00
C278   C     0.88870   0.36520   0.24533   0.00000  Uiso   1.00
C279   C     0.88903   0.39939   0.16285   0.00000  Uiso   1.00
C280   C     0.93421   0.40636   0.11052   0.00000  Uiso   1.00
C281   C     0.99790   0.43116   0.00077   0.00000  Uiso   1.00
C282   C     0.85904   0.36191   0.42690   0.00000  Uiso   1.00
C283   C     0.83442   0.39332   0.49710   0.00000  Uiso   1.00
C284   C     0.85462   0.39752   0.59762   0.00000  Uiso   1.00
C285   C     0.87224   0.41718   0.76980   0.00000  Uiso   1.00
C286   C     0.83718   0.29518   0.30410   0.00000  Uiso   1.00
C287   C     0.79418   0.27048   0.27106   0.00000  Uiso   1.00
C288   C     0.79597   0.21849   0.26822   0.00000  Uiso   1.00
C289   C     0.77966   0.13454   0.24972   0.00000  Uiso   1.00
C290   C     0.92309   0.30341   0.36690   0.00000  Uiso   1.00
C291   C     0.93196   0.33891   0.27451   0.00000  Uiso   1.00
C292   C     0.97714   0.34583   0.22229   0.00000  Uiso   1.00
C293   C     0.97754   0.38002   0.13975   0.00000  Uiso   1.00
C294   C     0.90229   0.33562   0.45609   0.00000  Uiso   1.00
C295   C     0.92253   0.33976   0.55654   0.00000  Uiso   1.00
C296   C     0.89795   0.37118   0.62686   0.00000  Uiso   1.00
C297   C     0.88044   0.26888   0.33328   0.00000  Uiso   1.00
C298   C     0.88229   0.21692   0.33050   0.00000  Uiso   1.00
C299   C     0.83931   0.19215   0.29746   0.00000  Uiso   1.00
H300   H     0.80977   0.37229   0.29046   0.00000  Uiso   1.00
H301   H     0.85555   0.41973   0.14029   0.00000  Uiso   1.00
H302   H     0.80095   0.41366   0.47449   0.00000  Uiso   1.00
H303   H     0.76072   0.29084   0.24849   0.00000  Uiso   1.00
H304   H     0.92539   0.46075   0.98671   0.00000  Uiso   1.00
H305   H     0.81024   0.44794   0.69139   0.00000  Uiso   1.00
H306   H     0.72540   0.18894   0.21482   0.00000  Uiso   1.00
H307   H     0.95676   0.28294   0.38962   0.00000  Uiso   1.00
H308   H     0.01061   0.32547   0.24489   0.00000  Uiso   1.00
H309   H     0.95600   0.31941   0.57909   0.00000  Uiso   1.00
H310   H     0.91577   0.19658   0.35309   0.00000  Uiso   1.00
H311   H     0.05124   0.38424   0.07161   0.00000  Uiso   1.00
H312   H     0.93609   0.37143   0.77629   0.00000  Uiso   1.00
H313   H     0.85125   0.11244   0.29972   0.00000  Uiso   1.00
O314   O     0.02109   0.45210   0.93219   0.00000  Uiso   1.00
O315   O     0.87001   0.43529   0.85671   0.00000  Uiso   1.00
O316   O     0.75871   0.09549   0.23145   0.00000  Uiso   1.00
N317   N     0.94761   0.43690   0.02654   0.00000  Uiso   1.00
N318   N     0.83996   0.42493   0.68537   0.00000  Uiso   1.00
N319   N     0.76064   0.18279   0.23984   0.00000  Uiso   1.00
N320   N     0.01533   0.39573   0.07222   0.00000  Uiso   1.00
N321   N     0.90768   0.38376   0.73105   0.00000  Uiso   1.00
N322   N     0.82836   0.14162   0.28552   0.00000  Uiso   1.00
C323   C     0.34345   0.85182   0.81317   0.00000  Uiso   1.00
C324   C     0.38870   0.86520   0.74533   0.00000  Uiso   1.00
C325   C     0.38903   0.89939   0.66285   0.00000  Uiso   1.00
C326   C     0.43421   0.90636   0.61052   0.00000  Uiso   1.00
C327   C     0.49790   0.93116   0.50077   0.00000  Uiso   1.00
C328   C     0.35904   0.86191   0.92690   0.00000  Uiso   1.00
C329   C     0.33442   0.89332   0.99710   0.00000  Uiso   1.00
C330   C     0.35462   0.89752   0.09762   0.00000  Uiso   1.00
C331   C     0.37224   0.91718   0.26980   0.00000  Uiso   1.00
C332   C     0.33718   0.79518   0.80410   0.00000  Uiso   1.00
C333   C     0.29418   0.77048   0.77106   0.00000  Uiso   1.00
C334   C     0.29597   0.71849   0.76822   0.00000  Uiso   1.00
C335   C     0.27966   0.63454   0.74972   0.00000  Uiso   1.00
C336   C     0.42309   0.80341   0.86690   0.00000  Uiso   1.00
C337   C     0.43196   0.83891   0.77451   0.00000  Uiso   1.00
C338   C     0.47714   0.84583   0.72229   0.00000  Uiso   1.00
C339   C     0.47754   0.88002   0.63975   0.00000  Uiso   1.00
C340   C     0.40229   0.83562   0.95609   0.00000  Uiso   1.00
C341   C     0.42253   0.83976   0.05654   0.00000  Uiso   1.00
C342   C     0.39795   0.87118   0.12686   0.00000  Uiso   1.00
C343   C     0.38044   0.76888   0.83328   0.00000  Uiso   1.00
C344   C     0.38229   0.71692   0.83050   0.00000  Uiso   1.00
C345   C     0.33931   0.69215   0.79746   0.00000  Uiso   1.00
H346   H     0.30977   0.87229   0.79046   0.00000  Uiso   1.00
H347   H     0.35555   0.91973   0.64029   0.00000  Uiso   1.00
H348   H     0.30095   0.91366   0.97449   0.00000  Uiso   1.00
H349   H     0.26072   0.79084   0.74849   0.00000  Uiso   1.00
H350   H     0.42539   0.96075   0.48671   0.00000  Uiso   1.00
H351   H     0.31024   0.94794   0.19139   0.00000  Uiso   1.00
H352   H     0.22540   0.68894   0.71482   0.00000  Uiso   1.00
H353   H     0.45676   0.78294   0.88962   0.00000  Uiso   1.00
H354   H     0.51061   0.82547   0.74489   0.00000  Uiso   1.00
H355   H     0.45600   0.81941   0.07909   0.00000  Uiso   1.00
H356   H     0.41577   0.69658   0.85309   0.00000  Uiso   1.00
H357   H     0.55124   0.88424   0.57161   0.00000  Uiso   1.00
H358   H     0.43609   0.87143   0.27629   0.00000  Uiso   1.00
H359   H     0.35125   0.61244   0.79972   0.00000  Uiso   1.00
O360   O     0.52109   0.95210   0.43219   0.00000  Uiso   1.00
O361   O     0.37001   0.93529   0.35671   0.00000  Uiso   1.00
O362   O     0.25871   0.59549   0.73145   0.00000  Uiso   1.00
N363   N     0.44761   0.93690   0.52654   0.00000  Uiso   1.00
N364   N     0.33996   0.92493   0.18537   0.00000  Uiso   1.00
N365   N     0.26064   0.68279   0.73984   0.00000  Uiso   1.00
N366   N     0.51533   0.89573   0.57222   0.00000  Uiso   1.00
N367   N     0.40768   0.88376   0.23105   0.00000  Uiso   1.00
N368   N     0.32836   0.64162   0.78552   0.00000  Uiso   1.00
C369   C     0.14818   0.15655   0.06317   0.00000  Uiso   1.00
C370   C     0.13480   0.11130   0.99533   0.00000  Uiso   1.00
C371   C     0.10061   0.11097   0.91285   0.00000  Uiso   1.00
C372   C     0.09364   0.06579   0.86052   0.00000  Uiso   1.00
C373   C     0.06884   0.00210   0.75077   0.00000  Uiso   1.00
C374   C     0.13809   0.14096   0.17690   0.00000  Uiso   1.00
C375   C     0.10668   0.16558   0.24710   0.00000  Uiso   1.00
C376   C     0.10248   0.14538   0.34762   0.00000  Uiso   1.00
C377   C     0.08282   0.12776   0.51980   0.00000  Uiso   1.00
C378   C     0.20482   0.16282   0.05410   0.00000  Uiso   1.00
C379   C     0.22952   0.20582   0.02106   0.00000  Uiso   1.00
C380   C     0.28151   0.20403   0.01822   0.00000  Uiso   1.00
C381   C     0.36546   0.22034   0.99972   0.00000  Uiso   1.00
C382   C     0.19659   0.07691   0.11690   0.00000  Uiso   1.00
C383   C     0.16109   0.06804   0.02451   0.00000  Uiso   1.00
C384   C     0.15417   0.02286   0.97229   0.00000  Uiso   1.00
C385   C     0.11998   0.02246   0.88975   0.00000  Uiso   1.00
C386   C     0.16438   0.09771   0.20609   0.00000  Uiso   1.00
C387   C     0.16024   0.07747   0.30654   0.00000  Uiso   1.00
C388   C     0.12882   0.10205   0.37686   0.00000  Uiso   1.00
C389   C     0.23112   0.11956   0.08328   0.00000  Uiso   1.00
C390   C     0.28308   0.11771   0.08050   0.00000  Uiso   1.00
C391   C     0.30785   0.16069   0.04746   0.00000  Uiso   1.00
H392   H     0.12771   0.19023   0.04046   0.00000  Uiso   1.00
H393   H     0.08027   0.14445   0.89029   0.00000  Uiso   1.00
H394   H     0.08634   0.19905   0.22449   0.00000  Uiso   1.00
H395   H     0.20916   0.23928   0.99849   0.00000  Uiso   1.00
H396   H     0.03925   0.07461   0.73671   0.00000  Uiso   1.00
H397   H     0.05206   0.18976   0.44139   0.00000  Uiso   1.00
H398   H     0.31106   0.27460   0.96482   0.00000  Uiso   1.00
H399   H     0.21706   0.04324   0.13962   0.00000  Uiso   1.00
H400   H     0.17453   0.98939   0.99489   0.00000  Uiso   1.00
H401   H     0.18059   0.04400   0.32909   0.00000  Uiso   1.00
H402   H     0.30342   0.08423   0.10309   0.00000  Uiso   1.00
H403   H     0.11576   0.94876   0.82161   0.00000  Uiso   1.00
H404   H     0.12857   0.06391   0.52629   0.00000  Uiso   1.00
H405   H     0.38756   0.14875   0.04972   0.00000  Uiso   1.00
O406   O     0.04790   0.97891   0.68219   0.00000  Uiso   1.00
O407   O     0.06471   0.12999   0.60671   0.00000  Uiso   1.00
O408   O     0.40451   0.24129   0.98145   0.00000  Uiso   1.00
N409   N     0.06310   0.05239   0.77654   0.00000  Uiso   1.00
N410   N     0.07507   0.16004   0.43537   0.00000  Uiso   1.00
N411   N     0.31721   0.23936   0.98984   0.00000  Uiso   1.00
N412   N     0.10427   0.98467   0.82222   0.00000  Uiso   1.00
N413   N     0.11624   0.09232   0.48105   0.00000  Uiso   1.00
N414   N     0.35838   0.17164   0.03552   0.00000  Uiso   1.00
C415   C     0.64818   0.65655   0.56317   0.00000  Uiso   1.00
C416   C     0.63480   0.61130   0.49533   0.00000  Uiso   1.00
C417   C     0.60061   0.61097   0.41285   0.00000  Uiso   1.00
C418   C     0.59364   0.56579   0.36052   0.00000  Uiso   1.00
C419   C     0.56884   0.50210   0.25077   0.00000  Uiso   1.00
C420   C     0.63809   0.64096   0.67690   0.00000  Uiso   1.00
C421   C     0.60668   0.66558   0.74710   0.00000  Uiso   1.00
C422   C     0.60248   0.64538   0.84762   0.00000  Uiso   1.00
C423   C     0.58282   0.62776   0.01980   0.00000  Uiso   1.00
C424   C     0.70482   0.66282   0.55410   0.00000  Uiso   1.00
C425   C     0.72952   0.70582   0.52106   0.00000  Uiso   1.00
C426   C     0.78151   0.70403   0.51822   0.00000  Uiso   1.00
C427   C     0.86546   0.72034   0.49972   0.00000  Uiso   1.00
C428   C     0.69659   0.57691   0.61690   0.00000  Uiso   1.00
C429   C     0.66109   0.56804   0.52451   0.00000  Uiso   1.00
C430   C     0.65417   0.52286   0.47229   0.00000  Uiso   1.00
C431   C     0.61998   0.52246   0.38975   0.00000  Uiso   1.00
C432   C     0.66438   0.59771   0.70609   0.00000  Uiso   1.00
C433   C     0.66024   0.57747   0.80654   0.00000  Uiso   1.00
C434   C     0.62882   0.60205   0.87686   0.00000  Uiso   1.00
C435   C     0.73112   0.61956   0.58328   0.00000  Uiso   1.00
C436   C     0.78308   0.61771   0.58050   0.00000  Uiso   1.00
C437   C     0.80785   0.66069   0.54746   0.00000  Uiso   1.00
H438   H     0.62771   0.69023   0.54046   0.00000  Uiso   1.00
H439   H     0.58027   0.64445   0.39029   0.00000  Uiso   1.00
H440   H     0.58634   0.69905   0.72449   0.00000  Uiso   1.00
H441   H     0.70916   0.73928   0.49849   0.00000  Uiso   1.00
H442   H     0.53925   0.57461   0.23671   0.00000  Uiso   1.00
H443   H     0.55206   0.68976   0.94139   0.00000  Uiso   1.00
H444   H     0.81106   0.77460   0.46482   0.00000  Uiso   1.00
H445   H     0.71706   0.54324   0.63962   0.00000  Uiso   1.00
H446   H     0.67453   0.48939   0.49489   0.00000  Uiso   1.00
H447   H     0.68059   0.54400   0.82909   0.00000  Uiso   1.00
H448   H     0.80342   0.58423   0.60309   0.00000  Uiso   1.00
H449   H     0.61576   0.44876   0.32161   0.00000  Uiso   1.00
H450   H     0.62857   0.56391   0.02629   0.00000  Uiso   1.00
H451   H     0.88756   0.64875   0.54972   0.00000  Uiso   1.00
O452   O     0.54790   0.47891   0.18219   0.00000  Uiso   1.00
O453   O     0.56471   0.62999   0.10671   0.00000  Uiso   1.00
O454   O     0.90451   0.74129   0.48145   0.00000  Uiso   1.00
N455   N     0.56310   0.55239   0.27654   0.00000  Uiso   1.00
N456   N     0.57507   0.66004   0.93537   0.00000  Uiso   1.00
N457   N     0.81721   0.73936   0.48984   0.00000  Uiso   1.00
N458   N     0.60427   0.48467   0.32222   0.00000  Uiso   1.00
N459   N     0.61624   0.59232   0.98105   0.00000  Uiso   1.00
N460   N     0.85838   0.67164   0.53552   0.00000  Uiso   1.00
C461   C     0.85182   0.84345   0.06317   0.00000  Uiso   1.00
C462   C     0.86520   0.88870   0.99533   0.00000  Uiso   1.00
C463   C     0.89939   0.88903   0.91285   0.00000  Uiso   1.00
C464   C     0.90636   0.93421   0.86052   0.00000  Uiso   1.00
C465   C     0.93116   0.99790   0.75077   0.00000  Uiso   1.00
C466   C     0.86191   0.85904   0.17690   0.00000  Uiso   1.00
C467   C     0.89332   0.83442   0.24710   0.00000  Uiso   1.00
C468   C     0.89752   0.85462   0.34762   0.00000  Uiso   1.00
C469   C     0.91718   0.87224   0.51980   0.00000  Uiso   1.00
C470   C     0.79518   0.83718   0.05410   0.00000  Uiso   1.00
C471   C     0.77048   0.79418   0.02106   0.00000  Uiso   1.00
C472   C     0.71849   0.79597   0.01822   0.00000  Uiso   1.00
C473   C     0.63454   0.77966   0.99972   0.00000  Uiso   1.00
C474   C     0.80341   0.92309   0.11690   0.00000  Uiso   1.00
C475   C     0.83891   0.93196   0.02451   0.00000  Uiso   1.00
C476   C     0.84583   0.97714   0.97229   0.00000  Uiso   1.00
C477   C     0.88002   0.97754   0.88975   0.00000  Uiso   1.00
C478   C     0.83562   0.90229   0.20609   0.00000  Uiso   1.00
C479   C     0.83976   0.92253   0.30654   0.00000  Uiso   1.00
C480   C     0.87118   0.89795   0.37686   0.00000  Uiso   1.00
C481   C     0.76888   0.88044   0.08328   0.00000  Uiso   1.00
C482   C     0.71692   0.88229   0.08050   0.00000  Uiso   1.00
C483   C     0.69215   0.83931   0.04746   0.00000  Uiso   1.00
H484   H     0.87229   0.80977   0.04046   0.00000  Uiso   1.00
H485   H     0.91973   0.85555   0.89029   0.00000  Uiso   1.00
H486   H     0.91366   0.80095   0.22449   0.00000  Uiso   1.00
H487   H     0.79084   0.76072   0.99849   0.00000  Uiso   1.00
H488   H     0.96075   0.92539   0.73671   0.00000  Uiso   1.00
H489   H     0.94794   0.81024   0.44139   0.00000  Uiso   1.00
H490   H     0.68894   0.72540   0.96482   0.00000  Uiso   1.00
H491   H     0.78294   0.95676   0.13962   0.00000  Uiso   1.00
H492   H     0.82547   0.01061   0.99489   0.00000  Uiso   1.00
H493   H     0.81941   0.95600   0.32909   0.00000  Uiso   1.00
H494   H     0.69658   0.91577   0.10309   0.00000  Uiso   1.00
H495   H     0.88424   0.05124   0.82161   0.00000  Uiso   1.00
H496   H     0.87143   0.93609   0.52629   0.00000  Uiso   1.00
H497   H     0.61244   0.85125   0.04972   0.00000  Uiso   1.00
O498   O     0.95210   0.02109   0.68219   0.00000  Uiso   1.00
O499   O     0.93529   0.87001   0.60671   0.00000  Uiso   1.00
O500   O     0.59549   0.75871   0.98145   0.00000  Uiso   1.00
N501   N     0.93690   0.94761   0.77654   0.00000  Uiso   1.00
N502   N     0.92493   0.83996   0.43537   0.00000  Uiso   1.00
N503   N     0.68279   0.76064   0.98984   0.00000  Uiso   1.00
N504   N     0.89573   0.01533   0.82222   0.00000  Uiso   1.00
N505   N     0.88376   0.90768   0.48105   0.00000  Uiso   1.00
N506   N     0.64162   0.82836   0.03552   0.00000  Uiso   1.00
C507   C     0.35182   0.34345   0.56317   0.00000  Uiso   1.00
C508   C     0.36520   0.38870   0.49533   0.00000  Uiso   1.00
C509   C     0.39939   0.38903   0.41285   0.00000  Uiso   1.00
C510   C     0.40636   0.43421   0.36052   0.00000  Uiso   1.00
C511   C     0.43116   0.49790   0.25077   0.00000  Uiso   1.00
C512   C     0.36191   0.35904   0.67690   0.00000  Uiso   1.00
C513   C     0.39332   0.33442   0.74710   0.00000  Uiso   1.00
C514   C     0.39752   0.35462   0.84762   0.00000  Uiso   1.00
C515   C     0.41718   0.37224   0.01980   0.00000  Uiso   1.00
C516   C     0.29518   0.33718   0.55410   0.00000  Uiso   1.00
C517   C     0.27048   0.29418   0.52106   0.00000  Uiso   1.00
C518   C     0.21849   0.29597   0.51822   0.00000  Uiso   1.00
C519   C     0.13454   0.27966   0.49972   0.00000  Uiso   1.00
C520   C     0.30341   0.42309   0.61690   0.00000  Uiso   1.00
C521   C     0.33891   0.43196   0.52451   0.00000  Uiso   1.00
C522   C     0.34583   0.47714   0.47229   0.00000  Uiso   1.00
C523   C     0.38002   0.47754   0.38975   0.00000  Uiso   1.00
C524   C     0.33562   0.40229   0.70609   0.00000  Uiso   1.00
C525   C     0.33976   0.42253   0.80654   0.00000  Uiso   1.00
C526   C     0.37118   0.39795   0.87686   0.00000  Uiso   1.00
C527   C     0.26888   0.38044   0.58328   0.00000  Uiso   1.00
C528   C     0.21692   0.38229   0.58050   0.00000  Uiso   1.00
C529   C     0.19215   0.33931   0.54746   0.00000  Uiso   1.00
H530   H     0.37229   0.30977   0.54046   0.00000  Uiso   1.00
H531   H     0.41973   0.35555   0.39029   0.00000  Uiso   1.00
H532   H     0.41366   0.30095   0.72449   0.00000  Uiso   1.00
H533   H     0.29084   0.26072   0.49849   0.00000  Uiso   1.00
H534   H     0.46075   0.42539   0.23671   0.00000  Uiso   1.00
H535   H     0.44794   0.31024   0.94139   0.00000  Uiso   1.00
H536   H     0.18894   0.22540   0.46482   0.00000  Uiso   1.00
H537   H     0.28294   0.45676   0.63962   0.00000  Uiso   1.00
H538   H     0.32547   0.51061   0.49489   0.00000  Uiso   1.00
H539   H     0.31941   0.45600   0.82909   0.00000  Uiso   1.00
H540   H     0.19658   0.41577   0.60309   0.00000  Uiso   1.00
H541   H     0.38424   0.55124   0.32161   0.00000  Uiso   1.00
H542   H     0.37143   0.43609   0.02629   0.00000  Uiso   1.00
H543   H     0.11244   0.35125   0.54972   0.00000  Uiso   1.00
O544   O     0.45210   0.52109   0.18219   0.00000  Uiso   1.00
O545   O     0.43529   0.37001   0.10671   0.00000  Uiso   1.00
O546   O     0.09549   0.25871   0.48145   0.00000  Uiso   1.00
N547   N     0.43690   0.44761   0.27654   0.00000  Uiso   1.00
N548   N     0.42493   0.33996   0.93537   0.00000  Uiso   1.00
N549   N     0.18279   0.26064   0.48984   0.00000  Uiso   1.00
N550   N     0.39573   0.51533   0.32222   0.00000  Uiso   1.00
N551   N     0.38376   0.40768   0.98105   0.00000  Uiso   1.00
N552   N     0.14162   0.32836   0.53552   0.00000  Uiso   1.00
C553   C     0.34345   0.64818   0.43683   0.00000  Uiso   1.00
C554   C     0.38870   0.63480   0.50467   0.00000  Uiso   1.00
C555   C     0.38903   0.60061   0.58715   0.00000  Uiso   1.00
C556   C     0.43421   0.59364   0.63948   0.00000  Uiso   1.00
C557   C     0.49790   0.56884   0.74923   0.00000  Uiso   1.00
C558   C     0.35904   0.63809   0.32310   0.00000  Uiso   1.00
C559   C     0.33442   0.60668   0.25290   0.00000  Uiso   1.00
C560   C     0.35462   0.60248   0.15238   0.00000  Uiso   1.00
C561   C     0.37224   0.58282   0.98020   0.00000  Uiso   1.00
C562   C     0.33718   0.70482   0.44590   0.00000  Uiso   1.00
C563   C     0.29418   0.72952   0.47894   0.00000  Uiso   1.00
C564   C     0.29597   0.78151   0.48178   0.00000  Uiso   1.00
C565   C     0.27966   0.86546   0.50028   0.00000  Uiso   1.00
C566   C     0.42309   0.69659   0.38310   0.00000  Uiso   1.00
C567   C     0.43196   0.66109   0.47549   0.00000  Uiso   1.00
C568   C     0.47714   0.65417   0.52771   0.00000  Uiso   1.00
C569   C     0.47754   0.61998   0.61025   0.00000  Uiso   1.00
C570   C     0.40229   0.66438   0.29391   0.00000  Uiso   1.00
C571   C     0.42253   0.66024   0.19346   0.00000  Uiso   1.00
C572   C     0.39795   0.62882   0.12314   0.00000  Uiso   1.00
C573   C     0.38044   0.73112   0.41672   0.00000  Uiso   1.00
C574   C     0.38229   0.78308   0.41950   0.00000  Uiso   1.00
C575   C     0.33931   0.80785   0.45254   0.00000  Uiso   1.00
H576   H     0.30977   0.62771   0.45954   0.00000  Uiso   1.00
H577   H     0.35555   0.58027   0.60971   0.00000  Uiso   1.00
H578   H     0.30095   0.58634   0.27551   0.00000  Uiso   1.00
H579   H     0.26072   0.70916   0.50151   0.00000  Uiso   1.00
H580   H     0.42539   0.53925   0.76329   0.00000  Uiso   1.00
H581   H     0.31024   0.55206   0.05861   0.00000  Uiso   1.00
H582   H     0.22540   0.81106   0.53518   0.00000  Uiso   1.00
H583   H     0.45676   0.71706   0.36038   0.00000  Uiso   1.00
H584   H     0.51061   0.67453   0.50511   0.00000  Uiso   1.00
H585   H     0.45600   0.68059   0.17091   0.00000  Uiso   1.00
H586   H     0.41577   0.80342   0.39691   0.00000  Uiso   1.00
H587   H     0.55124   0.61576   0.67839   0.00000  Uiso   1.00
H588   H     0.43609   0.62857   0.97371   0.00000  Uiso   1.00
H589   H     0.35125   0.88756   0.45028   0.00000  Uiso   1.00
O590   O     0.52109   0.54790   0.81781   0.00000  Uiso   1.00
O591   O     0.37001   0.56471   0.89329   0.00000  Uiso   1.00
O592   O     0.25871   0.90451   0.51855   0.00000  Uiso   1.00
N593   N     0.44761   0.56310   0.72346   0.00000  Uiso   1.00
N594   N     0.33996   0.57507   0.06463   0.00000  Uiso   1.00
N595   N     0.26064   0.81721   0.51016   0.00000  Uiso   1.00
N596   N     0.51533   0.60427   0.67778   0.00000  Uiso   1.00
N597   N     0.40768   0.61624   0.01895   0.00000  Uiso   1.00
N598   N     0.32836   0.85838   0.46448   0.00000  Uiso   1.00
C599   C     0.84345   0.14818   0.93683   0.00000  Uiso   1.00
C600   C     0.88870   0.13480   0.00467   0.00000  Uiso   1.00
C601   C     0.88903   0.10061   0.08715   0.00000  Uiso   1.00
C602   C     0.93421   0.09364   0.13948   0.00000  Uiso   1.00
C603   C     0.99790   0.06884   0.24923   0.00000  Uiso   1.00
C604   C     0.85904   0.13809   0.82310   0.00000  Uiso   1.00
C605   C     0.83442   0.10668   0.75290   0.00000  Uiso   1.00
C606   C     0.85462   0.10248   0.65238   0.00000  Uiso   1.00
C607   C     0.87224   0.08282   0.48020   0.00000  Uiso   1.00
C608   C     0.83718   0.20482   0.94590   0.00000  Uiso   1.00
C609   C     0.79418   0.22952   0.97894   0.00000  Uiso   1.00
C610   C     0.79597   0.28151   0.98178   0.00000  Uiso   1.00
C611   C     0.77966   0.36546   0.00028   0.00000  Uiso   1.00
C612   C     0.92309   0.19659   0.88310   0.00000  Uiso   1.00
C613   C     0.93196   0.16109   0.97549   0.00000  Uiso   1.00
C614   C     0.97714   0.15417   0.02771   0.00000  Uiso   1.00
C615   C     0.97754   0.11998   0.11025   0.00000  Uiso   1.00
C616   C     0.90229   0.16438   0.79391   0.00000  Uiso   1.00
C617   C     0.92253   0.16024   0.69346   0.00000  Uiso   1.00
C618   C     0.89795   0.12882   0.62314   0.00000  Uiso   1.00
C619   C     0.88044   0.23112   0.91672   0.00000  Uiso   1.00
C620   C     0.88229   0.28308   0.91950   0.00000  Uiso   1.00
C621   C     0.83931   0.30785   0.95254   0.00000  Uiso   1.00
H622   H     0.80977   0.12771   0.95954   0.00000  Uiso   1.00
H623   H     0.85555   0.08027   0.10971   0.00000  Uiso   1.00
H624   H     0.80095   0.08634   0.77551   0.00000  Uiso   1.00
H625   H     0.76072   0.20916   0.00151   0.00000  Uiso   1.00
H626   H     0.92539   0.03925   0.26329   0.00000  Uiso   1.00
H627   H     0.81024   0.05206   0.55861   0.00000  Uiso   1.00
H628   H     0.72540   0.31106   0.03518   0.00000  Uiso   1.00
H629   H     0.95676   0.21706   0.86038   0.00000  Uiso   1.00
H630   H     0.01061   0.17453   0.00511   0.00000  Uiso   1.00
H631   H     0.95600   0.18059   0.67091   0.00000  Uiso   1.00
H632   H     0.91577   0.30342   0.89691   0.00000  Uiso   1.00
H633   H     0.05124   0.11576   0.17839   0.00000  Uiso   1.00
H634   H     0.93609   0.12857   0.47371   0.00000  Uiso   1.00
H635   H     0.85125   0.38756   0.95028   0.00000  Uiso   1.00
O636   O     0.02109   0.04790   0.31781   0.00000  Uiso   1.00
O637   O     0.87001   0.06471   0.39329   0.00000  Uiso   1.00
O638   O     0.75871   0.40451   0.01855   0.00000  Uiso   1.00
N639   N     0.94761   0.06310   0.22346   0.00000  Uiso   1.00
N640   N     0.83996   0.07507   0.56463   0.00000  Uiso   1.00
N641   N     0.76064   0.31721   0.01016   0.00000  Uiso   1.00
N642   N     0.01533   0.10427   0.17778   0.00000  Uiso   1.00
N643   N     0.90768   0.11624   0.51895   0.00000  Uiso   1.00
N644   N     0.82836   0.35838   0.96448   0.00000  Uiso   1.00
C645   C     0.65655   0.35182   0.43683   0.00000  Uiso   1.00
C646   C     0.61130   0.36520   0.50467   0.00000  Uiso   1.00
C647   C     0.61097   0.39939   0.58715   0.00000  Uiso   1.00
C648   C     0.56579   0.40636   0.63948   0.00000  Uiso   1.00
C649   C     0.50210   0.43116   0.74923   0.00000  Uiso   1.00
C650   C     0.64096   0.36191   0.32310   0.00000  Uiso   1.00
C651   C     0.66558   0.39332   0.25290   0.00000  Uiso   1.00
C652   C     0.64538   0.39752   0.15238   0.00000  Uiso   1.00
C653   C     0.62776   0.41718   0.98020   0.00000  Uiso   1.00
C654   C     0.66282   0.29518   0.44590   0.00000  Uiso   1.00
C655   C     0.70582   0.27048   0.47894   0.00000  Uiso   1.00
C656   C     0.70403   0.21849   0.48178   0.00000  Uiso   1.00
C657   C     0.72034   0.13454   0.50028   0.00000  Uiso   1.00
C658   C     0.57691   0.30341   0.38310   0.00000  Uiso   1.00
C659   C     0.56804   0.33891   0.47549   0.00000  Uiso   1.00
C660   C     0.52286   0.34583   0.52771   0.00000  Uiso   1.00
C661   C     0.52246   0.38002   0.61025   0.00000  Uiso   1.00
C662   C     0.59771   0.33562   0.29391   0.00000  Uiso   1.00
C663   C     0.57747   0.33976   0.19346   0.00000  Uiso   1.00
C664   C     0.60205   0.37118   0.12314   0.00000  Uiso   1.00
C665   C     0.61956   0.26888   0.41672   0.00000  Uiso   1.00
C666   C     0.61771   0.21692   0.41950   0.00000  Uiso   1.00
C667   C     0.66069   0.19215   0.45254   0.00000  Uiso   1.00
H668   H     0.69023   0.37229   0.45954   0.00000  Uiso   1.00
H669   H     0.64445   0.41973   0.60971   0.00000  Uiso   1.00
H670   H     0.69905   0.41366   0.27551   0.00000  Uiso   1.00
H671   H     0.73928   0.29084   0.50151   0.00000  Uiso   1.00
H672   H     0.57461   0.46075   0.76329   0.00000  Uiso   1.00
H673   H     0.68976   0.44794   0.05861   0.00000  Uiso   1.00
H674   H     0.77460   0.18894   0.53518   0.00000  Uiso   1.00
H675   H     0.54324   0.28294   0.36038   0.00000  Uiso   1.00
H676   H     0.48939   0.32547   0.50511   0.00000  Uiso   1.00
H677   H     0.54400   0.31941   0.17091   0.00000  Uiso   1.00
H678   H     0.58423   0.19658   0.39691   0.00000  Uiso   1.00
H679   H     0.44876   0.38424   0.67839   0.00000  Uiso   1.00
H680   H     0.56391   0.37143   0.97371   0.00000  Uiso   1.00
H681   H     0.64875   0.11244   0.45028   0.00000  Uiso   1.00
O682   O     0.47891   0.45210   0.81781   0.00000  Uiso   1.00
O683   O     0.62999   0.43529   0.89329   0.00000  Uiso   1.00
O684   O     0.74129   0.09549   0.51855   0.00000  Uiso   1.00
N685   N     0.55239   0.43690   0.72346   0.00000  Uiso   1.00
N686   N     0.66004   0.42493   0.06463   0.00000  Uiso   1.00
N687   N     0.73936   0.18279   0.51016   0.00000  Uiso   1.00
N688   N     0.48467   0.39573   0.67778   0.00000  Uiso   1.00
N689   N     0.59232   0.38376   0.01895   0.00000  Uiso   1.00
N690   N     0.67164   0.14162   0.46448   0.00000  Uiso   1.00
C691   C     0.15655   0.85182   0.93683   0.00000  Uiso   1.00
C692   C     0.11130   0.86520   0.00467   0.00000  Uiso   1.00
C693   C     0.11097   0.89939   0.08715   0.00000  Uiso   1.00
C694   C     0.06579   0.90636   0.13948   0.00000  Uiso   1.00
C695   C     0.00210   0.93116   0.24923   0.00000  Uiso   1.00
C696   C     0.14096   0.86191   0.82310   0.00000  Uiso   1.00
C697   C     0.16558   0.89332   0.75290   0.00000  Uiso   1.00
C698   C     0.14538   0.89752   0.65238   0.00000  Uiso   1.00
C699   C     0.12776   0.91718   0.48020   0.00000  Uiso   1.00
C700   C     0.16282   0.79518   0.94590   0.00000  Uiso   1.00
C701   C     0.20582   0.77048   0.97894   0.00000  Uiso   1.00
C702   C     0.20403   0.71849   0.98178   0.00000  Uiso   1.00
C703   C     0.22034   0.63454   0.00028   0.00000  Uiso   1.00
C704   C     0.07691   0.80341   0.88310   0.00000  Uiso   1.00
C705   C     0.06804   0.83891   0.97549   0.00000  Uiso   1.00
C706   C     0.02286   0.84583   0.02771   0.00000  Uiso   1.00
C707   C     0.02246   0.88002   0.11025   0.00000  Uiso   1.00
C708   C     0.09771   0.83562   0.79391   0.00000  Uiso   1.00
C709   C     0.07747   0.83976   0.69346   0.00000  Uiso   1.00
C710   C     0.10205   0.87118   0.62314   0.00000  Uiso   1.00
C711   C     0.11956   0.76888   0.91672   0.00000  Uiso   1.00
C712   C     0.11771   0.71692   0.91950   0.00000  Uiso   1.00
C713   C     0.16069   0.69215   0.95254   0.00000  Uiso   1.00
H714   H     0.19023   0.87229   0.95954   0.00000  Uiso   1.00
H715   H     0.14445   0.91973   0.10971   0.00000  Uiso   1.00
H716   H     0.19905   0.91366   0.77551   0.00000  Uiso   1.00
H717   H     0.23928   0.79084   0.00151   0.00000  Uiso   1.00
H718   H     0.07461   0.96075   0.26329   0.00000  Uiso   1.00
H719   H     0.18976   0.94794   0.55861   0.00000  Uiso   1.00
H720   H     0.27460   0.68894   0.03518   0.00000  Uiso   1.00
H721   H     0.04324   0.78294   0.86038   0.00000  Uiso   1.00
H722   H     0.98939   0.82547   0.00511   0.00000  Uiso   1.00
H723   H     0.04400   0.81941   0.67091   0.00000  Uiso   1.00
H724   H     0.08423   0.69658   0.89691   0.00000  Uiso   1.00
H725   H     0.94876   0.88424   0.17839   0.00000  Uiso   1.00
H726   H     0.06391   0.87143   0.47371   0.00000  Uiso   1.00
H727   H     0.14875   0.61244   0.95028   0.00000  Uiso   1.00
O728   O     0.97891   0.95210   0.31781   0.00000  Uiso   1.00
O729   O     0.12999   0.93529   0.39329   0.00000  Uiso   1.00
O730   O     0.24129   0.59549   0.01855   0.00000  Uiso   1.00
N731   N     0.05239   0.93690   0.22346   0.00000  Uiso   1.00
N732   N     0.16004   0.92493   0.56463   0.00000  Uiso   1.00
N733   N     0.23936   0.68279   0.01016   0.00000  Uiso   1.00
N734   N     0.98467   0.89573   0.17778   0.00000  Uiso   1.00
N735   N     0.09232   0.88376   0.51895   0.00000  Uiso   1.00
N736   N     0.17164   0.64162   0.96448   0.00000  Uiso   1.00
