data_job_00860
_audit_creation_date              2018-12-19
_audit_creation_method            'Materials Studio'
_symmetry_space_group_name_H-M    'P1'
_symmetry_Int_Tables_number       1
_symmetry_cell_setting            triclinic
loop_
_symmetry_equiv_pos_as_xyz
  x,y,z
_cell_length_a                    22.0449
_cell_length_b                    22.0449
_cell_length_c                    19.3598
_cell_angle_alpha                 90.0000
_cell_angle_beta                  90.0000
_cell_angle_gamma                 90.0000
loop_
_atom_site_label
_atom_site_type_symbol
_atom_site_fract_x
_atom_site_fract_y
_atom_site_fract_z
_atom_site_U_iso_or_equiv
_atom_site_adp_type
_atom_site_occupancy
C1     C     0.46879   0.70709   0.42616   0.00000  Uiso   1.00
C2     C     0.40376   0.73021   0.42085   0.00000  Uiso   1.00
C3     C     0.35580   0.69985   0.38984   0.00000  Uiso   1.00
C4     C     0.29980   0.72866   0.39035   0.00000  Uiso   1.00
C5     C     0.20001   0.75589   0.37745   0.00000  Uiso   1.00
C6     C     0.50849   0.75575   0.39312   0.00000  Uiso   1.00
C7     C     0.54859   0.74685   0.33880   0.00000  Uiso   1.00
C8     C     0.58076   0.79716   0.31597   0.00000  Uiso   1.00
C9     C     0.64359   0.86402   0.26006   0.00000  Uiso   1.00
C10    C     0.48439   0.70737   0.50289   0.00000  Uiso   1.00
C11    C     0.50426   0.65781   0.54086   0.00000  Uiso   1.00
C12    C     0.51615   0.66738   0.61044   0.00000  Uiso   1.00
C13    C     0.54158   0.65913   0.72495   0.00000  Uiso   1.00
C14    C     0.45460   0.81224   0.48220   0.00000  Uiso   1.00
C15    C     0.39605   0.78732   0.45129   0.00000  Uiso   1.00
C16    C     0.34011   0.81618   0.45185   0.00000  Uiso   1.00
C17    C     0.29208   0.78587   0.42084   0.00000  Uiso   1.00
C18    C     0.50078   0.81286   0.42356   0.00000  Uiso   1.00
C19    C     0.53290   0.86318   0.40081   0.00000  Uiso   1.00
C20    C     0.57304   0.85437   0.34646   0.00000  Uiso   1.00
C21    C     0.47669   0.76448   0.53333   0.00000  Uiso   1.00
C22    C     0.48856   0.77414   0.60286   0.00000  Uiso   1.00
C23    C     0.50844   0.72460   0.64093   0.00000  Uiso   1.00
H24    H     0.47479   0.66263   0.40245   0.00000  Uiso   1.00
H25    H     0.36179   0.65566   0.36628   0.00000  Uiso   1.00
H26    H     0.55455   0.70265   0.31526   0.00000  Uiso   1.00
H27    H     0.51022   0.61362   0.51728   0.00000  Uiso   1.00
H28    H     0.23311   0.67313   0.33959   0.00000  Uiso   1.00
H29    H     0.63958   0.77221   0.23201   0.00000  Uiso   1.00
H30    H     0.54610   0.58447   0.65802   0.00000  Uiso   1.00
H31    H     0.44860   0.85670   0.50590   0.00000  Uiso   1.00
H32    H     0.33416   0.86038   0.47541   0.00000  Uiso   1.00
H33    H     0.52692   0.90737   0.42438   0.00000  Uiso   1.00
H34    H     0.48259   0.81834   0.62640   0.00000  Uiso   1.00
H35    H     0.21069   0.83928   0.42815   0.00000  Uiso   1.00
H36    H     0.61716   0.93836   0.32058   0.00000  Uiso   1.00
H37    H     0.52367   0.75062   0.74659   0.00000  Uiso   1.00
O38    O     0.14709   0.75513   0.36192   0.00000  Uiso   1.00
O39    O     0.68037   0.88512   0.22080   0.00000  Uiso   1.00
O40    O     0.55772   0.63881   0.77971   0.00000  Uiso   1.00
N41    N     0.24354   0.71172   0.36463   0.00000  Uiso   1.00
N42    N     0.62355   0.80436   0.26404   0.00000  Uiso   1.00
N43    N     0.53617   0.62884   0.66232   0.00000  Uiso   1.00
N44    N     0.23147   0.80113   0.41228   0.00000  Uiso   1.00
N45    N     0.61149   0.89377   0.31170   0.00000  Uiso   1.00
N46    N     0.52411   0.71825   0.70998   0.00000  Uiso   1.00
C47    C     0.53121   0.29291   0.42616   0.00000  Uiso   1.00
C48    C     0.59624   0.26979   0.42085   0.00000  Uiso   1.00
C49    C     0.64420   0.30015   0.38984   0.00000  Uiso   1.00
C50    C     0.70020   0.27134   0.39035   0.00000  Uiso   1.00
C51    C     0.79999   0.24411   0.37745   0.00000  Uiso   1.00
C52    C     0.49151   0.24425   0.39312   0.00000  Uiso   1.00
C53    C     0.45141   0.25315   0.33880   0.00000  Uiso   1.00
C54    C     0.41924   0.20284   0.31597   0.00000  Uiso   1.00
C55    C     0.35641   0.13598   0.26006   0.00000  Uiso   1.00
C56    C     0.51561   0.29263   0.50289   0.00000  Uiso   1.00
C57    C     0.49574   0.34219   0.54086   0.00000  Uiso   1.00
C58    C     0.48385   0.33262   0.61044   0.00000  Uiso   1.00
C59    C     0.45842   0.34087   0.72495   0.00000  Uiso   1.00
C60    C     0.54540   0.18776   0.48220   0.00000  Uiso   1.00
C61    C     0.60395   0.21268   0.45129   0.00000  Uiso   1.00
C62    C     0.65989   0.18382   0.45185   0.00000  Uiso   1.00
C63    C     0.70792   0.21413   0.42084   0.00000  Uiso   1.00
C64    C     0.49922   0.18714   0.42356   0.00000  Uiso   1.00
C65    C     0.46710   0.13682   0.40081   0.00000  Uiso   1.00
C66    C     0.42696   0.14563   0.34646   0.00000  Uiso   1.00
C67    C     0.52331   0.23552   0.53333   0.00000  Uiso   1.00
C68    C     0.51144   0.22586   0.60286   0.00000  Uiso   1.00
C69    C     0.49156   0.27540   0.64093   0.00000  Uiso   1.00
H70    H     0.52521   0.33737   0.40245   0.00000  Uiso   1.00
H71    H     0.63821   0.34434   0.36628   0.00000  Uiso   1.00
H72    H     0.44545   0.29735   0.31526   0.00000  Uiso   1.00
H73    H     0.48978   0.38638   0.51728   0.00000  Uiso   1.00
H74    H     0.76689   0.32687   0.33959   0.00000  Uiso   1.00
H75    H     0.36042   0.22779   0.23201   0.00000  Uiso   1.00
H76    H     0.45390   0.41553   0.65802   0.00000  Uiso   1.00
H77    H     0.55140   0.14330   0.50590   0.00000  Uiso   1.00
H78    H     0.66584   0.13962   0.47541   0.00000  Uiso   1.00
H79    H     0.47308   0.09263   0.42438   0.00000  Uiso   1.00
H80    H     0.51741   0.18166   0.62640   0.00000  Uiso   1.00
H81    H     0.78931   0.16072   0.42815   0.00000  Uiso   1.00
H82    H     0.38284   0.06164   0.32058   0.00000  Uiso   1.00
H83    H     0.47633   0.24938   0.74659   0.00000  Uiso   1.00
O84    O     0.85291   0.24487   0.36192   0.00000  Uiso   1.00
O85    O     0.31963   0.11488   0.22080   0.00000  Uiso   1.00
O86    O     0.44228   0.36119   0.77971   0.00000  Uiso   1.00
N87    N     0.75646   0.28828   0.36463   0.00000  Uiso   1.00
N88    N     0.37645   0.19564   0.26404   0.00000  Uiso   1.00
N89    N     0.46383   0.37116   0.66232   0.00000  Uiso   1.00
N90    N     0.76853   0.19887   0.41228   0.00000  Uiso   1.00
N91    N     0.38851   0.10623   0.31170   0.00000  Uiso   1.00
N92    N     0.47589   0.28175   0.70998   0.00000  Uiso   1.00
C93    C     0.79291   0.96879   0.42616   0.00000  Uiso   1.00
C94    C     0.76979   0.90376   0.42085   0.00000  Uiso   1.00
C95    C     0.80015   0.85580   0.38984   0.00000  Uiso   1.00
C96    C     0.77134   0.79980   0.39035   0.00000  Uiso   1.00
C97    C     0.74411   0.70001   0.37745   0.00000  Uiso   1.00
C98    C     0.74425   0.00849   0.39312   0.00000  Uiso   1.00
C99    C     0.75315   0.04859   0.33880   0.00000  Uiso   1.00
C100   C     0.70284   0.08076   0.31597   0.00000  Uiso   1.00
C101   C     0.63598   0.14359   0.26006   0.00000  Uiso   1.00
C102   C     0.79263   0.98439   0.50289   0.00000  Uiso   1.00
C103   C     0.84219   0.00426   0.54086   0.00000  Uiso   1.00
C104   C     0.83262   0.01615   0.61044   0.00000  Uiso   1.00
C105   C     0.84087   0.04158   0.72495   0.00000  Uiso   1.00
C106   C     0.68776   0.95460   0.48220   0.00000  Uiso   1.00
C107   C     0.71268   0.89605   0.45129   0.00000  Uiso   1.00
C108   C     0.68382   0.84011   0.45185   0.00000  Uiso   1.00
C109   C     0.71413   0.79208   0.42084   0.00000  Uiso   1.00
C110   C     0.68714   0.00078   0.42356   0.00000  Uiso   1.00
C111   C     0.63682   0.03290   0.40081   0.00000  Uiso   1.00
C112   C     0.64563   0.07304   0.34646   0.00000  Uiso   1.00
C113   C     0.73552   0.97669   0.53333   0.00000  Uiso   1.00
C114   C     0.72586   0.98856   0.60286   0.00000  Uiso   1.00
C115   C     0.77540   0.00844   0.64093   0.00000  Uiso   1.00
H116   H     0.83737   0.97479   0.40245   0.00000  Uiso   1.00
H117   H     0.84434   0.86179   0.36628   0.00000  Uiso   1.00
H118   H     0.79735   0.05455   0.31526   0.00000  Uiso   1.00
H119   H     0.88638   0.01022   0.51728   0.00000  Uiso   1.00
H120   H     0.82687   0.73311   0.33959   0.00000  Uiso   1.00
H121   H     0.72779   0.13958   0.23201   0.00000  Uiso   1.00
H122   H     0.91553   0.04610   0.65802   0.00000  Uiso   1.00
H123   H     0.64330   0.94860   0.50590   0.00000  Uiso   1.00
H124   H     0.63962   0.83416   0.47541   0.00000  Uiso   1.00
H125   H     0.59263   0.02692   0.42438   0.00000  Uiso   1.00
H126   H     0.68166   0.98259   0.62640   0.00000  Uiso   1.00
H127   H     0.66072   0.71069   0.42815   0.00000  Uiso   1.00
H128   H     0.56164   0.11716   0.32058   0.00000  Uiso   1.00
H129   H     0.74938   0.02367   0.74659   0.00000  Uiso   1.00
O130   O     0.74487   0.64709   0.36192   0.00000  Uiso   1.00
O131   O     0.61488   0.18037   0.22080   0.00000  Uiso   1.00
O132   O     0.86119   0.05772   0.77971   0.00000  Uiso   1.00
N133   N     0.78828   0.74354   0.36463   0.00000  Uiso   1.00
N134   N     0.69564   0.12355   0.26404   0.00000  Uiso   1.00
N135   N     0.87116   0.03617   0.66232   0.00000  Uiso   1.00
N136   N     0.69887   0.73147   0.41228   0.00000  Uiso   1.00
N137   N     0.60623   0.11149   0.31170   0.00000  Uiso   1.00
N138   N     0.78175   0.02411   0.70998   0.00000  Uiso   1.00
C139   C     0.20709   0.03121   0.42616   0.00000  Uiso   1.00
C140   C     0.23021   0.09624   0.42085   0.00000  Uiso   1.00
C141   C     0.19985   0.14420   0.38984   0.00000  Uiso   1.00
C142   C     0.22866   0.20020   0.39035   0.00000  Uiso   1.00
C143   C     0.25589   0.29999   0.37745   0.00000  Uiso   1.00
C144   C     0.25575   0.99151   0.39312   0.00000  Uiso   1.00
C145   C     0.24685   0.95141   0.33880   0.00000  Uiso   1.00
C146   C     0.29716   0.91924   0.31597   0.00000  Uiso   1.00
C147   C     0.36402   0.85641   0.26006   0.00000  Uiso   1.00
C148   C     0.20737   0.01561   0.50289   0.00000  Uiso   1.00
C149   C     0.15781   0.99574   0.54086   0.00000  Uiso   1.00
C150   C     0.16738   0.98385   0.61044   0.00000  Uiso   1.00
C151   C     0.15913   0.95842   0.72495   0.00000  Uiso   1.00
C152   C     0.31224   0.04540   0.48220   0.00000  Uiso   1.00
C153   C     0.28732   0.10395   0.45129   0.00000  Uiso   1.00
C154   C     0.31618   0.15989   0.45185   0.00000  Uiso   1.00
C155   C     0.28587   0.20792   0.42084   0.00000  Uiso   1.00
C156   C     0.31286   0.99922   0.42356   0.00000  Uiso   1.00
C157   C     0.36318   0.96710   0.40081   0.00000  Uiso   1.00
C158   C     0.35437   0.92696   0.34646   0.00000  Uiso   1.00
C159   C     0.26448   0.02331   0.53333   0.00000  Uiso   1.00
C160   C     0.27414   0.01144   0.60286   0.00000  Uiso   1.00
C161   C     0.22460   0.99156   0.64093   0.00000  Uiso   1.00
H162   H     0.16263   0.02521   0.40245   0.00000  Uiso   1.00
H163   H     0.15566   0.13821   0.36628   0.00000  Uiso   1.00
H164   H     0.20265   0.94545   0.31526   0.00000  Uiso   1.00
H165   H     0.11362   0.98978   0.51728   0.00000  Uiso   1.00
H166   H     0.17313   0.26689   0.33959   0.00000  Uiso   1.00
H167   H     0.27221   0.86042   0.23201   0.00000  Uiso   1.00
H168   H     0.08447   0.95390   0.65802   0.00000  Uiso   1.00
H169   H     0.35670   0.05140   0.50590   0.00000  Uiso   1.00
H170   H     0.36038   0.16584   0.47541   0.00000  Uiso   1.00
H171   H     0.40737   0.97308   0.42438   0.00000  Uiso   1.00
H172   H     0.31834   0.01741   0.62640   0.00000  Uiso   1.00
H173   H     0.33928   0.28931   0.42815   0.00000  Uiso   1.00
H174   H     0.43836   0.88284   0.32058   0.00000  Uiso   1.00
H175   H     0.25062   0.97633   0.74659   0.00000  Uiso   1.00
O176   O     0.25513   0.35291   0.36192   0.00000  Uiso   1.00
O177   O     0.38512   0.81963   0.22080   0.00000  Uiso   1.00
O178   O     0.13881   0.94228   0.77971   0.00000  Uiso   1.00
N179   N     0.21172   0.25646   0.36463   0.00000  Uiso   1.00
N180   N     0.30436   0.87645   0.26404   0.00000  Uiso   1.00
N181   N     0.12884   0.96383   0.66232   0.00000  Uiso   1.00
N182   N     0.30113   0.26853   0.41228   0.00000  Uiso   1.00
N183   N     0.39377   0.88851   0.31170   0.00000  Uiso   1.00
N184   N     0.21825   0.97589   0.70998   0.00000  Uiso   1.00
C185   C     0.03121   0.20709   0.07384   0.00000  Uiso   1.00
C186   C     0.09624   0.23021   0.07915   0.00000  Uiso   1.00
C187   C     0.14420   0.19985   0.11016   0.00000  Uiso   1.00
C188   C     0.20020   0.22866   0.10965   0.00000  Uiso   1.00
C189   C     0.29999   0.25589   0.12255   0.00000  Uiso   1.00
C190   C     0.99151   0.25575   0.10688   0.00000  Uiso   1.00
C191   C     0.95141   0.24685   0.16120   0.00000  Uiso   1.00
C192   C     0.91924   0.29716   0.18403   0.00000  Uiso   1.00
C193   C     0.85641   0.36402   0.23994   0.00000  Uiso   1.00
C194   C     0.01561   0.20737   0.99711   0.00000  Uiso   1.00
C195   C     0.99574   0.15781   0.95914   0.00000  Uiso   1.00
C196   C     0.98385   0.16738   0.88956   0.00000  Uiso   1.00
C197   C     0.95842   0.15913   0.77505   0.00000  Uiso   1.00
C198   C     0.04540   0.31224   0.01780   0.00000  Uiso   1.00
C199   C     0.10395   0.28732   0.04871   0.00000  Uiso   1.00
C200   C     0.15989   0.31618   0.04815   0.00000  Uiso   1.00
C201   C     0.20792   0.28587   0.07916   0.00000  Uiso   1.00
C202   C     0.99922   0.31286   0.07644   0.00000  Uiso   1.00
C203   C     0.96710   0.36318   0.09919   0.00000  Uiso   1.00
C204   C     0.92696   0.35437   0.15354   0.00000  Uiso   1.00
C205   C     0.02331   0.26448   0.96667   0.00000  Uiso   1.00
C206   C     0.01144   0.27414   0.89714   0.00000  Uiso   1.00
C207   C     0.99156   0.22460   0.85907   0.00000  Uiso   1.00
H208   H     0.02521   0.16263   0.09755   0.00000  Uiso   1.00
H209   H     0.13821   0.15566   0.13372   0.00000  Uiso   1.00
H210   H     0.94545   0.20265   0.18474   0.00000  Uiso   1.00
H211   H     0.98978   0.11362   0.98272   0.00000  Uiso   1.00
H212   H     0.26689   0.17313   0.16041   0.00000  Uiso   1.00
H213   H     0.86042   0.27221   0.26799   0.00000  Uiso   1.00
H214   H     0.95390   0.08447   0.84198   0.00000  Uiso   1.00
H215   H     0.05140   0.35670   0.99410   0.00000  Uiso   1.00
H216   H     0.16584   0.36038   0.02459   0.00000  Uiso   1.00
H217   H     0.97308   0.40737   0.07562   0.00000  Uiso   1.00
H218   H     0.01741   0.31834   0.87360   0.00000  Uiso   1.00
H219   H     0.28931   0.33928   0.07185   0.00000  Uiso   1.00
H220   H     0.88284   0.43836   0.17942   0.00000  Uiso   1.00
H221   H     0.97633   0.25062   0.75341   0.00000  Uiso   1.00
O222   O     0.35291   0.25513   0.13808   0.00000  Uiso   1.00
O223   O     0.81963   0.38512   0.27920   0.00000  Uiso   1.00
O224   O     0.94228   0.13881   0.72029   0.00000  Uiso   1.00
N225   N     0.25646   0.21172   0.13537   0.00000  Uiso   1.00
N226   N     0.87645   0.30436   0.23596   0.00000  Uiso   1.00
N227   N     0.96383   0.12884   0.83768   0.00000  Uiso   1.00
N228   N     0.26853   0.30113   0.08772   0.00000  Uiso   1.00
N229   N     0.88851   0.39377   0.18830   0.00000  Uiso   1.00
N230   N     0.97589   0.21825   0.79002   0.00000  Uiso   1.00
C231   C     0.96879   0.79291   0.07384   0.00000  Uiso   1.00
C232   C     0.90376   0.76979   0.07915   0.00000  Uiso   1.00
C233   C     0.85580   0.80015   0.11016   0.00000  Uiso   1.00
C234   C     0.79980   0.77134   0.10965   0.00000  Uiso   1.00
C235   C     0.70001   0.74411   0.12255   0.00000  Uiso   1.00
C236   C     0.00849   0.74425   0.10688   0.00000  Uiso   1.00
C237   C     0.04859   0.75315   0.16120   0.00000  Uiso   1.00
C238   C     0.08076   0.70284   0.18403   0.00000  Uiso   1.00
C239   C     0.14359   0.63598   0.23994   0.00000  Uiso   1.00
C240   C     0.98439   0.79263   0.99711   0.00000  Uiso   1.00
C241   C     0.00426   0.84219   0.95914   0.00000  Uiso   1.00
C242   C     0.01615   0.83262   0.88956   0.00000  Uiso   1.00
C243   C     0.04158   0.84087   0.77505   0.00000  Uiso   1.00
C244   C     0.95460   0.68776   0.01780   0.00000  Uiso   1.00
C245   C     0.89605   0.71268   0.04871   0.00000  Uiso   1.00
C246   C     0.84011   0.68382   0.04815   0.00000  Uiso   1.00
C247   C     0.79208   0.71413   0.07916   0.00000  Uiso   1.00
C248   C     0.00078   0.68714   0.07644   0.00000  Uiso   1.00
C249   C     0.03290   0.63682   0.09919   0.00000  Uiso   1.00
C250   C     0.07304   0.64563   0.15354   0.00000  Uiso   1.00
C251   C     0.97669   0.73552   0.96667   0.00000  Uiso   1.00
C252   C     0.98856   0.72586   0.89714   0.00000  Uiso   1.00
C253   C     0.00844   0.77540   0.85907   0.00000  Uiso   1.00
H254   H     0.97479   0.83737   0.09755   0.00000  Uiso   1.00
H255   H     0.86179   0.84434   0.13372   0.00000  Uiso   1.00
H256   H     0.05455   0.79735   0.18474   0.00000  Uiso   1.00
H257   H     0.01022   0.88638   0.98272   0.00000  Uiso   1.00
H258   H     0.73311   0.82687   0.16041   0.00000  Uiso   1.00
H259   H     0.13958   0.72779   0.26799   0.00000  Uiso   1.00
H260   H     0.04610   0.91553   0.84198   0.00000  Uiso   1.00
H261   H     0.94860   0.64330   0.99410   0.00000  Uiso   1.00
H262   H     0.83416   0.63962   0.02459   0.00000  Uiso   1.00
H263   H     0.02692   0.59263   0.07562   0.00000  Uiso   1.00
H264   H     0.98259   0.68166   0.87360   0.00000  Uiso   1.00
H265   H     0.71069   0.66072   0.07185   0.00000  Uiso   1.00
H266   H     0.11716   0.56164   0.17942   0.00000  Uiso   1.00
H267   H     0.02367   0.74938   0.75341   0.00000  Uiso   1.00
O268   O     0.64709   0.74487   0.13808   0.00000  Uiso   1.00
O269   O     0.18037   0.61488   0.27920   0.00000  Uiso   1.00
O270   O     0.05772   0.86119   0.72029   0.00000  Uiso   1.00
N271   N     0.74354   0.78828   0.13537   0.00000  Uiso   1.00
N272   N     0.12355   0.69564   0.23596   0.00000  Uiso   1.00
N273   N     0.03617   0.87116   0.83768   0.00000  Uiso   1.00
N274   N     0.73147   0.69887   0.08772   0.00000  Uiso   1.00
N275   N     0.11149   0.60623   0.18830   0.00000  Uiso   1.00
N276   N     0.02411   0.78175   0.79002   0.00000  Uiso   1.00
C277   C     0.70709   0.46879   0.07384   0.00000  Uiso   1.00
C278   C     0.73021   0.40376   0.07915   0.00000  Uiso   1.00
C279   C     0.69985   0.35580   0.11016   0.00000  Uiso   1.00
C280   C     0.72866   0.29980   0.10965   0.00000  Uiso   1.00
C281   C     0.75589   0.20001   0.12255   0.00000  Uiso   1.00
C282   C     0.75575   0.50849   0.10688   0.00000  Uiso   1.00
C283   C     0.74685   0.54859   0.16120   0.00000  Uiso   1.00
C284   C     0.79716   0.58076   0.18403   0.00000  Uiso   1.00
C285   C     0.86402   0.64359   0.23994   0.00000  Uiso   1.00
C286   C     0.70737   0.48439   0.99711   0.00000  Uiso   1.00
C287   C     0.65781   0.50426   0.95914   0.00000  Uiso   1.00
C288   C     0.66738   0.51615   0.88956   0.00000  Uiso   1.00
C289   C     0.65913   0.54158   0.77505   0.00000  Uiso   1.00
C290   C     0.81224   0.45460   0.01780   0.00000  Uiso   1.00
C291   C     0.78732   0.39605   0.04871   0.00000  Uiso   1.00
C292   C     0.81618   0.34011   0.04815   0.00000  Uiso   1.00
C293   C     0.78587   0.29208   0.07916   0.00000  Uiso   1.00
C294   C     0.81286   0.50078   0.07644   0.00000  Uiso   1.00
C295   C     0.86318   0.53290   0.09919   0.00000  Uiso   1.00
C296   C     0.85437   0.57304   0.15354   0.00000  Uiso   1.00
C297   C     0.76448   0.47669   0.96667   0.00000  Uiso   1.00
C298   C     0.77414   0.48856   0.89714   0.00000  Uiso   1.00
C299   C     0.72460   0.50844   0.85907   0.00000  Uiso   1.00
H300   H     0.66263   0.47479   0.09755   0.00000  Uiso   1.00
H301   H     0.65566   0.36179   0.13372   0.00000  Uiso   1.00
H302   H     0.70265   0.55455   0.18474   0.00000  Uiso   1.00
H303   H     0.61362   0.51022   0.98272   0.00000  Uiso   1.00
H304   H     0.67313   0.23311   0.16041   0.00000  Uiso   1.00
H305   H     0.77221   0.63958   0.26799   0.00000  Uiso   1.00
H306   H     0.58447   0.54610   0.84198   0.00000  Uiso   1.00
H307   H     0.85670   0.44860   0.99410   0.00000  Uiso   1.00
H308   H     0.86038   0.33416   0.02459   0.00000  Uiso   1.00
H309   H     0.90737   0.52692   0.07562   0.00000  Uiso   1.00
H310   H     0.81834   0.48259   0.87360   0.00000  Uiso   1.00
H311   H     0.83928   0.21069   0.07185   0.00000  Uiso   1.00
H312   H     0.93836   0.61716   0.17942   0.00000  Uiso   1.00
H313   H     0.75062   0.52367   0.75341   0.00000  Uiso   1.00
O314   O     0.75513   0.14709   0.13808   0.00000  Uiso   1.00
O315   O     0.88512   0.68037   0.27920   0.00000  Uiso   1.00
O316   O     0.63881   0.55772   0.72029   0.00000  Uiso   1.00
N317   N     0.71172   0.24354   0.13537   0.00000  Uiso   1.00
N318   N     0.80436   0.62355   0.23596   0.00000  Uiso   1.00
N319   N     0.62884   0.53617   0.83768   0.00000  Uiso   1.00
N320   N     0.80113   0.23147   0.08772   0.00000  Uiso   1.00
N321   N     0.89377   0.61149   0.18830   0.00000  Uiso   1.00
N322   N     0.71825   0.52411   0.79002   0.00000  Uiso   1.00
C323   C     0.29291   0.53121   0.07384   0.00000  Uiso   1.00
C324   C     0.26979   0.59624   0.07915   0.00000  Uiso   1.00
C325   C     0.30015   0.64420   0.11016   0.00000  Uiso   1.00
C326   C     0.27134   0.70020   0.10965   0.00000  Uiso   1.00
C327   C     0.24411   0.79999   0.12255   0.00000  Uiso   1.00
C328   C     0.24425   0.49151   0.10688   0.00000  Uiso   1.00
C329   C     0.25315   0.45141   0.16120   0.00000  Uiso   1.00
C330   C     0.20284   0.41924   0.18403   0.00000  Uiso   1.00
C331   C     0.13598   0.35641   0.23994   0.00000  Uiso   1.00
C332   C     0.29263   0.51561   0.99711   0.00000  Uiso   1.00
C333   C     0.34219   0.49574   0.95914   0.00000  Uiso   1.00
C334   C     0.33262   0.48385   0.88956   0.00000  Uiso   1.00
C335   C     0.34087   0.45842   0.77505   0.00000  Uiso   1.00
C336   C     0.18776   0.54540   0.01780   0.00000  Uiso   1.00
C337   C     0.21268   0.60395   0.04871   0.00000  Uiso   1.00
C338   C     0.18382   0.65989   0.04815   0.00000  Uiso   1.00
C339   C     0.21413   0.70792   0.07916   0.00000  Uiso   1.00
C340   C     0.18714   0.49922   0.07644   0.00000  Uiso   1.00
C341   C     0.13682   0.46710   0.09919   0.00000  Uiso   1.00
C342   C     0.14563   0.42696   0.15354   0.00000  Uiso   1.00
C343   C     0.23552   0.52331   0.96667   0.00000  Uiso   1.00
C344   C     0.22586   0.51144   0.89714   0.00000  Uiso   1.00
C345   C     0.27540   0.49156   0.85907   0.00000  Uiso   1.00
H346   H     0.33737   0.52521   0.09755   0.00000  Uiso   1.00
H347   H     0.34434   0.63821   0.13372   0.00000  Uiso   1.00
H348   H     0.29735   0.44545   0.18474   0.00000  Uiso   1.00
H349   H     0.38638   0.48978   0.98272   0.00000  Uiso   1.00
H350   H     0.32687   0.76689   0.16041   0.00000  Uiso   1.00
H351   H     0.22779   0.36042   0.26799   0.00000  Uiso   1.00
H352   H     0.41553   0.45390   0.84198   0.00000  Uiso   1.00
H353   H     0.14330   0.55140   0.99410   0.00000  Uiso   1.00
H354   H     0.13962   0.66584   0.02459   0.00000  Uiso   1.00
H355   H     0.09263   0.47308   0.07562   0.00000  Uiso   1.00
H356   H     0.18166   0.51741   0.87360   0.00000  Uiso   1.00
H357   H     0.16072   0.78931   0.07185   0.00000  Uiso   1.00
H358   H     0.06164   0.38284   0.17942   0.00000  Uiso   1.00
H359   H     0.24938   0.47633   0.75341   0.00000  Uiso   1.00
O360   O     0.24487   0.85291   0.13808   0.00000  Uiso   1.00
O361   O     0.11488   0.31963   0.27920   0.00000  Uiso   1.00
O362   O     0.36119   0.44228   0.72029   0.00000  Uiso   1.00
N363   N     0.28828   0.75646   0.13537   0.00000  Uiso   1.00
N364   N     0.19564   0.37645   0.23596   0.00000  Uiso   1.00
N365   N     0.37116   0.46383   0.83768   0.00000  Uiso   1.00
N366   N     0.19887   0.76853   0.08772   0.00000  Uiso   1.00
N367   N     0.10623   0.38851   0.18830   0.00000  Uiso   1.00
N368   N     0.28175   0.47589   0.79002   0.00000  Uiso   1.00
C369   C     0.03121   0.79291   0.57384   0.00000  Uiso   1.00
C370   C     0.09624   0.76979   0.57915   0.00000  Uiso   1.00
C371   C     0.14420   0.80015   0.61016   0.00000  Uiso   1.00
C372   C     0.20020   0.77134   0.60965   0.00000  Uiso   1.00
C373   C     0.29999   0.74411   0.62255   0.00000  Uiso   1.00
C374   C     0.99151   0.74425   0.60688   0.00000  Uiso   1.00
C375   C     0.95141   0.75315   0.66120   0.00000  Uiso   1.00
C376   C     0.91924   0.70284   0.68403   0.00000  Uiso   1.00
C377   C     0.85641   0.63598   0.73994   0.00000  Uiso   1.00
C378   C     0.01561   0.79263   0.49711   0.00000  Uiso   1.00
C379   C     0.99574   0.84219   0.45914   0.00000  Uiso   1.00
C380   C     0.98385   0.83262   0.38956   0.00000  Uiso   1.00
C381   C     0.95842   0.84087   0.27505   0.00000  Uiso   1.00
C382   C     0.04540   0.68776   0.51780   0.00000  Uiso   1.00
C383   C     0.10395   0.71268   0.54871   0.00000  Uiso   1.00
C384   C     0.15989   0.68382   0.54815   0.00000  Uiso   1.00
C385   C     0.20792   0.71413   0.57916   0.00000  Uiso   1.00
C386   C     0.99922   0.68714   0.57644   0.00000  Uiso   1.00
C387   C     0.96710   0.63682   0.59919   0.00000  Uiso   1.00
C388   C     0.92696   0.64563   0.65354   0.00000  Uiso   1.00
C389   C     0.02331   0.73552   0.46667   0.00000  Uiso   1.00
C390   C     0.01144   0.72586   0.39714   0.00000  Uiso   1.00
C391   C     0.99156   0.77540   0.35907   0.00000  Uiso   1.00
H392   H     0.02521   0.83737   0.59755   0.00000  Uiso   1.00
H393   H     0.13821   0.84434   0.63372   0.00000  Uiso   1.00
H394   H     0.94545   0.79735   0.68474   0.00000  Uiso   1.00
H395   H     0.98978   0.88638   0.48272   0.00000  Uiso   1.00
H396   H     0.26689   0.82687   0.66041   0.00000  Uiso   1.00
H397   H     0.86042   0.72779   0.76799   0.00000  Uiso   1.00
H398   H     0.95390   0.91553   0.34198   0.00000  Uiso   1.00
H399   H     0.05140   0.64330   0.49410   0.00000  Uiso   1.00
H400   H     0.16584   0.63962   0.52459   0.00000  Uiso   1.00
H401   H     0.97308   0.59263   0.57562   0.00000  Uiso   1.00
H402   H     0.01741   0.68166   0.37360   0.00000  Uiso   1.00
H403   H     0.28931   0.66072   0.57185   0.00000  Uiso   1.00
H404   H     0.88284   0.56164   0.67942   0.00000  Uiso   1.00
H405   H     0.97633   0.74938   0.25341   0.00000  Uiso   1.00
O406   O     0.35291   0.74487   0.63808   0.00000  Uiso   1.00
O407   O     0.81963   0.61488   0.77920   0.00000  Uiso   1.00
O408   O     0.94228   0.86119   0.22029   0.00000  Uiso   1.00
N409   N     0.25646   0.78828   0.63537   0.00000  Uiso   1.00
N410   N     0.87645   0.69564   0.73596   0.00000  Uiso   1.00
N411   N     0.96383   0.87116   0.33768   0.00000  Uiso   1.00
N412   N     0.26853   0.69887   0.58772   0.00000  Uiso   1.00
N413   N     0.88851   0.60623   0.68830   0.00000  Uiso   1.00
N414   N     0.97589   0.78175   0.29002   0.00000  Uiso   1.00
C415   C     0.96879   0.20709   0.57384   0.00000  Uiso   1.00
C416   C     0.90376   0.23021   0.57915   0.00000  Uiso   1.00
C417   C     0.85580   0.19985   0.61016   0.00000  Uiso   1.00
C418   C     0.79980   0.22866   0.60965   0.00000  Uiso   1.00
C419   C     0.70001   0.25589   0.62255   0.00000  Uiso   1.00
C420   C     0.00849   0.25575   0.60688   0.00000  Uiso   1.00
C421   C     0.04859   0.24685   0.66120   0.00000  Uiso   1.00
C422   C     0.08076   0.29716   0.68403   0.00000  Uiso   1.00
C423   C     0.14359   0.36402   0.73994   0.00000  Uiso   1.00
C424   C     0.98439   0.20737   0.49711   0.00000  Uiso   1.00
C425   C     0.00426   0.15781   0.45914   0.00000  Uiso   1.00
C426   C     0.01615   0.16738   0.38956   0.00000  Uiso   1.00
C427   C     0.04158   0.15913   0.27505   0.00000  Uiso   1.00
C428   C     0.95460   0.31224   0.51780   0.00000  Uiso   1.00
C429   C     0.89605   0.28732   0.54871   0.00000  Uiso   1.00
C430   C     0.84011   0.31618   0.54815   0.00000  Uiso   1.00
C431   C     0.79208   0.28587   0.57916   0.00000  Uiso   1.00
C432   C     0.00078   0.31286   0.57644   0.00000  Uiso   1.00
C433   C     0.03290   0.36318   0.59919   0.00000  Uiso   1.00
C434   C     0.07304   0.35437   0.65354   0.00000  Uiso   1.00
C435   C     0.97669   0.26448   0.46667   0.00000  Uiso   1.00
C436   C     0.98856   0.27414   0.39714   0.00000  Uiso   1.00
C437   C     0.00844   0.22460   0.35907   0.00000  Uiso   1.00
H438   H     0.97479   0.16263   0.59755   0.00000  Uiso   1.00
H439   H     0.86179   0.15566   0.63372   0.00000  Uiso   1.00
H440   H     0.05455   0.20265   0.68474   0.00000  Uiso   1.00
H441   H     0.01022   0.11362   0.48272   0.00000  Uiso   1.00
H442   H     0.73311   0.17313   0.66041   0.00000  Uiso   1.00
H443   H     0.13958   0.27221   0.76799   0.00000  Uiso   1.00
H444   H     0.04610   0.08447   0.34198   0.00000  Uiso   1.00
H445   H     0.94860   0.35670   0.49410   0.00000  Uiso   1.00
H446   H     0.83416   0.36038   0.52459   0.00000  Uiso   1.00
H447   H     0.02692   0.40737   0.57562   0.00000  Uiso   1.00
H448   H     0.98259   0.31834   0.37360   0.00000  Uiso   1.00
H449   H     0.71069   0.33928   0.57185   0.00000  Uiso   1.00
H450   H     0.11716   0.43836   0.67942   0.00000  Uiso   1.00
H451   H     0.02367   0.25062   0.25341   0.00000  Uiso   1.00
O452   O     0.64709   0.25513   0.63808   0.00000  Uiso   1.00
O453   O     0.18037   0.38512   0.77920   0.00000  Uiso   1.00
O454   O     0.05772   0.13881   0.22029   0.00000  Uiso   1.00
N455   N     0.74354   0.21172   0.63537   0.00000  Uiso   1.00
N456   N     0.12355   0.30436   0.73596   0.00000  Uiso   1.00
N457   N     0.03617   0.12884   0.33768   0.00000  Uiso   1.00
N458   N     0.73147   0.30113   0.58772   0.00000  Uiso   1.00
N459   N     0.11149   0.39377   0.68830   0.00000  Uiso   1.00
N460   N     0.02411   0.21825   0.29002   0.00000  Uiso   1.00
C461   C     0.70709   0.53121   0.57384   0.00000  Uiso   1.00
C462   C     0.73021   0.59624   0.57915   0.00000  Uiso   1.00
C463   C     0.69985   0.64420   0.61016   0.00000  Uiso   1.00
C464   C     0.72866   0.70020   0.60965   0.00000  Uiso   1.00
C465   C     0.75589   0.79999   0.62255   0.00000  Uiso   1.00
C466   C     0.75575   0.49151   0.60688   0.00000  Uiso   1.00
C467   C     0.74685   0.45141   0.66120   0.00000  Uiso   1.00
C468   C     0.79716   0.41924   0.68403   0.00000  Uiso   1.00
C469   C     0.86402   0.35641   0.73994   0.00000  Uiso   1.00
C470   C     0.70737   0.51561   0.49711   0.00000  Uiso   1.00
C471   C     0.65781   0.49574   0.45914   0.00000  Uiso   1.00
C472   C     0.66738   0.48385   0.38956   0.00000  Uiso   1.00
C473   C     0.65913   0.45842   0.27505   0.00000  Uiso   1.00
C474   C     0.81224   0.54540   0.51780   0.00000  Uiso   1.00
C475   C     0.78732   0.60395   0.54871   0.00000  Uiso   1.00
C476   C     0.81618   0.65989   0.54815   0.00000  Uiso   1.00
C477   C     0.78587   0.70792   0.57916   0.00000  Uiso   1.00
C478   C     0.81286   0.49922   0.57644   0.00000  Uiso   1.00
C479   C     0.86318   0.46710   0.59919   0.00000  Uiso   1.00
C480   C     0.85437   0.42696   0.65354   0.00000  Uiso   1.00
C481   C     0.76448   0.52331   0.46667   0.00000  Uiso   1.00
C482   C     0.77414   0.51144   0.39714   0.00000  Uiso   1.00
C483   C     0.72460   0.49156   0.35907   0.00000  Uiso   1.00
H484   H     0.66263   0.52521   0.59755   0.00000  Uiso   1.00
H485   H     0.65566   0.63821   0.63372   0.00000  Uiso   1.00
H486   H     0.70265   0.44545   0.68474   0.00000  Uiso   1.00
H487   H     0.61362   0.48978   0.48272   0.00000  Uiso   1.00
H488   H     0.67313   0.76689   0.66041   0.00000  Uiso   1.00
H489   H     0.77221   0.36042   0.76799   0.00000  Uiso   1.00
H490   H     0.58447   0.45390   0.34198   0.00000  Uiso   1.00
H491   H     0.85670   0.55140   0.49410   0.00000  Uiso   1.00
H492   H     0.86038   0.66584   0.52459   0.00000  Uiso   1.00
H493   H     0.90737   0.47308   0.57562   0.00000  Uiso   1.00
H494   H     0.81834   0.51741   0.37360   0.00000  Uiso   1.00
H495   H     0.83928   0.78931   0.57185   0.00000  Uiso   1.00
H496   H     0.93836   0.38284   0.67942   0.00000  Uiso   1.00
H497   H     0.75062   0.47633   0.25341   0.00000  Uiso   1.00
O498   O     0.75513   0.85291   0.63808   0.00000  Uiso   1.00
O499   O     0.88512   0.31963   0.77920   0.00000  Uiso   1.00
O500   O     0.63881   0.44228   0.22029   0.00000  Uiso   1.00
N501   N     0.71172   0.75646   0.63537   0.00000  Uiso   1.00
N502   N     0.80436   0.37645   0.73596   0.00000  Uiso   1.00
N503   N     0.62884   0.46383   0.33768   0.00000  Uiso   1.00
N504   N     0.80113   0.76853   0.58772   0.00000  Uiso   1.00
N505   N     0.89377   0.38851   0.68830   0.00000  Uiso   1.00
N506   N     0.71825   0.47589   0.29002   0.00000  Uiso   1.00
C507   C     0.29291   0.46879   0.57384   0.00000  Uiso   1.00
C508   C     0.26979   0.40376   0.57915   0.00000  Uiso   1.00
C509   C     0.30015   0.35580   0.61016   0.00000  Uiso   1.00
C510   C     0.27134   0.29980   0.60965   0.00000  Uiso   1.00
C511   C     0.24411   0.20001   0.62255   0.00000  Uiso   1.00
C512   C     0.24425   0.50849   0.60688   0.00000  Uiso   1.00
C513   C     0.25315   0.54859   0.66120   0.00000  Uiso   1.00
C514   C     0.20284   0.58076   0.68403   0.00000  Uiso   1.00
C515   C     0.13598   0.64359   0.73994   0.00000  Uiso   1.00
C516   C     0.29263   0.48439   0.49711   0.00000  Uiso   1.00
C517   C     0.34219   0.50426   0.45914   0.00000  Uiso   1.00
C518   C     0.33262   0.51615   0.38956   0.00000  Uiso   1.00
C519   C     0.34087   0.54158   0.27505   0.00000  Uiso   1.00
C520   C     0.18776   0.45460   0.51780   0.00000  Uiso   1.00
C521   C     0.21268   0.39605   0.54871   0.00000  Uiso   1.00
C522   C     0.18382   0.34011   0.54815   0.00000  Uiso   1.00
C523   C     0.21413   0.29208   0.57916   0.00000  Uiso   1.00
C524   C     0.18714   0.50078   0.57644   0.00000  Uiso   1.00
C525   C     0.13682   0.53290   0.59919   0.00000  Uiso   1.00
C526   C     0.14563   0.57304   0.65354   0.00000  Uiso   1.00
C527   C     0.23552   0.47669   0.46667   0.00000  Uiso   1.00
C528   C     0.22586   0.48856   0.39714   0.00000  Uiso   1.00
C529   C     0.27540   0.50844   0.35907   0.00000  Uiso   1.00
H530   H     0.33737   0.47479   0.59755   0.00000  Uiso   1.00
H531   H     0.34434   0.36179   0.63372   0.00000  Uiso   1.00
H532   H     0.29735   0.55455   0.68474   0.00000  Uiso   1.00
H533   H     0.38638   0.51022   0.48272   0.00000  Uiso   1.00
H534   H     0.32687   0.23311   0.66041   0.00000  Uiso   1.00
H535   H     0.22779   0.63958   0.76799   0.00000  Uiso   1.00
H536   H     0.41553   0.54610   0.34198   0.00000  Uiso   1.00
H537   H     0.14330   0.44860   0.49410   0.00000  Uiso   1.00
H538   H     0.13962   0.33416   0.52459   0.00000  Uiso   1.00
H539   H     0.09263   0.52692   0.57562   0.00000  Uiso   1.00
H540   H     0.18166   0.48259   0.37360   0.00000  Uiso   1.00
H541   H     0.16072   0.21069   0.57185   0.00000  Uiso   1.00
H542   H     0.06164   0.61716   0.67942   0.00000  Uiso   1.00
H543   H     0.24938   0.52367   0.25341   0.00000  Uiso   1.00
O544   O     0.24487   0.14709   0.63808   0.00000  Uiso   1.00
O545   O     0.11488   0.68037   0.77920   0.00000  Uiso   1.00
O546   O     0.36119   0.55772   0.22029   0.00000  Uiso   1.00
N547   N     0.28828   0.24354   0.63537   0.00000  Uiso   1.00
N548   N     0.19564   0.62355   0.73596   0.00000  Uiso   1.00
N549   N     0.37116   0.53617   0.33768   0.00000  Uiso   1.00
N550   N     0.19887   0.23147   0.58772   0.00000  Uiso   1.00
N551   N     0.10623   0.61149   0.68830   0.00000  Uiso   1.00
N552   N     0.28175   0.52411   0.29002   0.00000  Uiso   1.00
C553   C     0.46879   0.29291   0.92616   0.00000  Uiso   1.00
C554   C     0.40376   0.26979   0.92085   0.00000  Uiso   1.00
C555   C     0.35580   0.30015   0.88984   0.00000  Uiso   1.00
C556   C     0.29980   0.27134   0.89035   0.00000  Uiso   1.00
C557   C     0.20001   0.24411   0.87745   0.00000  Uiso   1.00
C558   C     0.50849   0.24425   0.89312   0.00000  Uiso   1.00
C559   C     0.54859   0.25315   0.83880   0.00000  Uiso   1.00
C560   C     0.58076   0.20284   0.81597   0.00000  Uiso   1.00
C561   C     0.64359   0.13598   0.76006   0.00000  Uiso   1.00
C562   C     0.48439   0.29263   0.00289   0.00000  Uiso   1.00
C563   C     0.50426   0.34219   0.04086   0.00000  Uiso   1.00
C564   C     0.51615   0.33262   0.11044   0.00000  Uiso   1.00
C565   C     0.54158   0.34087   0.22495   0.00000  Uiso   1.00
C566   C     0.45460   0.18776   0.98220   0.00000  Uiso   1.00
C567   C     0.39605   0.21268   0.95129   0.00000  Uiso   1.00
C568   C     0.34011   0.18382   0.95185   0.00000  Uiso   1.00
C569   C     0.29208   0.21413   0.92084   0.00000  Uiso   1.00
C570   C     0.50078   0.18714   0.92356   0.00000  Uiso   1.00
C571   C     0.53290   0.13682   0.90081   0.00000  Uiso   1.00
C572   C     0.57304   0.14563   0.84646   0.00000  Uiso   1.00
C573   C     0.47669   0.23552   0.03333   0.00000  Uiso   1.00
C574   C     0.48856   0.22586   0.10286   0.00000  Uiso   1.00
C575   C     0.50844   0.27540   0.14093   0.00000  Uiso   1.00
H576   H     0.47479   0.33737   0.90245   0.00000  Uiso   1.00
H577   H     0.36179   0.34434   0.86628   0.00000  Uiso   1.00
H578   H     0.55455   0.29735   0.81526   0.00000  Uiso   1.00
H579   H     0.51022   0.38638   0.01728   0.00000  Uiso   1.00
H580   H     0.23311   0.32687   0.83959   0.00000  Uiso   1.00
H581   H     0.63958   0.22779   0.73201   0.00000  Uiso   1.00
H582   H     0.54610   0.41553   0.15802   0.00000  Uiso   1.00
H583   H     0.44860   0.14330   0.00590   0.00000  Uiso   1.00
H584   H     0.33416   0.13962   0.97541   0.00000  Uiso   1.00
H585   H     0.52692   0.09263   0.92438   0.00000  Uiso   1.00
H586   H     0.48259   0.18166   0.12640   0.00000  Uiso   1.00
H587   H     0.21069   0.16072   0.92815   0.00000  Uiso   1.00
H588   H     0.61716   0.06164   0.82058   0.00000  Uiso   1.00
H589   H     0.52367   0.24938   0.24659   0.00000  Uiso   1.00
O590   O     0.14709   0.24487   0.86192   0.00000  Uiso   1.00
O591   O     0.68037   0.11488   0.72080   0.00000  Uiso   1.00
O592   O     0.55772   0.36119   0.27971   0.00000  Uiso   1.00
N593   N     0.24354   0.28828   0.86463   0.00000  Uiso   1.00
N594   N     0.62355   0.19564   0.76404   0.00000  Uiso   1.00
N595   N     0.53617   0.37116   0.16232   0.00000  Uiso   1.00
N596   N     0.23147   0.19887   0.91228   0.00000  Uiso   1.00
N597   N     0.61149   0.10623   0.81170   0.00000  Uiso   1.00
N598   N     0.52411   0.28175   0.20998   0.00000  Uiso   1.00
C599   C     0.53121   0.70709   0.92616   0.00000  Uiso   1.00
C600   C     0.59624   0.73021   0.92085   0.00000  Uiso   1.00
C601   C     0.64420   0.69985   0.88984   0.00000  Uiso   1.00
C602   C     0.70020   0.72866   0.89035   0.00000  Uiso   1.00
C603   C     0.79999   0.75589   0.87745   0.00000  Uiso   1.00
C604   C     0.49151   0.75575   0.89312   0.00000  Uiso   1.00
C605   C     0.45141   0.74685   0.83880   0.00000  Uiso   1.00
C606   C     0.41924   0.79716   0.81597   0.00000  Uiso   1.00
C607   C     0.35641   0.86402   0.76006   0.00000  Uiso   1.00
C608   C     0.51561   0.70737   0.00289   0.00000  Uiso   1.00
C609   C     0.49574   0.65781   0.04086   0.00000  Uiso   1.00
C610   C     0.48385   0.66738   0.11044   0.00000  Uiso   1.00
C611   C     0.45842   0.65913   0.22495   0.00000  Uiso   1.00
C612   C     0.54540   0.81224   0.98220   0.00000  Uiso   1.00
C613   C     0.60395   0.78732   0.95129   0.00000  Uiso   1.00
C614   C     0.65989   0.81618   0.95185   0.00000  Uiso   1.00
C615   C     0.70792   0.78587   0.92084   0.00000  Uiso   1.00
C616   C     0.49922   0.81286   0.92356   0.00000  Uiso   1.00
C617   C     0.46710   0.86318   0.90081   0.00000  Uiso   1.00
C618   C     0.42696   0.85437   0.84646   0.00000  Uiso   1.00
C619   C     0.52331   0.76448   0.03333   0.00000  Uiso   1.00
C620   C     0.51144   0.77414   0.10286   0.00000  Uiso   1.00
C621   C     0.49156   0.72460   0.14093   0.00000  Uiso   1.00
H622   H     0.52521   0.66263   0.90245   0.00000  Uiso   1.00
H623   H     0.63821   0.65566   0.86628   0.00000  Uiso   1.00
H624   H     0.44545   0.70265   0.81526   0.00000  Uiso   1.00
H625   H     0.48978   0.61362   0.01728   0.00000  Uiso   1.00
H626   H     0.76689   0.67313   0.83959   0.00000  Uiso   1.00
H627   H     0.36042   0.77221   0.73201   0.00000  Uiso   1.00
H628   H     0.45390   0.58447   0.15802   0.00000  Uiso   1.00
H629   H     0.55140   0.85670   0.00590   0.00000  Uiso   1.00
H630   H     0.66584   0.86038   0.97541   0.00000  Uiso   1.00
H631   H     0.47308   0.90737   0.92438   0.00000  Uiso   1.00
H632   H     0.51741   0.81834   0.12640   0.00000  Uiso   1.00
H633   H     0.78931   0.83928   0.92815   0.00000  Uiso   1.00
H634   H     0.38284   0.93836   0.82058   0.00000  Uiso   1.00
H635   H     0.47633   0.75062   0.24659   0.00000  Uiso   1.00
O636   O     0.85291   0.75513   0.86192   0.00000  Uiso   1.00
O637   O     0.31963   0.88512   0.72080   0.00000  Uiso   1.00
O638   O     0.44228   0.63881   0.27971   0.00000  Uiso   1.00
N639   N     0.75646   0.71172   0.86463   0.00000  Uiso   1.00
N640   N     0.37645   0.80436   0.76404   0.00000  Uiso   1.00
N641   N     0.46383   0.62884   0.16232   0.00000  Uiso   1.00
N642   N     0.76853   0.80113   0.91228   0.00000  Uiso   1.00
N643   N     0.38851   0.89377   0.81170   0.00000  Uiso   1.00
N644   N     0.47589   0.71825   0.20998   0.00000  Uiso   1.00
C645   C     0.79291   0.03121   0.92616   0.00000  Uiso   1.00
C646   C     0.76979   0.09624   0.92085   0.00000  Uiso   1.00
C647   C     0.80015   0.14420   0.88984   0.00000  Uiso   1.00
C648   C     0.77134   0.20020   0.89035   0.00000  Uiso   1.00
C649   C     0.74411   0.29999   0.87745   0.00000  Uiso   1.00
C650   C     0.74425   0.99151   0.89312   0.00000  Uiso   1.00
C651   C     0.75315   0.95141   0.83880   0.00000  Uiso   1.00
C652   C     0.70284   0.91924   0.81597   0.00000  Uiso   1.00
C653   C     0.63598   0.85641   0.76006   0.00000  Uiso   1.00
C654   C     0.79263   0.01561   0.00289   0.00000  Uiso   1.00
C655   C     0.84219   0.99574   0.04086   0.00000  Uiso   1.00
C656   C     0.83262   0.98385   0.11044   0.00000  Uiso   1.00
C657   C     0.84087   0.95842   0.22495   0.00000  Uiso   1.00
C658   C     0.68776   0.04540   0.98220   0.00000  Uiso   1.00
C659   C     0.71268   0.10395   0.95129   0.00000  Uiso   1.00
C660   C     0.68382   0.15989   0.95185   0.00000  Uiso   1.00
C661   C     0.71413   0.20792   0.92084   0.00000  Uiso   1.00
C662   C     0.68714   0.99922   0.92356   0.00000  Uiso   1.00
C663   C     0.63682   0.96710   0.90081   0.00000  Uiso   1.00
C664   C     0.64563   0.92696   0.84646   0.00000  Uiso   1.00
C665   C     0.73552   0.02331   0.03333   0.00000  Uiso   1.00
C666   C     0.72586   0.01144   0.10286   0.00000  Uiso   1.00
C667   C     0.77540   0.99156   0.14093   0.00000  Uiso   1.00
H668   H     0.83737   0.02521   0.90245   0.00000  Uiso   1.00
H669   H     0.84434   0.13821   0.86628   0.00000  Uiso   1.00
H670   H     0.79735   0.94545   0.81526   0.00000  Uiso   1.00
H671   H     0.88638   0.98978   0.01728   0.00000  Uiso   1.00
H672   H     0.82687   0.26689   0.83959   0.00000  Uiso   1.00
H673   H     0.72779   0.86042   0.73201   0.00000  Uiso   1.00
H674   H     0.91553   0.95390   0.15802   0.00000  Uiso   1.00
H675   H     0.64330   0.05140   0.00590   0.00000  Uiso   1.00
H676   H     0.63962   0.16584   0.97541   0.00000  Uiso   1.00
H677   H     0.59263   0.97308   0.92438   0.00000  Uiso   1.00
H678   H     0.68166   0.01741   0.12640   0.00000  Uiso   1.00
H679   H     0.66072   0.28931   0.92815   0.00000  Uiso   1.00
H680   H     0.56164   0.88284   0.82058   0.00000  Uiso   1.00
H681   H     0.74938   0.97633   0.24659   0.00000  Uiso   1.00
O682   O     0.74487   0.35291   0.86192   0.00000  Uiso   1.00
O683   O     0.61488   0.81963   0.72080   0.00000  Uiso   1.00
O684   O     0.86119   0.94228   0.27971   0.00000  Uiso   1.00
N685   N     0.78828   0.25646   0.86463   0.00000  Uiso   1.00
N686   N     0.69564   0.87645   0.76404   0.00000  Uiso   1.00
N687   N     0.87116   0.96383   0.16232   0.00000  Uiso   1.00
N688   N     0.69887   0.26853   0.91228   0.00000  Uiso   1.00
N689   N     0.60623   0.88851   0.81170   0.00000  Uiso   1.00
N690   N     0.78175   0.97589   0.20998   0.00000  Uiso   1.00
C691   C     0.20709   0.96879   0.92616   0.00000  Uiso   1.00
C692   C     0.23021   0.90376   0.92085   0.00000  Uiso   1.00
C693   C     0.19985   0.85580   0.88984   0.00000  Uiso   1.00
C694   C     0.22866   0.79980   0.89035   0.00000  Uiso   1.00
C695   C     0.25589   0.70001   0.87745   0.00000  Uiso   1.00
C696   C     0.25575   0.00849   0.89312   0.00000  Uiso   1.00
C697   C     0.24685   0.04859   0.83880   0.00000  Uiso   1.00
C698   C     0.29716   0.08076   0.81597   0.00000  Uiso   1.00
C699   C     0.36402   0.14359   0.76006   0.00000  Uiso   1.00
C700   C     0.20737   0.98439   0.00289   0.00000  Uiso   1.00
C701   C     0.15781   0.00426   0.04086   0.00000  Uiso   1.00
C702   C     0.16738   0.01615   0.11044   0.00000  Uiso   1.00
C703   C     0.15913   0.04158   0.22495   0.00000  Uiso   1.00
C704   C     0.31224   0.95460   0.98220   0.00000  Uiso   1.00
C705   C     0.28732   0.89605   0.95129   0.00000  Uiso   1.00
C706   C     0.31618   0.84011   0.95185   0.00000  Uiso   1.00
C707   C     0.28587   0.79208   0.92084   0.00000  Uiso   1.00
C708   C     0.31286   0.00078   0.92356   0.00000  Uiso   1.00
C709   C     0.36318   0.03290   0.90081   0.00000  Uiso   1.00
C710   C     0.35437   0.07304   0.84646   0.00000  Uiso   1.00
C711   C     0.26448   0.97669   0.03333   0.00000  Uiso   1.00
C712   C     0.27414   0.98856   0.10286   0.00000  Uiso   1.00
C713   C     0.22460   0.00844   0.14093   0.00000  Uiso   1.00
H714   H     0.16263   0.97479   0.90245   0.00000  Uiso   1.00
H715   H     0.15566   0.86179   0.86628   0.00000  Uiso   1.00
H716   H     0.20265   0.05455   0.81526   0.00000  Uiso   1.00
H717   H     0.11362   0.01022   0.01728   0.00000  Uiso   1.00
H718   H     0.17313   0.73311   0.83959   0.00000  Uiso   1.00
H719   H     0.27221   0.13958   0.73201   0.00000  Uiso   1.00
H720   H     0.08447   0.04610   0.15802   0.00000  Uiso   1.00
H721   H     0.35670   0.94860   0.00590   0.00000  Uiso   1.00
H722   H     0.36038   0.83416   0.97541   0.00000  Uiso   1.00
H723   H     0.40737   0.02692   0.92438   0.00000  Uiso   1.00
H724   H     0.31834   0.98259   0.12640   0.00000  Uiso   1.00
H725   H     0.33928   0.71069   0.92815   0.00000  Uiso   1.00
H726   H     0.43836   0.11716   0.82058   0.00000  Uiso   1.00
H727   H     0.25062   0.02367   0.24659   0.00000  Uiso   1.00
O728   O     0.25513   0.64709   0.86192   0.00000  Uiso   1.00
O729   O     0.38512   0.18037   0.72080   0.00000  Uiso   1.00
O730   O     0.13881   0.05772   0.27971   0.00000  Uiso   1.00
N731   N     0.21172   0.74354   0.86463   0.00000  Uiso   1.00
N732   N     0.30436   0.12355   0.76404   0.00000  Uiso   1.00
N733   N     0.12884   0.03617   0.16232   0.00000  Uiso   1.00
N734   N     0.30113   0.73147   0.91228   0.00000  Uiso   1.00
N735   N     0.39377   0.11149   0.81170   0.00000  Uiso   1.00
N736   N     0.21825   0.02411   0.20998   0.00000  Uiso   1.00
