data_job_00479
_audit_creation_date              2018-12-19
_audit_creation_method            'Materials Studio'
_symmetry_space_group_name_H-M    'P1'
_symmetry_Int_Tables_number       1
_symmetry_cell_setting            triclinic
loop_
_symmetry_equiv_pos_as_xyz
  x,y,z
_cell_length_a                    25.7874
_cell_length_b                    25.7874
_cell_length_c                    13.8737
_cell_angle_alpha                 90.0000
_cell_angle_beta                  90.0000
_cell_angle_gamma                 90.0000
loop_
_atom_site_label
_atom_site_type_symbol
_atom_site_fract_x
_atom_site_fract_y
_atom_site_fract_z
_atom_site_U_iso_or_equiv
_atom_site_adp_type
_atom_site_occupancy
C1     C     0.66668   0.56332   0.07117   0.00000  Uiso   1.00
C2     C     0.65621   0.56137   0.17929   0.00000  Uiso   1.00
C3     C     0.61704   0.53330   0.22383   0.00000  Uiso   1.00
C4     C     0.61391   0.53663   0.32354   0.00000  Uiso   1.00
C5     C     0.59234   0.52902   0.48333   0.00000  Uiso   1.00
C6     C     0.66487   0.62048   0.04325   0.00000  Uiso   1.00
C7     C     0.63299   0.64212   0.97341   0.00000  Uiso   1.00
C8     C     0.63716   0.69520   0.95860   0.00000  Uiso   1.00
C9     C     0.62906   0.77936   0.90715   0.00000  Uiso   1.00
C10    C     0.72288   0.54634   0.05804   0.00000  Uiso   1.00
C11    C     0.73978   0.50565   0.00061   0.00000  Uiso   1.00
C12    C     0.79279   0.49632   0.99824   0.00000  Uiso   1.00
C13    C     0.87477   0.46537   0.96974   0.00000  Uiso   1.00
C14    C     0.73078   0.61913   0.16905   0.00000  Uiso   1.00
C15    C     0.69102   0.59169   0.23245   0.00000  Uiso   1.00
C16    C     0.68795   0.59505   0.33212   0.00000  Uiso   1.00
C17    C     0.64879   0.56700   0.37680   0.00000  Uiso   1.00
C18    C     0.69968   0.65080   0.09642   0.00000  Uiso   1.00
C19    C     0.70390   0.70386   0.08170   0.00000  Uiso   1.00
C20    C     0.67203   0.72557   0.01186   0.00000  Uiso   1.00
C21    C     0.75770   0.57666   0.11121   0.00000  Uiso   1.00
C22    C     0.81070   0.56740   0.10891   0.00000  Uiso   1.00
C23    C     0.82767   0.52669   0.05150   0.00000  Uiso   1.00
H24    H     0.63957   0.53972   0.02977   0.00000  Uiso   1.00
H25    H     0.59010   0.50985   0.18266   0.00000  Uiso   1.00
H26    H     0.60605   0.61865   0.93227   0.00000  Uiso   1.00
H27    H     0.71283   0.48220   0.95948   0.00000  Uiso   1.00
H28    H     0.55059   0.49013   0.37560   0.00000  Uiso   1.00
H29    H     0.58424   0.71952   0.84763   0.00000  Uiso   1.00
H30    H     0.80939   0.43180   0.90499   0.00000  Uiso   1.00
H31    H     0.75788   0.64273   0.21044   0.00000  Uiso   1.00
H32    H     0.71490   0.61851   0.37325   0.00000  Uiso   1.00
H33    H     0.73085   0.72731   0.12286   0.00000  Uiso   1.00
H34    H     0.83763   0.59086   0.15007   0.00000  Uiso   1.00
H35    H     0.65188   0.57832   0.53029   0.00000  Uiso   1.00
H36    H     0.68553   0.80771   0.00231   0.00000  Uiso   1.00
H37    H     0.91069   0.51999   0.05968   0.00000  Uiso   1.00
O38    O     0.57082   0.51645   0.55678   0.00000  Uiso   1.00
O39    O     0.61497   0.81740   0.86408   0.00000  Uiso   1.00
O40    O     0.91037   0.43992   0.93935   0.00000  Uiso   1.00
N41    N     0.58033   0.51420   0.38966   0.00000  Uiso   1.00
N42    N     0.61179   0.72867   0.89605   0.00000  Uiso   1.00
N43    N     0.82229   0.45968   0.94966   0.00000  Uiso   1.00
N44    N     0.63484   0.56165   0.47290   0.00000  Uiso   1.00
N45    N     0.66629   0.77612   0.97929   0.00000  Uiso   1.00
N46    N     0.87680   0.50714   0.03290   0.00000  Uiso   1.00
C47    C     0.16668   0.06332   0.57117   0.00000  Uiso   1.00
C48    C     0.15621   0.06137   0.67929   0.00000  Uiso   1.00
C49    C     0.11704   0.03330   0.72383   0.00000  Uiso   1.00
C50    C     0.11391   0.03663   0.82354   0.00000  Uiso   1.00
C51    C     0.09234   0.02902   0.98333   0.00000  Uiso   1.00
C52    C     0.16487   0.12048   0.54325   0.00000  Uiso   1.00
C53    C     0.13299   0.14212   0.47341   0.00000  Uiso   1.00
C54    C     0.13716   0.19520   0.45860   0.00000  Uiso   1.00
C55    C     0.12906   0.27936   0.40715   0.00000  Uiso   1.00
C56    C     0.22288   0.04634   0.55804   0.00000  Uiso   1.00
C57    C     0.23978   0.00565   0.50061   0.00000  Uiso   1.00
C58    C     0.29279   0.99632   0.49824   0.00000  Uiso   1.00
C59    C     0.37477   0.96537   0.46974   0.00000  Uiso   1.00
C60    C     0.23078   0.11913   0.66905   0.00000  Uiso   1.00
C61    C     0.19102   0.09169   0.73245   0.00000  Uiso   1.00
C62    C     0.18795   0.09505   0.83212   0.00000  Uiso   1.00
C63    C     0.14879   0.06700   0.87680   0.00000  Uiso   1.00
C64    C     0.19968   0.15080   0.59642   0.00000  Uiso   1.00
C65    C     0.20390   0.20386   0.58170   0.00000  Uiso   1.00
C66    C     0.17203   0.22557   0.51186   0.00000  Uiso   1.00
C67    C     0.25770   0.07666   0.61121   0.00000  Uiso   1.00
C68    C     0.31070   0.06740   0.60891   0.00000  Uiso   1.00
C69    C     0.32767   0.02669   0.55150   0.00000  Uiso   1.00
H70    H     0.13957   0.03972   0.52977   0.00000  Uiso   1.00
H71    H     0.09010   0.00985   0.68266   0.00000  Uiso   1.00
H72    H     0.10605   0.11865   0.43227   0.00000  Uiso   1.00
H73    H     0.21283   0.98220   0.45948   0.00000  Uiso   1.00
H74    H     0.05059   0.99013   0.87560   0.00000  Uiso   1.00
H75    H     0.08424   0.21952   0.34763   0.00000  Uiso   1.00
H76    H     0.30939   0.93180   0.40499   0.00000  Uiso   1.00
H77    H     0.25788   0.14273   0.71044   0.00000  Uiso   1.00
H78    H     0.21490   0.11851   0.87325   0.00000  Uiso   1.00
H79    H     0.23085   0.22731   0.62286   0.00000  Uiso   1.00
H80    H     0.33763   0.09086   0.65007   0.00000  Uiso   1.00
H81    H     0.15188   0.07832   0.03029   0.00000  Uiso   1.00
H82    H     0.18553   0.30771   0.50231   0.00000  Uiso   1.00
H83    H     0.41069   0.01999   0.55968   0.00000  Uiso   1.00
O84    O     0.07082   0.01645   0.05678   0.00000  Uiso   1.00
O85    O     0.11497   0.31740   0.36408   0.00000  Uiso   1.00
O86    O     0.41037   0.93992   0.43935   0.00000  Uiso   1.00
N87    N     0.08033   0.01420   0.88966   0.00000  Uiso   1.00
N88    N     0.11179   0.22867   0.39605   0.00000  Uiso   1.00
N89    N     0.32229   0.95968   0.44966   0.00000  Uiso   1.00
N90    N     0.13484   0.06165   0.97290   0.00000  Uiso   1.00
N91    N     0.16629   0.27612   0.47929   0.00000  Uiso   1.00
N92    N     0.37680   0.00714   0.53290   0.00000  Uiso   1.00
C93    C     0.83332   0.93668   0.57117   0.00000  Uiso   1.00
C94    C     0.84379   0.93863   0.67929   0.00000  Uiso   1.00
C95    C     0.88296   0.96670   0.72383   0.00000  Uiso   1.00
C96    C     0.88609   0.96337   0.82354   0.00000  Uiso   1.00
C97    C     0.90766   0.97098   0.98333   0.00000  Uiso   1.00
C98    C     0.83513   0.87952   0.54325   0.00000  Uiso   1.00
C99    C     0.86701   0.85788   0.47341   0.00000  Uiso   1.00
C100   C     0.86284   0.80480   0.45860   0.00000  Uiso   1.00
C101   C     0.87094   0.72064   0.40715   0.00000  Uiso   1.00
C102   C     0.77712   0.95366   0.55804   0.00000  Uiso   1.00
C103   C     0.76022   0.99435   0.50061   0.00000  Uiso   1.00
C104   C     0.70721   0.00368   0.49824   0.00000  Uiso   1.00
C105   C     0.62523   0.03463   0.46974   0.00000  Uiso   1.00
C106   C     0.76922   0.88087   0.66905   0.00000  Uiso   1.00
C107   C     0.80898   0.90831   0.73245   0.00000  Uiso   1.00
C108   C     0.81205   0.90495   0.83212   0.00000  Uiso   1.00
C109   C     0.85121   0.93300   0.87680   0.00000  Uiso   1.00
C110   C     0.80032   0.84920   0.59642   0.00000  Uiso   1.00
C111   C     0.79610   0.79614   0.58170   0.00000  Uiso   1.00
C112   C     0.82797   0.77443   0.51186   0.00000  Uiso   1.00
C113   C     0.74230   0.92334   0.61121   0.00000  Uiso   1.00
C114   C     0.68930   0.93260   0.60891   0.00000  Uiso   1.00
C115   C     0.67233   0.97331   0.55150   0.00000  Uiso   1.00
H116   H     0.86043   0.96028   0.52977   0.00000  Uiso   1.00
H117   H     0.90990   0.99015   0.68266   0.00000  Uiso   1.00
H118   H     0.89395   0.88135   0.43227   0.00000  Uiso   1.00
H119   H     0.78717   0.01780   0.45948   0.00000  Uiso   1.00
H120   H     0.94941   0.00987   0.87560   0.00000  Uiso   1.00
H121   H     0.91576   0.78048   0.34763   0.00000  Uiso   1.00
H122   H     0.69061   0.06820   0.40499   0.00000  Uiso   1.00
H123   H     0.74212   0.85727   0.71044   0.00000  Uiso   1.00
H124   H     0.78510   0.88149   0.87325   0.00000  Uiso   1.00
H125   H     0.76915   0.77269   0.62286   0.00000  Uiso   1.00
H126   H     0.66237   0.90914   0.65007   0.00000  Uiso   1.00
H127   H     0.84812   0.92168   0.03029   0.00000  Uiso   1.00
H128   H     0.81447   0.69229   0.50231   0.00000  Uiso   1.00
H129   H     0.58931   0.98001   0.55968   0.00000  Uiso   1.00
O130   O     0.92918   0.98355   0.05678   0.00000  Uiso   1.00
O131   O     0.88503   0.68260   0.36408   0.00000  Uiso   1.00
O132   O     0.58963   0.06008   0.43935   0.00000  Uiso   1.00
N133   N     0.91967   0.98580   0.88966   0.00000  Uiso   1.00
N134   N     0.88821   0.77133   0.39605   0.00000  Uiso   1.00
N135   N     0.67771   0.04032   0.44966   0.00000  Uiso   1.00
N136   N     0.86516   0.93835   0.97290   0.00000  Uiso   1.00
N137   N     0.83371   0.72388   0.47929   0.00000  Uiso   1.00
N138   N     0.62320   0.99286   0.53290   0.00000  Uiso   1.00
C139   C     0.33332   0.43668   0.07117   0.00000  Uiso   1.00
C140   C     0.34379   0.43863   0.17929   0.00000  Uiso   1.00
C141   C     0.38296   0.46670   0.22383   0.00000  Uiso   1.00
C142   C     0.38609   0.46337   0.32354   0.00000  Uiso   1.00
C143   C     0.40766   0.47098   0.48333   0.00000  Uiso   1.00
C144   C     0.33513   0.37952   0.04325   0.00000  Uiso   1.00
C145   C     0.36701   0.35788   0.97341   0.00000  Uiso   1.00
C146   C     0.36284   0.30480   0.95860   0.00000  Uiso   1.00
C147   C     0.37094   0.22064   0.90715   0.00000  Uiso   1.00
C148   C     0.27712   0.45366   0.05804   0.00000  Uiso   1.00
C149   C     0.26022   0.49435   0.00061   0.00000  Uiso   1.00
C150   C     0.20721   0.50368   0.99824   0.00000  Uiso   1.00
C151   C     0.12523   0.53463   0.96974   0.00000  Uiso   1.00
C152   C     0.26922   0.38087   0.16905   0.00000  Uiso   1.00
C153   C     0.30898   0.40831   0.23245   0.00000  Uiso   1.00
C154   C     0.31205   0.40495   0.33212   0.00000  Uiso   1.00
C155   C     0.35121   0.43300   0.37680   0.00000  Uiso   1.00
C156   C     0.30032   0.34920   0.09642   0.00000  Uiso   1.00
C157   C     0.29610   0.29614   0.08170   0.00000  Uiso   1.00
C158   C     0.32797   0.27443   0.01186   0.00000  Uiso   1.00
C159   C     0.24230   0.42334   0.11121   0.00000  Uiso   1.00
C160   C     0.18930   0.43260   0.10891   0.00000  Uiso   1.00
C161   C     0.17233   0.47331   0.05150   0.00000  Uiso   1.00
H162   H     0.36043   0.46028   0.02977   0.00000  Uiso   1.00
H163   H     0.40990   0.49015   0.18266   0.00000  Uiso   1.00
H164   H     0.39395   0.38135   0.93227   0.00000  Uiso   1.00
H165   H     0.28717   0.51780   0.95948   0.00000  Uiso   1.00
H166   H     0.44941   0.50987   0.37560   0.00000  Uiso   1.00
H167   H     0.41576   0.28048   0.84763   0.00000  Uiso   1.00
H168   H     0.19061   0.56820   0.90499   0.00000  Uiso   1.00
H169   H     0.24212   0.35727   0.21044   0.00000  Uiso   1.00
H170   H     0.28510   0.38149   0.37325   0.00000  Uiso   1.00
H171   H     0.26915   0.27269   0.12286   0.00000  Uiso   1.00
H172   H     0.16237   0.40914   0.15007   0.00000  Uiso   1.00
H173   H     0.34812   0.42168   0.53029   0.00000  Uiso   1.00
H174   H     0.31447   0.19229   0.00231   0.00000  Uiso   1.00
H175   H     0.08931   0.48001   0.05968   0.00000  Uiso   1.00
O176   O     0.42918   0.48355   0.55678   0.00000  Uiso   1.00
O177   O     0.38503   0.18260   0.86408   0.00000  Uiso   1.00
O178   O     0.08963   0.56008   0.93935   0.00000  Uiso   1.00
N179   N     0.41967   0.48580   0.38966   0.00000  Uiso   1.00
N180   N     0.38821   0.27133   0.89605   0.00000  Uiso   1.00
N181   N     0.17771   0.54032   0.94966   0.00000  Uiso   1.00
N182   N     0.36516   0.43835   0.47290   0.00000  Uiso   1.00
N183   N     0.33371   0.22388   0.97929   0.00000  Uiso   1.00
N184   N     0.12320   0.49286   0.03290   0.00000  Uiso   1.00
C185   C     0.43668   0.16668   0.32117   0.00000  Uiso   1.00
C186   C     0.43863   0.15621   0.42929   0.00000  Uiso   1.00
C187   C     0.46670   0.11704   0.47383   0.00000  Uiso   1.00
C188   C     0.46337   0.11391   0.57354   0.00000  Uiso   1.00
C189   C     0.47098   0.09234   0.73333   0.00000  Uiso   1.00
C190   C     0.37952   0.16487   0.29325   0.00000  Uiso   1.00
C191   C     0.35788   0.13299   0.22341   0.00000  Uiso   1.00
C192   C     0.30480   0.13716   0.20860   0.00000  Uiso   1.00
C193   C     0.22064   0.12906   0.15715   0.00000  Uiso   1.00
C194   C     0.45366   0.22288   0.30804   0.00000  Uiso   1.00
C195   C     0.49435   0.23978   0.25061   0.00000  Uiso   1.00
C196   C     0.50368   0.29279   0.24824   0.00000  Uiso   1.00
C197   C     0.53463   0.37477   0.21974   0.00000  Uiso   1.00
C198   C     0.38087   0.23078   0.41905   0.00000  Uiso   1.00
C199   C     0.40831   0.19102   0.48245   0.00000  Uiso   1.00
C200   C     0.40495   0.18795   0.58212   0.00000  Uiso   1.00
C201   C     0.43300   0.14879   0.62680   0.00000  Uiso   1.00
C202   C     0.34920   0.19968   0.34642   0.00000  Uiso   1.00
C203   C     0.29614   0.20390   0.33170   0.00000  Uiso   1.00
C204   C     0.27443   0.17203   0.26186   0.00000  Uiso   1.00
C205   C     0.42334   0.25770   0.36121   0.00000  Uiso   1.00
C206   C     0.43260   0.31070   0.35891   0.00000  Uiso   1.00
C207   C     0.47331   0.32767   0.30150   0.00000  Uiso   1.00
H208   H     0.46028   0.13957   0.27977   0.00000  Uiso   1.00
H209   H     0.49015   0.09010   0.43266   0.00000  Uiso   1.00
H210   H     0.38135   0.10605   0.18227   0.00000  Uiso   1.00
H211   H     0.51780   0.21283   0.20948   0.00000  Uiso   1.00
H212   H     0.50987   0.05059   0.62560   0.00000  Uiso   1.00
H213   H     0.28048   0.08424   0.09763   0.00000  Uiso   1.00
H214   H     0.56820   0.30939   0.15499   0.00000  Uiso   1.00
H215   H     0.35727   0.25788   0.46044   0.00000  Uiso   1.00
H216   H     0.38149   0.21490   0.62325   0.00000  Uiso   1.00
H217   H     0.27269   0.23085   0.37286   0.00000  Uiso   1.00
H218   H     0.40914   0.33763   0.40007   0.00000  Uiso   1.00
H219   H     0.42168   0.15188   0.78029   0.00000  Uiso   1.00
H220   H     0.19229   0.18553   0.25231   0.00000  Uiso   1.00
H221   H     0.48001   0.41069   0.30968   0.00000  Uiso   1.00
O222   O     0.48355   0.07082   0.80678   0.00000  Uiso   1.00
O223   O     0.18260   0.11497   0.11408   0.00000  Uiso   1.00
O224   O     0.56008   0.41037   0.18935   0.00000  Uiso   1.00
N225   N     0.48580   0.08033   0.63966   0.00000  Uiso   1.00
N226   N     0.27133   0.11179   0.14605   0.00000  Uiso   1.00
N227   N     0.54032   0.32229   0.19966   0.00000  Uiso   1.00
N228   N     0.43835   0.13484   0.72290   0.00000  Uiso   1.00
N229   N     0.22388   0.16629   0.22929   0.00000  Uiso   1.00
N230   N     0.49286   0.37680   0.28290   0.00000  Uiso   1.00
C231   C     0.93668   0.66668   0.82117   0.00000  Uiso   1.00
C232   C     0.93863   0.65621   0.92929   0.00000  Uiso   1.00
C233   C     0.96670   0.61704   0.97383   0.00000  Uiso   1.00
C234   C     0.96337   0.61391   0.07354   0.00000  Uiso   1.00
C235   C     0.97098   0.59234   0.23333   0.00000  Uiso   1.00
C236   C     0.87952   0.66487   0.79325   0.00000  Uiso   1.00
C237   C     0.85788   0.63299   0.72341   0.00000  Uiso   1.00
C238   C     0.80480   0.63716   0.70860   0.00000  Uiso   1.00
C239   C     0.72064   0.62906   0.65715   0.00000  Uiso   1.00
C240   C     0.95366   0.72288   0.80804   0.00000  Uiso   1.00
C241   C     0.99435   0.73978   0.75061   0.00000  Uiso   1.00
C242   C     0.00368   0.79279   0.74824   0.00000  Uiso   1.00
C243   C     0.03463   0.87477   0.71974   0.00000  Uiso   1.00
C244   C     0.88087   0.73078   0.91905   0.00000  Uiso   1.00
C245   C     0.90831   0.69102   0.98245   0.00000  Uiso   1.00
C246   C     0.90495   0.68795   0.08212   0.00000  Uiso   1.00
C247   C     0.93300   0.64879   0.12680   0.00000  Uiso   1.00
C248   C     0.84920   0.69968   0.84642   0.00000  Uiso   1.00
C249   C     0.79614   0.70390   0.83170   0.00000  Uiso   1.00
C250   C     0.77443   0.67203   0.76186   0.00000  Uiso   1.00
C251   C     0.92334   0.75770   0.86121   0.00000  Uiso   1.00
C252   C     0.93260   0.81070   0.85891   0.00000  Uiso   1.00
C253   C     0.97331   0.82767   0.80150   0.00000  Uiso   1.00
H254   H     0.96028   0.63957   0.77977   0.00000  Uiso   1.00
H255   H     0.99015   0.59010   0.93266   0.00000  Uiso   1.00
H256   H     0.88135   0.60605   0.68227   0.00000  Uiso   1.00
H257   H     0.01780   0.71283   0.70948   0.00000  Uiso   1.00
H258   H     0.00987   0.55059   0.12560   0.00000  Uiso   1.00
H259   H     0.78048   0.58424   0.59763   0.00000  Uiso   1.00
H260   H     0.06820   0.80939   0.65499   0.00000  Uiso   1.00
H261   H     0.85727   0.75788   0.96044   0.00000  Uiso   1.00
H262   H     0.88149   0.71490   0.12325   0.00000  Uiso   1.00
H263   H     0.77269   0.73085   0.87286   0.00000  Uiso   1.00
H264   H     0.90914   0.83763   0.90007   0.00000  Uiso   1.00
H265   H     0.92168   0.65188   0.28029   0.00000  Uiso   1.00
H266   H     0.69229   0.68553   0.75231   0.00000  Uiso   1.00
H267   H     0.98001   0.91069   0.80968   0.00000  Uiso   1.00
O268   O     0.98355   0.57082   0.30678   0.00000  Uiso   1.00
O269   O     0.68260   0.61497   0.61408   0.00000  Uiso   1.00
O270   O     0.06008   0.91037   0.68935   0.00000  Uiso   1.00
N271   N     0.98580   0.58033   0.13966   0.00000  Uiso   1.00
N272   N     0.77133   0.61179   0.64605   0.00000  Uiso   1.00
N273   N     0.04032   0.82229   0.69966   0.00000  Uiso   1.00
N274   N     0.93835   0.63484   0.22290   0.00000  Uiso   1.00
N275   N     0.72388   0.66629   0.72929   0.00000  Uiso   1.00
N276   N     0.99286   0.87680   0.78290   0.00000  Uiso   1.00
C277   C     0.06332   0.33332   0.82117   0.00000  Uiso   1.00
C278   C     0.06137   0.34379   0.92929   0.00000  Uiso   1.00
C279   C     0.03330   0.38296   0.97383   0.00000  Uiso   1.00
C280   C     0.03663   0.38609   0.07354   0.00000  Uiso   1.00
C281   C     0.02902   0.40766   0.23333   0.00000  Uiso   1.00
C282   C     0.12048   0.33513   0.79325   0.00000  Uiso   1.00
C283   C     0.14212   0.36701   0.72341   0.00000  Uiso   1.00
C284   C     0.19520   0.36284   0.70860   0.00000  Uiso   1.00
C285   C     0.27936   0.37094   0.65715   0.00000  Uiso   1.00
C286   C     0.04634   0.27712   0.80804   0.00000  Uiso   1.00
C287   C     0.00565   0.26022   0.75061   0.00000  Uiso   1.00
C288   C     0.99632   0.20721   0.74824   0.00000  Uiso   1.00
C289   C     0.96537   0.12523   0.71974   0.00000  Uiso   1.00
C290   C     0.11913   0.26922   0.91905   0.00000  Uiso   1.00
C291   C     0.09169   0.30898   0.98245   0.00000  Uiso   1.00
C292   C     0.09505   0.31205   0.08212   0.00000  Uiso   1.00
C293   C     0.06700   0.35121   0.12680   0.00000  Uiso   1.00
C294   C     0.15080   0.30032   0.84642   0.00000  Uiso   1.00
C295   C     0.20386   0.29610   0.83170   0.00000  Uiso   1.00
C296   C     0.22557   0.32797   0.76186   0.00000  Uiso   1.00
C297   C     0.07666   0.24230   0.86121   0.00000  Uiso   1.00
C298   C     0.06740   0.18930   0.85891   0.00000  Uiso   1.00
C299   C     0.02669   0.17233   0.80150   0.00000  Uiso   1.00
H300   H     0.03972   0.36043   0.77977   0.00000  Uiso   1.00
H301   H     0.00985   0.40990   0.93266   0.00000  Uiso   1.00
H302   H     0.11865   0.39395   0.68227   0.00000  Uiso   1.00
H303   H     0.98220   0.28717   0.70948   0.00000  Uiso   1.00
H304   H     0.99013   0.44941   0.12560   0.00000  Uiso   1.00
H305   H     0.21952   0.41576   0.59763   0.00000  Uiso   1.00
H306   H     0.93180   0.19061   0.65499   0.00000  Uiso   1.00
H307   H     0.14273   0.24212   0.96044   0.00000  Uiso   1.00
H308   H     0.11851   0.28510   0.12325   0.00000  Uiso   1.00
H309   H     0.22731   0.26915   0.87286   0.00000  Uiso   1.00
H310   H     0.09086   0.16237   0.90007   0.00000  Uiso   1.00
H311   H     0.07832   0.34812   0.28029   0.00000  Uiso   1.00
H312   H     0.30771   0.31447   0.75231   0.00000  Uiso   1.00
H313   H     0.01999   0.08931   0.80968   0.00000  Uiso   1.00
O314   O     0.01645   0.42918   0.30678   0.00000  Uiso   1.00
O315   O     0.31740   0.38503   0.61408   0.00000  Uiso   1.00
O316   O     0.93992   0.08963   0.68935   0.00000  Uiso   1.00
N317   N     0.01420   0.41967   0.13966   0.00000  Uiso   1.00
N318   N     0.22867   0.38821   0.64605   0.00000  Uiso   1.00
N319   N     0.95968   0.17771   0.69966   0.00000  Uiso   1.00
N320   N     0.06165   0.36516   0.22290   0.00000  Uiso   1.00
N321   N     0.27612   0.33371   0.72929   0.00000  Uiso   1.00
N322   N     0.00714   0.12320   0.78290   0.00000  Uiso   1.00
C323   C     0.56332   0.83332   0.32117   0.00000  Uiso   1.00
C324   C     0.56137   0.84379   0.42929   0.00000  Uiso   1.00
C325   C     0.53330   0.88296   0.47383   0.00000  Uiso   1.00
C326   C     0.53663   0.88609   0.57354   0.00000  Uiso   1.00
C327   C     0.52902   0.90766   0.73333   0.00000  Uiso   1.00
C328   C     0.62048   0.83513   0.29325   0.00000  Uiso   1.00
C329   C     0.64212   0.86701   0.22341   0.00000  Uiso   1.00
C330   C     0.69520   0.86284   0.20860   0.00000  Uiso   1.00
C331   C     0.77936   0.87094   0.15715   0.00000  Uiso   1.00
C332   C     0.54634   0.77712   0.30804   0.00000  Uiso   1.00
C333   C     0.50565   0.76022   0.25061   0.00000  Uiso   1.00
C334   C     0.49632   0.70721   0.24824   0.00000  Uiso   1.00
C335   C     0.46537   0.62523   0.21974   0.00000  Uiso   1.00
C336   C     0.61913   0.76922   0.41905   0.00000  Uiso   1.00
C337   C     0.59169   0.80898   0.48245   0.00000  Uiso   1.00
C338   C     0.59505   0.81205   0.58212   0.00000  Uiso   1.00
C339   C     0.56700   0.85121   0.62680   0.00000  Uiso   1.00
C340   C     0.65080   0.80032   0.34642   0.00000  Uiso   1.00
C341   C     0.70386   0.79610   0.33170   0.00000  Uiso   1.00
C342   C     0.72557   0.82797   0.26186   0.00000  Uiso   1.00
C343   C     0.57666   0.74230   0.36121   0.00000  Uiso   1.00
C344   C     0.56740   0.68930   0.35891   0.00000  Uiso   1.00
C345   C     0.52669   0.67233   0.30150   0.00000  Uiso   1.00
H346   H     0.53972   0.86043   0.27977   0.00000  Uiso   1.00
H347   H     0.50985   0.90990   0.43266   0.00000  Uiso   1.00
H348   H     0.61865   0.89395   0.18227   0.00000  Uiso   1.00
H349   H     0.48220   0.78717   0.20948   0.00000  Uiso   1.00
H350   H     0.49013   0.94941   0.62560   0.00000  Uiso   1.00
H351   H     0.71952   0.91576   0.09763   0.00000  Uiso   1.00
H352   H     0.43180   0.69061   0.15499   0.00000  Uiso   1.00
H353   H     0.64273   0.74212   0.46044   0.00000  Uiso   1.00
H354   H     0.61851   0.78510   0.62325   0.00000  Uiso   1.00
H355   H     0.72731   0.76915   0.37286   0.00000  Uiso   1.00
H356   H     0.59086   0.66237   0.40007   0.00000  Uiso   1.00
H357   H     0.57832   0.84812   0.78029   0.00000  Uiso   1.00
H358   H     0.80771   0.81447   0.25231   0.00000  Uiso   1.00
H359   H     0.51999   0.58931   0.30968   0.00000  Uiso   1.00
O360   O     0.51645   0.92918   0.80678   0.00000  Uiso   1.00
O361   O     0.81740   0.88503   0.11408   0.00000  Uiso   1.00
O362   O     0.43992   0.58963   0.18935   0.00000  Uiso   1.00
N363   N     0.51420   0.91967   0.63966   0.00000  Uiso   1.00
N364   N     0.72867   0.88821   0.14605   0.00000  Uiso   1.00
N365   N     0.45968   0.67771   0.19966   0.00000  Uiso   1.00
N366   N     0.56165   0.86516   0.72290   0.00000  Uiso   1.00
N367   N     0.77612   0.83371   0.22929   0.00000  Uiso   1.00
N368   N     0.50714   0.62320   0.28290   0.00000  Uiso   1.00
C369   C     0.33332   0.93668   0.17883   0.00000  Uiso   1.00
C370   C     0.34379   0.93863   0.07071   0.00000  Uiso   1.00
C371   C     0.38296   0.96670   0.02617   0.00000  Uiso   1.00
C372   C     0.38609   0.96337   0.92646   0.00000  Uiso   1.00
C373   C     0.40766   0.97098   0.76667   0.00000  Uiso   1.00
C374   C     0.33513   0.87952   0.20675   0.00000  Uiso   1.00
C375   C     0.36701   0.85788   0.27659   0.00000  Uiso   1.00
C376   C     0.36284   0.80480   0.29140   0.00000  Uiso   1.00
C377   C     0.37094   0.72064   0.34285   0.00000  Uiso   1.00
C378   C     0.27712   0.95366   0.19196   0.00000  Uiso   1.00
C379   C     0.26022   0.99435   0.24939   0.00000  Uiso   1.00
C380   C     0.20721   0.00368   0.25176   0.00000  Uiso   1.00
C381   C     0.12523   0.03463   0.28026   0.00000  Uiso   1.00
C382   C     0.26922   0.88087   0.08095   0.00000  Uiso   1.00
C383   C     0.30898   0.90831   0.01755   0.00000  Uiso   1.00
C384   C     0.31205   0.90495   0.91788   0.00000  Uiso   1.00
C385   C     0.35121   0.93300   0.87320   0.00000  Uiso   1.00
C386   C     0.30032   0.84920   0.15358   0.00000  Uiso   1.00
C387   C     0.29610   0.79614   0.16830   0.00000  Uiso   1.00
C388   C     0.32797   0.77443   0.23814   0.00000  Uiso   1.00
C389   C     0.24230   0.92334   0.13879   0.00000  Uiso   1.00
C390   C     0.18930   0.93260   0.14109   0.00000  Uiso   1.00
C391   C     0.17233   0.97331   0.19850   0.00000  Uiso   1.00
H392   H     0.36043   0.96028   0.22023   0.00000  Uiso   1.00
H393   H     0.40990   0.99015   0.06734   0.00000  Uiso   1.00
H394   H     0.39395   0.88135   0.31773   0.00000  Uiso   1.00
H395   H     0.28717   0.01780   0.29052   0.00000  Uiso   1.00
H396   H     0.44941   0.00987   0.87440   0.00000  Uiso   1.00
H397   H     0.41576   0.78048   0.40237   0.00000  Uiso   1.00
H398   H     0.19061   0.06820   0.34501   0.00000  Uiso   1.00
H399   H     0.24212   0.85727   0.03956   0.00000  Uiso   1.00
H400   H     0.28510   0.88149   0.87675   0.00000  Uiso   1.00
H401   H     0.26915   0.77269   0.12714   0.00000  Uiso   1.00
H402   H     0.16237   0.90914   0.09993   0.00000  Uiso   1.00
H403   H     0.34812   0.92168   0.71971   0.00000  Uiso   1.00
H404   H     0.31447   0.69229   0.24769   0.00000  Uiso   1.00
H405   H     0.08931   0.98001   0.19032   0.00000  Uiso   1.00
O406   O     0.42918   0.98355   0.69322   0.00000  Uiso   1.00
O407   O     0.38503   0.68260   0.38592   0.00000  Uiso   1.00
O408   O     0.08963   0.06008   0.31065   0.00000  Uiso   1.00
N409   N     0.41967   0.98580   0.86034   0.00000  Uiso   1.00
N410   N     0.38821   0.77133   0.35395   0.00000  Uiso   1.00
N411   N     0.17771   0.04032   0.30034   0.00000  Uiso   1.00
N412   N     0.36516   0.93835   0.77710   0.00000  Uiso   1.00
N413   N     0.33371   0.72388   0.27071   0.00000  Uiso   1.00
N414   N     0.12320   0.99286   0.21710   0.00000  Uiso   1.00
C415   C     0.83332   0.43668   0.67883   0.00000  Uiso   1.00
C416   C     0.84379   0.43863   0.57071   0.00000  Uiso   1.00
C417   C     0.88296   0.46670   0.52617   0.00000  Uiso   1.00
C418   C     0.88609   0.46337   0.42646   0.00000  Uiso   1.00
C419   C     0.90766   0.47098   0.26667   0.00000  Uiso   1.00
C420   C     0.83513   0.37952   0.70675   0.00000  Uiso   1.00
C421   C     0.86701   0.35788   0.77659   0.00000  Uiso   1.00
C422   C     0.86284   0.30480   0.79140   0.00000  Uiso   1.00
C423   C     0.87094   0.22064   0.84285   0.00000  Uiso   1.00
C424   C     0.77712   0.45366   0.69196   0.00000  Uiso   1.00
C425   C     0.76022   0.49435   0.74939   0.00000  Uiso   1.00
C426   C     0.70721   0.50368   0.75176   0.00000  Uiso   1.00
C427   C     0.62523   0.53463   0.78026   0.00000  Uiso   1.00
C428   C     0.76922   0.38087   0.58095   0.00000  Uiso   1.00
C429   C     0.80898   0.40831   0.51755   0.00000  Uiso   1.00
C430   C     0.81205   0.40495   0.41788   0.00000  Uiso   1.00
C431   C     0.85121   0.43300   0.37320   0.00000  Uiso   1.00
C432   C     0.80032   0.34920   0.65358   0.00000  Uiso   1.00
C433   C     0.79610   0.29614   0.66830   0.00000  Uiso   1.00
C434   C     0.82797   0.27443   0.73814   0.00000  Uiso   1.00
C435   C     0.74230   0.42334   0.63879   0.00000  Uiso   1.00
C436   C     0.68930   0.43260   0.64109   0.00000  Uiso   1.00
C437   C     0.67233   0.47331   0.69850   0.00000  Uiso   1.00
H438   H     0.86043   0.46028   0.72023   0.00000  Uiso   1.00
H439   H     0.90990   0.49015   0.56734   0.00000  Uiso   1.00
H440   H     0.89395   0.38135   0.81773   0.00000  Uiso   1.00
H441   H     0.78717   0.51780   0.79052   0.00000  Uiso   1.00
H442   H     0.94941   0.50987   0.37440   0.00000  Uiso   1.00
H443   H     0.91576   0.28048   0.90237   0.00000  Uiso   1.00
H444   H     0.69061   0.56820   0.84501   0.00000  Uiso   1.00
H445   H     0.74212   0.35727   0.53956   0.00000  Uiso   1.00
H446   H     0.78510   0.38149   0.37675   0.00000  Uiso   1.00
H447   H     0.76915   0.27269   0.62714   0.00000  Uiso   1.00
H448   H     0.66237   0.40914   0.59993   0.00000  Uiso   1.00
H449   H     0.84812   0.42168   0.21971   0.00000  Uiso   1.00
H450   H     0.81447   0.19229   0.74769   0.00000  Uiso   1.00
H451   H     0.58931   0.48001   0.69032   0.00000  Uiso   1.00
O452   O     0.92918   0.48355   0.19322   0.00000  Uiso   1.00
O453   O     0.88503   0.18260   0.88592   0.00000  Uiso   1.00
O454   O     0.58963   0.56008   0.81065   0.00000  Uiso   1.00
N455   N     0.91967   0.48580   0.36034   0.00000  Uiso   1.00
N456   N     0.88821   0.27133   0.85395   0.00000  Uiso   1.00
N457   N     0.67771   0.54032   0.80034   0.00000  Uiso   1.00
N458   N     0.86516   0.43835   0.27710   0.00000  Uiso   1.00
N459   N     0.83371   0.22388   0.77071   0.00000  Uiso   1.00
N460   N     0.62320   0.49286   0.71710   0.00000  Uiso   1.00
C461   C     0.16668   0.56332   0.67883   0.00000  Uiso   1.00
C462   C     0.15621   0.56137   0.57071   0.00000  Uiso   1.00
C463   C     0.11704   0.53330   0.52617   0.00000  Uiso   1.00
C464   C     0.11391   0.53663   0.42646   0.00000  Uiso   1.00
C465   C     0.09234   0.52902   0.26667   0.00000  Uiso   1.00
C466   C     0.16487   0.62048   0.70675   0.00000  Uiso   1.00
C467   C     0.13299   0.64212   0.77659   0.00000  Uiso   1.00
C468   C     0.13716   0.69520   0.79140   0.00000  Uiso   1.00
C469   C     0.12906   0.77936   0.84285   0.00000  Uiso   1.00
C470   C     0.22288   0.54634   0.69196   0.00000  Uiso   1.00
C471   C     0.23978   0.50565   0.74939   0.00000  Uiso   1.00
C472   C     0.29279   0.49632   0.75176   0.00000  Uiso   1.00
C473   C     0.37477   0.46537   0.78026   0.00000  Uiso   1.00
C474   C     0.23078   0.61913   0.58095   0.00000  Uiso   1.00
C475   C     0.19102   0.59169   0.51755   0.00000  Uiso   1.00
C476   C     0.18795   0.59505   0.41788   0.00000  Uiso   1.00
C477   C     0.14879   0.56700   0.37320   0.00000  Uiso   1.00
C478   C     0.19968   0.65080   0.65358   0.00000  Uiso   1.00
C479   C     0.20390   0.70386   0.66830   0.00000  Uiso   1.00
C480   C     0.17203   0.72557   0.73814   0.00000  Uiso   1.00
C481   C     0.25770   0.57666   0.63879   0.00000  Uiso   1.00
C482   C     0.31070   0.56740   0.64109   0.00000  Uiso   1.00
C483   C     0.32767   0.52669   0.69850   0.00000  Uiso   1.00
H484   H     0.13957   0.53972   0.72023   0.00000  Uiso   1.00
H485   H     0.09010   0.50985   0.56734   0.00000  Uiso   1.00
H486   H     0.10605   0.61865   0.81773   0.00000  Uiso   1.00
H487   H     0.21283   0.48220   0.79052   0.00000  Uiso   1.00
H488   H     0.05059   0.49013   0.37440   0.00000  Uiso   1.00
H489   H     0.08424   0.71952   0.90237   0.00000  Uiso   1.00
H490   H     0.30939   0.43180   0.84501   0.00000  Uiso   1.00
H491   H     0.25788   0.64273   0.53956   0.00000  Uiso   1.00
H492   H     0.21490   0.61851   0.37675   0.00000  Uiso   1.00
H493   H     0.23085   0.72731   0.62714   0.00000  Uiso   1.00
H494   H     0.33763   0.59086   0.59993   0.00000  Uiso   1.00
H495   H     0.15188   0.57832   0.21971   0.00000  Uiso   1.00
H496   H     0.18553   0.80771   0.74769   0.00000  Uiso   1.00
H497   H     0.41069   0.51999   0.69032   0.00000  Uiso   1.00
O498   O     0.07082   0.51645   0.19322   0.00000  Uiso   1.00
O499   O     0.11497   0.81740   0.88592   0.00000  Uiso   1.00
O500   O     0.41037   0.43992   0.81065   0.00000  Uiso   1.00
N501   N     0.08033   0.51420   0.36034   0.00000  Uiso   1.00
N502   N     0.11179   0.72867   0.85395   0.00000  Uiso   1.00
N503   N     0.32229   0.45968   0.80034   0.00000  Uiso   1.00
N504   N     0.13484   0.56165   0.27710   0.00000  Uiso   1.00
N505   N     0.16629   0.77612   0.77071   0.00000  Uiso   1.00
N506   N     0.37680   0.50714   0.71710   0.00000  Uiso   1.00
C507   C     0.66668   0.06332   0.17883   0.00000  Uiso   1.00
C508   C     0.65621   0.06137   0.07071   0.00000  Uiso   1.00
C509   C     0.61704   0.03330   0.02617   0.00000  Uiso   1.00
C510   C     0.61391   0.03663   0.92646   0.00000  Uiso   1.00
C511   C     0.59234   0.02902   0.76667   0.00000  Uiso   1.00
C512   C     0.66487   0.12048   0.20675   0.00000  Uiso   1.00
C513   C     0.63299   0.14212   0.27659   0.00000  Uiso   1.00
C514   C     0.63716   0.19520   0.29140   0.00000  Uiso   1.00
C515   C     0.62906   0.27936   0.34285   0.00000  Uiso   1.00
C516   C     0.72288   0.04634   0.19196   0.00000  Uiso   1.00
C517   C     0.73978   0.00565   0.24939   0.00000  Uiso   1.00
C518   C     0.79279   0.99632   0.25176   0.00000  Uiso   1.00
C519   C     0.87477   0.96537   0.28026   0.00000  Uiso   1.00
C520   C     0.73078   0.11913   0.08095   0.00000  Uiso   1.00
C521   C     0.69102   0.09169   0.01755   0.00000  Uiso   1.00
C522   C     0.68795   0.09505   0.91788   0.00000  Uiso   1.00
C523   C     0.64879   0.06700   0.87320   0.00000  Uiso   1.00
C524   C     0.69968   0.15080   0.15358   0.00000  Uiso   1.00
C525   C     0.70390   0.20386   0.16830   0.00000  Uiso   1.00
C526   C     0.67203   0.22557   0.23814   0.00000  Uiso   1.00
C527   C     0.75770   0.07666   0.13879   0.00000  Uiso   1.00
C528   C     0.81070   0.06740   0.14109   0.00000  Uiso   1.00
C529   C     0.82767   0.02669   0.19850   0.00000  Uiso   1.00
H530   H     0.63957   0.03972   0.22023   0.00000  Uiso   1.00
H531   H     0.59010   0.00985   0.06734   0.00000  Uiso   1.00
H532   H     0.60605   0.11865   0.31773   0.00000  Uiso   1.00
H533   H     0.71283   0.98220   0.29052   0.00000  Uiso   1.00
H534   H     0.55059   0.99013   0.87440   0.00000  Uiso   1.00
H535   H     0.58424   0.21952   0.40237   0.00000  Uiso   1.00
H536   H     0.80939   0.93180   0.34501   0.00000  Uiso   1.00
H537   H     0.75788   0.14273   0.03956   0.00000  Uiso   1.00
H538   H     0.71490   0.11851   0.87675   0.00000  Uiso   1.00
H539   H     0.73085   0.22731   0.12714   0.00000  Uiso   1.00
H540   H     0.83763   0.09086   0.09993   0.00000  Uiso   1.00
H541   H     0.65188   0.07832   0.71971   0.00000  Uiso   1.00
H542   H     0.68553   0.30771   0.24769   0.00000  Uiso   1.00
H543   H     0.91069   0.01999   0.19032   0.00000  Uiso   1.00
O544   O     0.57082   0.01645   0.69322   0.00000  Uiso   1.00
O545   O     0.61497   0.31740   0.38592   0.00000  Uiso   1.00
O546   O     0.91037   0.93992   0.31065   0.00000  Uiso   1.00
N547   N     0.58033   0.01420   0.86034   0.00000  Uiso   1.00
N548   N     0.61179   0.22867   0.35395   0.00000  Uiso   1.00
N549   N     0.82229   0.95968   0.30034   0.00000  Uiso   1.00
N550   N     0.63484   0.06165   0.77710   0.00000  Uiso   1.00
N551   N     0.66629   0.27612   0.27071   0.00000  Uiso   1.00
N552   N     0.87680   0.00714   0.21710   0.00000  Uiso   1.00
C553   C     0.56332   0.33332   0.92883   0.00000  Uiso   1.00
C554   C     0.56137   0.34379   0.82071   0.00000  Uiso   1.00
C555   C     0.53330   0.38296   0.77617   0.00000  Uiso   1.00
C556   C     0.53663   0.38609   0.67646   0.00000  Uiso   1.00
C557   C     0.52902   0.40766   0.51667   0.00000  Uiso   1.00
C558   C     0.62048   0.33513   0.95675   0.00000  Uiso   1.00
C559   C     0.64212   0.36701   0.02659   0.00000  Uiso   1.00
C560   C     0.69520   0.36284   0.04140   0.00000  Uiso   1.00
C561   C     0.77936   0.37094   0.09285   0.00000  Uiso   1.00
C562   C     0.54634   0.27712   0.94196   0.00000  Uiso   1.00
C563   C     0.50565   0.26022   0.99939   0.00000  Uiso   1.00
C564   C     0.49632   0.20721   0.00176   0.00000  Uiso   1.00
C565   C     0.46537   0.12523   0.03026   0.00000  Uiso   1.00
C566   C     0.61913   0.26922   0.83095   0.00000  Uiso   1.00
C567   C     0.59169   0.30898   0.76755   0.00000  Uiso   1.00
C568   C     0.59505   0.31205   0.66788   0.00000  Uiso   1.00
C569   C     0.56700   0.35121   0.62320   0.00000  Uiso   1.00
C570   C     0.65080   0.30032   0.90358   0.00000  Uiso   1.00
C571   C     0.70386   0.29610   0.91830   0.00000  Uiso   1.00
C572   C     0.72557   0.32797   0.98814   0.00000  Uiso   1.00
C573   C     0.57666   0.24230   0.88879   0.00000  Uiso   1.00
C574   C     0.56740   0.18930   0.89109   0.00000  Uiso   1.00
C575   C     0.52669   0.17233   0.94850   0.00000  Uiso   1.00
H576   H     0.53972   0.36043   0.97023   0.00000  Uiso   1.00
H577   H     0.50985   0.40990   0.81734   0.00000  Uiso   1.00
H578   H     0.61865   0.39395   0.06773   0.00000  Uiso   1.00
H579   H     0.48220   0.28717   0.04052   0.00000  Uiso   1.00
H580   H     0.49013   0.44941   0.62440   0.00000  Uiso   1.00
H581   H     0.71952   0.41576   0.15237   0.00000  Uiso   1.00
H582   H     0.43180   0.19061   0.09501   0.00000  Uiso   1.00
H583   H     0.64273   0.24212   0.78956   0.00000  Uiso   1.00
H584   H     0.61851   0.28510   0.62675   0.00000  Uiso   1.00
H585   H     0.72731   0.26915   0.87714   0.00000  Uiso   1.00
H586   H     0.59086   0.16237   0.84993   0.00000  Uiso   1.00
H587   H     0.57832   0.34812   0.46971   0.00000  Uiso   1.00
H588   H     0.80771   0.31447   0.99769   0.00000  Uiso   1.00
H589   H     0.51999   0.08931   0.94032   0.00000  Uiso   1.00
O590   O     0.51645   0.42918   0.44322   0.00000  Uiso   1.00
O591   O     0.81740   0.38503   0.13592   0.00000  Uiso   1.00
O592   O     0.43992   0.08963   0.06065   0.00000  Uiso   1.00
N593   N     0.51420   0.41967   0.61034   0.00000  Uiso   1.00
N594   N     0.72867   0.38821   0.10395   0.00000  Uiso   1.00
N595   N     0.45968   0.17771   0.05034   0.00000  Uiso   1.00
N596   N     0.56165   0.36516   0.52710   0.00000  Uiso   1.00
N597   N     0.77612   0.33371   0.02071   0.00000  Uiso   1.00
N598   N     0.50714   0.12320   0.96710   0.00000  Uiso   1.00
C599   C     0.06332   0.83332   0.42883   0.00000  Uiso   1.00
C600   C     0.06137   0.84379   0.32071   0.00000  Uiso   1.00
C601   C     0.03330   0.88296   0.27617   0.00000  Uiso   1.00
C602   C     0.03663   0.88609   0.17646   0.00000  Uiso   1.00
C603   C     0.02902   0.90766   0.01667   0.00000  Uiso   1.00
C604   C     0.12048   0.83513   0.45675   0.00000  Uiso   1.00
C605   C     0.14212   0.86701   0.52659   0.00000  Uiso   1.00
C606   C     0.19520   0.86284   0.54140   0.00000  Uiso   1.00
C607   C     0.27936   0.87094   0.59285   0.00000  Uiso   1.00
C608   C     0.04634   0.77712   0.44196   0.00000  Uiso   1.00
C609   C     0.00565   0.76022   0.49939   0.00000  Uiso   1.00
C610   C     0.99632   0.70721   0.50176   0.00000  Uiso   1.00
C611   C     0.96537   0.62523   0.53026   0.00000  Uiso   1.00
C612   C     0.11913   0.76922   0.33095   0.00000  Uiso   1.00
C613   C     0.09169   0.80898   0.26755   0.00000  Uiso   1.00
C614   C     0.09505   0.81205   0.16788   0.00000  Uiso   1.00
C615   C     0.06700   0.85121   0.12320   0.00000  Uiso   1.00
C616   C     0.15080   0.80032   0.40358   0.00000  Uiso   1.00
C617   C     0.20386   0.79610   0.41830   0.00000  Uiso   1.00
C618   C     0.22557   0.82797   0.48814   0.00000  Uiso   1.00
C619   C     0.07666   0.74230   0.38879   0.00000  Uiso   1.00
C620   C     0.06740   0.68930   0.39109   0.00000  Uiso   1.00
C621   C     0.02669   0.67233   0.44850   0.00000  Uiso   1.00
H622   H     0.03972   0.86043   0.47023   0.00000  Uiso   1.00
H623   H     0.00985   0.90990   0.31734   0.00000  Uiso   1.00
H624   H     0.11865   0.89395   0.56773   0.00000  Uiso   1.00
H625   H     0.98220   0.78717   0.54052   0.00000  Uiso   1.00
H626   H     0.99013   0.94941   0.12440   0.00000  Uiso   1.00
H627   H     0.21952   0.91576   0.65237   0.00000  Uiso   1.00
H628   H     0.93180   0.69061   0.59501   0.00000  Uiso   1.00
H629   H     0.14273   0.74212   0.28956   0.00000  Uiso   1.00
H630   H     0.11851   0.78510   0.12675   0.00000  Uiso   1.00
H631   H     0.22731   0.76915   0.37714   0.00000  Uiso   1.00
H632   H     0.09086   0.66237   0.34993   0.00000  Uiso   1.00
H633   H     0.07832   0.84812   0.96971   0.00000  Uiso   1.00
H634   H     0.30771   0.81447   0.49769   0.00000  Uiso   1.00
H635   H     0.01999   0.58931   0.44032   0.00000  Uiso   1.00
O636   O     0.01645   0.92918   0.94322   0.00000  Uiso   1.00
O637   O     0.31740   0.88503   0.63592   0.00000  Uiso   1.00
O638   O     0.93992   0.58963   0.56065   0.00000  Uiso   1.00
N639   N     0.01420   0.91967   0.11034   0.00000  Uiso   1.00
N640   N     0.22867   0.88821   0.60395   0.00000  Uiso   1.00
N641   N     0.95968   0.67771   0.55034   0.00000  Uiso   1.00
N642   N     0.06165   0.86516   0.02710   0.00000  Uiso   1.00
N643   N     0.27612   0.83371   0.52071   0.00000  Uiso   1.00
N644   N     0.00714   0.62320   0.46710   0.00000  Uiso   1.00
C645   C     0.93668   0.16668   0.42883   0.00000  Uiso   1.00
C646   C     0.93863   0.15621   0.32071   0.00000  Uiso   1.00
C647   C     0.96670   0.11704   0.27617   0.00000  Uiso   1.00
C648   C     0.96337   0.11391   0.17646   0.00000  Uiso   1.00
C649   C     0.97098   0.09234   0.01667   0.00000  Uiso   1.00
C650   C     0.87952   0.16487   0.45675   0.00000  Uiso   1.00
C651   C     0.85788   0.13299   0.52659   0.00000  Uiso   1.00
C652   C     0.80480   0.13716   0.54140   0.00000  Uiso   1.00
C653   C     0.72064   0.12906   0.59285   0.00000  Uiso   1.00
C654   C     0.95366   0.22288   0.44196   0.00000  Uiso   1.00
C655   C     0.99435   0.23978   0.49939   0.00000  Uiso   1.00
C656   C     0.00368   0.29279   0.50176   0.00000  Uiso   1.00
C657   C     0.03463   0.37477   0.53026   0.00000  Uiso   1.00
C658   C     0.88087   0.23078   0.33095   0.00000  Uiso   1.00
C659   C     0.90831   0.19102   0.26755   0.00000  Uiso   1.00
C660   C     0.90495   0.18795   0.16788   0.00000  Uiso   1.00
C661   C     0.93300   0.14879   0.12320   0.00000  Uiso   1.00
C662   C     0.84920   0.19968   0.40358   0.00000  Uiso   1.00
C663   C     0.79614   0.20390   0.41830   0.00000  Uiso   1.00
C664   C     0.77443   0.17203   0.48814   0.00000  Uiso   1.00
C665   C     0.92334   0.25770   0.38879   0.00000  Uiso   1.00
C666   C     0.93260   0.31070   0.39109   0.00000  Uiso   1.00
C667   C     0.97331   0.32767   0.44850   0.00000  Uiso   1.00
H668   H     0.96028   0.13957   0.47023   0.00000  Uiso   1.00
H669   H     0.99015   0.09010   0.31734   0.00000  Uiso   1.00
H670   H     0.88135   0.10605   0.56773   0.00000  Uiso   1.00
H671   H     0.01780   0.21283   0.54052   0.00000  Uiso   1.00
H672   H     0.00987   0.05059   0.12440   0.00000  Uiso   1.00
H673   H     0.78048   0.08424   0.65237   0.00000  Uiso   1.00
H674   H     0.06820   0.30939   0.59501   0.00000  Uiso   1.00
H675   H     0.85727   0.25788   0.28956   0.00000  Uiso   1.00
H676   H     0.88149   0.21490   0.12675   0.00000  Uiso   1.00
H677   H     0.77269   0.23085   0.37714   0.00000  Uiso   1.00
H678   H     0.90914   0.33763   0.34993   0.00000  Uiso   1.00
H679   H     0.92168   0.15188   0.96971   0.00000  Uiso   1.00
H680   H     0.69229   0.18553   0.49769   0.00000  Uiso   1.00
H681   H     0.98001   0.41069   0.44032   0.00000  Uiso   1.00
O682   O     0.98355   0.07082   0.94322   0.00000  Uiso   1.00
O683   O     0.68260   0.11497   0.63592   0.00000  Uiso   1.00
O684   O     0.06008   0.41037   0.56065   0.00000  Uiso   1.00
N685   N     0.98580   0.08033   0.11034   0.00000  Uiso   1.00
N686   N     0.77133   0.11179   0.60395   0.00000  Uiso   1.00
N687   N     0.04032   0.32229   0.55034   0.00000  Uiso   1.00
N688   N     0.93835   0.13484   0.02710   0.00000  Uiso   1.00
N689   N     0.72388   0.16629   0.52071   0.00000  Uiso   1.00
N690   N     0.99286   0.37680   0.46710   0.00000  Uiso   1.00
C691   C     0.43668   0.66668   0.92883   0.00000  Uiso   1.00
C692   C     0.43863   0.65621   0.82071   0.00000  Uiso   1.00
C693   C     0.46670   0.61704   0.77617   0.00000  Uiso   1.00
C694   C     0.46337   0.61391   0.67646   0.00000  Uiso   1.00
C695   C     0.47098   0.59234   0.51667   0.00000  Uiso   1.00
C696   C     0.37952   0.66487   0.95675   0.00000  Uiso   1.00
C697   C     0.35788   0.63299   0.02659   0.00000  Uiso   1.00
C698   C     0.30480   0.63716   0.04140   0.00000  Uiso   1.00
C699   C     0.22064   0.62906   0.09285   0.00000  Uiso   1.00
C700   C     0.45366   0.72288   0.94196   0.00000  Uiso   1.00
C701   C     0.49435   0.73978   0.99939   0.00000  Uiso   1.00
C702   C     0.50368   0.79279   0.00176   0.00000  Uiso   1.00
C703   C     0.53463   0.87477   0.03026   0.00000  Uiso   1.00
C704   C     0.38087   0.73078   0.83095   0.00000  Uiso   1.00
C705   C     0.40831   0.69102   0.76755   0.00000  Uiso   1.00
C706   C     0.40495   0.68795   0.66788   0.00000  Uiso   1.00
C707   C     0.43300   0.64879   0.62320   0.00000  Uiso   1.00
C708   C     0.34920   0.69968   0.90358   0.00000  Uiso   1.00
C709   C     0.29614   0.70390   0.91830   0.00000  Uiso   1.00
C710   C     0.27443   0.67203   0.98814   0.00000  Uiso   1.00
C711   C     0.42334   0.75770   0.88879   0.00000  Uiso   1.00
C712   C     0.43260   0.81070   0.89109   0.00000  Uiso   1.00
C713   C     0.47331   0.82767   0.94850   0.00000  Uiso   1.00
H714   H     0.46028   0.63957   0.97023   0.00000  Uiso   1.00
H715   H     0.49015   0.59010   0.81734   0.00000  Uiso   1.00
H716   H     0.38135   0.60605   0.06773   0.00000  Uiso   1.00
H717   H     0.51780   0.71283   0.04052   0.00000  Uiso   1.00
H718   H     0.50987   0.55059   0.62440   0.00000  Uiso   1.00
H719   H     0.28048   0.58424   0.15237   0.00000  Uiso   1.00
H720   H     0.56820   0.80939   0.09501   0.00000  Uiso   1.00
H721   H     0.35727   0.75788   0.78956   0.00000  Uiso   1.00
H722   H     0.38149   0.71490   0.62675   0.00000  Uiso   1.00
H723   H     0.27269   0.73085   0.87714   0.00000  Uiso   1.00
H724   H     0.40914   0.83763   0.84993   0.00000  Uiso   1.00
H725   H     0.42168   0.65188   0.46971   0.00000  Uiso   1.00
H726   H     0.19229   0.68553   0.99769   0.00000  Uiso   1.00
H727   H     0.48001   0.91069   0.94032   0.00000  Uiso   1.00
O728   O     0.48355   0.57082   0.44322   0.00000  Uiso   1.00
O729   O     0.18260   0.61497   0.13592   0.00000  Uiso   1.00
O730   O     0.56008   0.91037   0.06065   0.00000  Uiso   1.00
N731   N     0.48580   0.58033   0.61034   0.00000  Uiso   1.00
N732   N     0.27133   0.61179   0.10395   0.00000  Uiso   1.00
N733   N     0.54032   0.82229   0.05034   0.00000  Uiso   1.00
N734   N     0.43835   0.63484   0.52710   0.00000  Uiso   1.00
N735   N     0.22388   0.66629   0.02071   0.00000  Uiso   1.00
N736   N     0.49286   0.87680   0.96710   0.00000  Uiso   1.00
