data_job_03374
_audit_creation_date              2018-12-19
_audit_creation_method            'Materials Studio'
_symmetry_space_group_name_H-M    'P1'
_symmetry_Int_Tables_number       1
_symmetry_cell_setting            triclinic
loop_
_symmetry_equiv_pos_as_xyz
  x,y,z
_cell_length_a                    31.8051
_cell_length_b                    31.8051
_cell_length_c                    12.6447
_cell_angle_alpha                 90.0000
_cell_angle_beta                  90.0000
_cell_angle_gamma                 90.0000
loop_
_atom_site_label
_atom_site_type_symbol
_atom_site_fract_x
_atom_site_fract_y
_atom_site_fract_z
_atom_site_U_iso_or_equiv
_atom_site_adp_type
_atom_site_occupancy
C1     C     0.90605   0.35559   0.82142   0.00000  Uiso   1.00
C2     C     0.93968   0.34487   0.73982   0.00000  Uiso   1.00
C3     C     0.94704   0.36649   0.64631   0.00000  Uiso   1.00
C4     C     0.97927   0.35172   0.58226   0.00000  Uiso   1.00
C5     C     0.02784   0.34040   0.45119   0.00000  Uiso   1.00
C6     C     0.87955   0.31597   0.83449   0.00000  Uiso   1.00
C7     C     0.83635   0.31329   0.82058   0.00000  Uiso   1.00
C8     C     0.81797   0.27419   0.83625   0.00000  Uiso   1.00
C9     C     0.77317   0.21802   0.85222   0.00000  Uiso   1.00
C10    C     0.92917   0.36160   0.92598   0.00000  Uiso   1.00
C11    C     0.92768   0.39729   0.98902   0.00000  Uiso   1.00
C12    C     0.95106   0.39660   0.08173   0.00000  Uiso   1.00
C13    C     0.98331   0.41127   0.23975   0.00000  Uiso   1.00
C14    C     0.95021   0.29090   0.87399   0.00000  Uiso   1.00
C15    C     0.96367   0.30973   0.76837   0.00000  Uiso   1.00
C16    C     0.99590   0.29492   0.70446   0.00000  Uiso   1.00
C17    C     0.00331   0.31652   0.61087   0.00000  Uiso   1.00
C18    C     0.90354   0.28083   0.86304   0.00000  Uiso   1.00
C19    C     0.88521   0.24173   0.87874   0.00000  Uiso   1.00
C20    C     0.84200   0.23899   0.86485   0.00000  Uiso   1.00
C21    C     0.95316   0.32646   0.95453   0.00000  Uiso   1.00
C22    C     0.97655   0.32572   0.04717   0.00000  Uiso   1.00
C23    C     0.97510   0.36140   0.11033   0.00000  Uiso   1.00
H24    H     0.88737   0.38294   0.79920   0.00000  Uiso   1.00
H25    H     0.92846   0.39368   0.62423   0.00000  Uiso   1.00
H26    H     0.81779   0.34049   0.79850   0.00000  Uiso   1.00
H27    H     0.90911   0.42447   0.96690   0.00000  Uiso   1.00
H28    H     0.98460   0.39007   0.44283   0.00000  Uiso   1.00
H29    H     0.75124   0.27793   0.81030   0.00000  Uiso   1.00
H30    H     0.94380   0.45502   0.16542   0.00000  Uiso   1.00
H31    H     0.96889   0.26355   0.89622   0.00000  Uiso   1.00
H32    H     0.01446   0.26773   0.72657   0.00000  Uiso   1.00
H33    H     0.90379   0.21454   0.90084   0.00000  Uiso   1.00
H34    H     0.99511   0.29853   0.06924   0.00000  Uiso   1.00
H35    H     0.05439   0.28785   0.52589   0.00000  Uiso   1.00
H36    H     0.82103   0.17571   0.89337   0.00000  Uiso   1.00
H37    H     0.01360   0.35280   0.24848   0.00000  Uiso   1.00
O38    O     0.04799   0.34386   0.37099   0.00000  Uiso   1.00
O39    O     0.74184   0.19674   0.85313   0.00000  Uiso   1.00
O40    O     0.99447   0.42908   0.31902   0.00000  Uiso   1.00
N41    N     0.99478   0.36545   0.48566   0.00000  Uiso   1.00
N42    N     0.77660   0.26060   0.82922   0.00000  Uiso   1.00
N43    N     0.95662   0.42616   0.16123   0.00000  Uiso   1.00
N44    N     0.03233   0.31044   0.53036   0.00000  Uiso   1.00
N45    N     0.81416   0.20559   0.87391   0.00000  Uiso   1.00
N46    N     0.99418   0.37116   0.20593   0.00000  Uiso   1.00
C47    C     0.40605   0.85559   0.32142   0.00000  Uiso   1.00
C48    C     0.43968   0.84487   0.23982   0.00000  Uiso   1.00
C49    C     0.44704   0.86649   0.14631   0.00000  Uiso   1.00
C50    C     0.47927   0.85172   0.08226   0.00000  Uiso   1.00
C51    C     0.52784   0.84040   0.95119   0.00000  Uiso   1.00
C52    C     0.37955   0.81597   0.33449   0.00000  Uiso   1.00
C53    C     0.33635   0.81329   0.32058   0.00000  Uiso   1.00
C54    C     0.31797   0.77419   0.33625   0.00000  Uiso   1.00
C55    C     0.27317   0.71802   0.35222   0.00000  Uiso   1.00
C56    C     0.42917   0.86160   0.42598   0.00000  Uiso   1.00
C57    C     0.42768   0.89729   0.48902   0.00000  Uiso   1.00
C58    C     0.45106   0.89660   0.58173   0.00000  Uiso   1.00
C59    C     0.48331   0.91127   0.73975   0.00000  Uiso   1.00
C60    C     0.45021   0.79090   0.37399   0.00000  Uiso   1.00
C61    C     0.46367   0.80973   0.26837   0.00000  Uiso   1.00
C62    C     0.49590   0.79492   0.20446   0.00000  Uiso   1.00
C63    C     0.50331   0.81652   0.11087   0.00000  Uiso   1.00
C64    C     0.40354   0.78083   0.36304   0.00000  Uiso   1.00
C65    C     0.38521   0.74173   0.37874   0.00000  Uiso   1.00
C66    C     0.34200   0.73899   0.36485   0.00000  Uiso   1.00
C67    C     0.45316   0.82646   0.45453   0.00000  Uiso   1.00
C68    C     0.47655   0.82572   0.54717   0.00000  Uiso   1.00
C69    C     0.47510   0.86140   0.61033   0.00000  Uiso   1.00
H70    H     0.38737   0.88294   0.29920   0.00000  Uiso   1.00
H71    H     0.42846   0.89368   0.12423   0.00000  Uiso   1.00
H72    H     0.31779   0.84049   0.29850   0.00000  Uiso   1.00
H73    H     0.40911   0.92447   0.46690   0.00000  Uiso   1.00
H74    H     0.48460   0.89007   0.94283   0.00000  Uiso   1.00
H75    H     0.25124   0.77793   0.31030   0.00000  Uiso   1.00
H76    H     0.44380   0.95502   0.66542   0.00000  Uiso   1.00
H77    H     0.46889   0.76355   0.39622   0.00000  Uiso   1.00
H78    H     0.51446   0.76773   0.22657   0.00000  Uiso   1.00
H79    H     0.40379   0.71454   0.40084   0.00000  Uiso   1.00
H80    H     0.49511   0.79853   0.56924   0.00000  Uiso   1.00
H81    H     0.55439   0.78785   0.02589   0.00000  Uiso   1.00
H82    H     0.32103   0.67571   0.39337   0.00000  Uiso   1.00
H83    H     0.51360   0.85280   0.74848   0.00000  Uiso   1.00
O84    O     0.54799   0.84386   0.87099   0.00000  Uiso   1.00
O85    O     0.24184   0.69674   0.35313   0.00000  Uiso   1.00
O86    O     0.49447   0.92908   0.81902   0.00000  Uiso   1.00
N87    N     0.49478   0.86545   0.98566   0.00000  Uiso   1.00
N88    N     0.27660   0.76060   0.32922   0.00000  Uiso   1.00
N89    N     0.45662   0.92616   0.66123   0.00000  Uiso   1.00
N90    N     0.53233   0.81044   0.03036   0.00000  Uiso   1.00
N91    N     0.31416   0.70559   0.37391   0.00000  Uiso   1.00
N92    N     0.49418   0.87116   0.70593   0.00000  Uiso   1.00
C93    C     0.59395   0.14441   0.32142   0.00000  Uiso   1.00
C94    C     0.56032   0.15513   0.23982   0.00000  Uiso   1.00
C95    C     0.55296   0.13351   0.14631   0.00000  Uiso   1.00
C96    C     0.52073   0.14828   0.08226   0.00000  Uiso   1.00
C97    C     0.47216   0.15960   0.95119   0.00000  Uiso   1.00
C98    C     0.62045   0.18403   0.33449   0.00000  Uiso   1.00
C99    C     0.66365   0.18671   0.32058   0.00000  Uiso   1.00
C100   C     0.68203   0.22581   0.33625   0.00000  Uiso   1.00
C101   C     0.72683   0.28198   0.35222   0.00000  Uiso   1.00
C102   C     0.57083   0.13840   0.42598   0.00000  Uiso   1.00
C103   C     0.57232   0.10271   0.48902   0.00000  Uiso   1.00
C104   C     0.54894   0.10340   0.58173   0.00000  Uiso   1.00
C105   C     0.51669   0.08873   0.73975   0.00000  Uiso   1.00
C106   C     0.54979   0.20910   0.37399   0.00000  Uiso   1.00
C107   C     0.53633   0.19027   0.26837   0.00000  Uiso   1.00
C108   C     0.50410   0.20508   0.20446   0.00000  Uiso   1.00
C109   C     0.49669   0.18348   0.11087   0.00000  Uiso   1.00
C110   C     0.59646   0.21917   0.36304   0.00000  Uiso   1.00
C111   C     0.61479   0.25827   0.37874   0.00000  Uiso   1.00
C112   C     0.65800   0.26101   0.36485   0.00000  Uiso   1.00
C113   C     0.54684   0.17354   0.45453   0.00000  Uiso   1.00
C114   C     0.52345   0.17428   0.54717   0.00000  Uiso   1.00
C115   C     0.52490   0.13860   0.61033   0.00000  Uiso   1.00
H116   H     0.61263   0.11706   0.29920   0.00000  Uiso   1.00
H117   H     0.57154   0.10632   0.12423   0.00000  Uiso   1.00
H118   H     0.68221   0.15951   0.29850   0.00000  Uiso   1.00
H119   H     0.59089   0.07553   0.46690   0.00000  Uiso   1.00
H120   H     0.51540   0.10993   0.94283   0.00000  Uiso   1.00
H121   H     0.74876   0.22207   0.31030   0.00000  Uiso   1.00
H122   H     0.55620   0.04498   0.66542   0.00000  Uiso   1.00
H123   H     0.53111   0.23645   0.39622   0.00000  Uiso   1.00
H124   H     0.48554   0.23227   0.22657   0.00000  Uiso   1.00
H125   H     0.59621   0.28546   0.40084   0.00000  Uiso   1.00
H126   H     0.50489   0.20147   0.56924   0.00000  Uiso   1.00
H127   H     0.44561   0.21215   0.02589   0.00000  Uiso   1.00
H128   H     0.67897   0.32429   0.39337   0.00000  Uiso   1.00
H129   H     0.48640   0.14720   0.74848   0.00000  Uiso   1.00
O130   O     0.45201   0.15614   0.87099   0.00000  Uiso   1.00
O131   O     0.75816   0.30326   0.35313   0.00000  Uiso   1.00
O132   O     0.50553   0.07092   0.81902   0.00000  Uiso   1.00
N133   N     0.50522   0.13455   0.98566   0.00000  Uiso   1.00
N134   N     0.72340   0.23940   0.32922   0.00000  Uiso   1.00
N135   N     0.54338   0.07384   0.66123   0.00000  Uiso   1.00
N136   N     0.46767   0.18956   0.03036   0.00000  Uiso   1.00
N137   N     0.68584   0.29441   0.37391   0.00000  Uiso   1.00
N138   N     0.50582   0.12884   0.70593   0.00000  Uiso   1.00
C139   C     0.09395   0.64441   0.82142   0.00000  Uiso   1.00
C140   C     0.06032   0.65513   0.73982   0.00000  Uiso   1.00
C141   C     0.05296   0.63351   0.64631   0.00000  Uiso   1.00
C142   C     0.02073   0.64828   0.58226   0.00000  Uiso   1.00
C143   C     0.97216   0.65960   0.45119   0.00000  Uiso   1.00
C144   C     0.12045   0.68403   0.83449   0.00000  Uiso   1.00
C145   C     0.16365   0.68671   0.82058   0.00000  Uiso   1.00
C146   C     0.18203   0.72581   0.83625   0.00000  Uiso   1.00
C147   C     0.22683   0.78198   0.85222   0.00000  Uiso   1.00
C148   C     0.07083   0.63840   0.92598   0.00000  Uiso   1.00
C149   C     0.07232   0.60271   0.98902   0.00000  Uiso   1.00
C150   C     0.04894   0.60340   0.08173   0.00000  Uiso   1.00
C151   C     0.01669   0.58873   0.23975   0.00000  Uiso   1.00
C152   C     0.04979   0.70910   0.87399   0.00000  Uiso   1.00
C153   C     0.03633   0.69027   0.76837   0.00000  Uiso   1.00
C154   C     0.00410   0.70508   0.70446   0.00000  Uiso   1.00
C155   C     0.99669   0.68348   0.61087   0.00000  Uiso   1.00
C156   C     0.09646   0.71917   0.86304   0.00000  Uiso   1.00
C157   C     0.11479   0.75827   0.87874   0.00000  Uiso   1.00
C158   C     0.15800   0.76101   0.86485   0.00000  Uiso   1.00
C159   C     0.04684   0.67354   0.95453   0.00000  Uiso   1.00
C160   C     0.02345   0.67428   0.04717   0.00000  Uiso   1.00
C161   C     0.02490   0.63860   0.11033   0.00000  Uiso   1.00
H162   H     0.11263   0.61706   0.79920   0.00000  Uiso   1.00
H163   H     0.07154   0.60632   0.62423   0.00000  Uiso   1.00
H164   H     0.18221   0.65951   0.79850   0.00000  Uiso   1.00
H165   H     0.09089   0.57553   0.96690   0.00000  Uiso   1.00
H166   H     0.01540   0.60993   0.44283   0.00000  Uiso   1.00
H167   H     0.24876   0.72207   0.81030   0.00000  Uiso   1.00
H168   H     0.05620   0.54498   0.16542   0.00000  Uiso   1.00
H169   H     0.03111   0.73645   0.89622   0.00000  Uiso   1.00
H170   H     0.98554   0.73227   0.72657   0.00000  Uiso   1.00
H171   H     0.09621   0.78546   0.90084   0.00000  Uiso   1.00
H172   H     0.00489   0.70147   0.06924   0.00000  Uiso   1.00
H173   H     0.94561   0.71215   0.52589   0.00000  Uiso   1.00
H174   H     0.17897   0.82429   0.89337   0.00000  Uiso   1.00
H175   H     0.98640   0.64720   0.24848   0.00000  Uiso   1.00
O176   O     0.95201   0.65614   0.37099   0.00000  Uiso   1.00
O177   O     0.25816   0.80326   0.85313   0.00000  Uiso   1.00
O178   O     0.00553   0.57092   0.31902   0.00000  Uiso   1.00
N179   N     0.00522   0.63455   0.48566   0.00000  Uiso   1.00
N180   N     0.22340   0.73940   0.82922   0.00000  Uiso   1.00
N181   N     0.04338   0.57384   0.16123   0.00000  Uiso   1.00
N182   N     0.96767   0.68956   0.53036   0.00000  Uiso   1.00
N183   N     0.18584   0.79441   0.87391   0.00000  Uiso   1.00
N184   N     0.00582   0.62884   0.20593   0.00000  Uiso   1.00
C185   C     0.64441   0.40605   0.07142   0.00000  Uiso   1.00
C186   C     0.65513   0.43968   0.98982   0.00000  Uiso   1.00
C187   C     0.63351   0.44704   0.89631   0.00000  Uiso   1.00
C188   C     0.64828   0.47927   0.83226   0.00000  Uiso   1.00
C189   C     0.65960   0.52784   0.70119   0.00000  Uiso   1.00
C190   C     0.68403   0.37955   0.08449   0.00000  Uiso   1.00
C191   C     0.68671   0.33635   0.07058   0.00000  Uiso   1.00
C192   C     0.72581   0.31797   0.08625   0.00000  Uiso   1.00
C193   C     0.78198   0.27317   0.10222   0.00000  Uiso   1.00
C194   C     0.63840   0.42917   0.17598   0.00000  Uiso   1.00
C195   C     0.60271   0.42768   0.23902   0.00000  Uiso   1.00
C196   C     0.60340   0.45106   0.33173   0.00000  Uiso   1.00
C197   C     0.58873   0.48331   0.48975   0.00000  Uiso   1.00
C198   C     0.70910   0.45021   0.12399   0.00000  Uiso   1.00
C199   C     0.69027   0.46367   0.01837   0.00000  Uiso   1.00
C200   C     0.70508   0.49590   0.95446   0.00000  Uiso   1.00
C201   C     0.68348   0.50331   0.86087   0.00000  Uiso   1.00
C202   C     0.71917   0.40354   0.11304   0.00000  Uiso   1.00
C203   C     0.75827   0.38521   0.12874   0.00000  Uiso   1.00
C204   C     0.76101   0.34200   0.11485   0.00000  Uiso   1.00
C205   C     0.67354   0.45316   0.20453   0.00000  Uiso   1.00
C206   C     0.67428   0.47655   0.29717   0.00000  Uiso   1.00
C207   C     0.63860   0.47510   0.36033   0.00000  Uiso   1.00
H208   H     0.61706   0.38737   0.04920   0.00000  Uiso   1.00
H209   H     0.60632   0.42846   0.87423   0.00000  Uiso   1.00
H210   H     0.65951   0.31779   0.04850   0.00000  Uiso   1.00
H211   H     0.57553   0.40911   0.21690   0.00000  Uiso   1.00
H212   H     0.60993   0.48460   0.69283   0.00000  Uiso   1.00
H213   H     0.72207   0.25124   0.06030   0.00000  Uiso   1.00
H214   H     0.54498   0.44380   0.41542   0.00000  Uiso   1.00
H215   H     0.73645   0.46889   0.14622   0.00000  Uiso   1.00
H216   H     0.73227   0.51446   0.97657   0.00000  Uiso   1.00
H217   H     0.78546   0.40379   0.15084   0.00000  Uiso   1.00
H218   H     0.70147   0.49511   0.31924   0.00000  Uiso   1.00
H219   H     0.71215   0.55439   0.77589   0.00000  Uiso   1.00
H220   H     0.82429   0.32103   0.14337   0.00000  Uiso   1.00
H221   H     0.64720   0.51360   0.49848   0.00000  Uiso   1.00
O222   O     0.65614   0.54799   0.62099   0.00000  Uiso   1.00
O223   O     0.80326   0.24184   0.10313   0.00000  Uiso   1.00
O224   O     0.57092   0.49447   0.56902   0.00000  Uiso   1.00
N225   N     0.63455   0.49478   0.73566   0.00000  Uiso   1.00
N226   N     0.73940   0.27660   0.07922   0.00000  Uiso   1.00
N227   N     0.57384   0.45662   0.41123   0.00000  Uiso   1.00
N228   N     0.68956   0.53233   0.78036   0.00000  Uiso   1.00
N229   N     0.79441   0.31416   0.12391   0.00000  Uiso   1.00
N230   N     0.62884   0.49418   0.45593   0.00000  Uiso   1.00
C231   C     0.14441   0.90605   0.57142   0.00000  Uiso   1.00
C232   C     0.15513   0.93968   0.48982   0.00000  Uiso   1.00
C233   C     0.13351   0.94704   0.39631   0.00000  Uiso   1.00
C234   C     0.14828   0.97927   0.33226   0.00000  Uiso   1.00
C235   C     0.15960   0.02784   0.20119   0.00000  Uiso   1.00
C236   C     0.18403   0.87955   0.58449   0.00000  Uiso   1.00
C237   C     0.18671   0.83635   0.57058   0.00000  Uiso   1.00
C238   C     0.22581   0.81797   0.58625   0.00000  Uiso   1.00
C239   C     0.28198   0.77317   0.60222   0.00000  Uiso   1.00
C240   C     0.13840   0.92917   0.67598   0.00000  Uiso   1.00
C241   C     0.10271   0.92768   0.73902   0.00000  Uiso   1.00
C242   C     0.10340   0.95106   0.83173   0.00000  Uiso   1.00
C243   C     0.08873   0.98331   0.98975   0.00000  Uiso   1.00
C244   C     0.20910   0.95021   0.62399   0.00000  Uiso   1.00
C245   C     0.19027   0.96367   0.51837   0.00000  Uiso   1.00
C246   C     0.20508   0.99590   0.45446   0.00000  Uiso   1.00
C247   C     0.18348   0.00331   0.36087   0.00000  Uiso   1.00
C248   C     0.21917   0.90354   0.61304   0.00000  Uiso   1.00
C249   C     0.25827   0.88521   0.62874   0.00000  Uiso   1.00
C250   C     0.26101   0.84200   0.61485   0.00000  Uiso   1.00
C251   C     0.17354   0.95316   0.70453   0.00000  Uiso   1.00
C252   C     0.17428   0.97655   0.79717   0.00000  Uiso   1.00
C253   C     0.13860   0.97510   0.86033   0.00000  Uiso   1.00
H254   H     0.11706   0.88737   0.54920   0.00000  Uiso   1.00
H255   H     0.10632   0.92846   0.37423   0.00000  Uiso   1.00
H256   H     0.15951   0.81779   0.54850   0.00000  Uiso   1.00
H257   H     0.07553   0.90911   0.71690   0.00000  Uiso   1.00
H258   H     0.10993   0.98460   0.19283   0.00000  Uiso   1.00
H259   H     0.22207   0.75124   0.56030   0.00000  Uiso   1.00
H260   H     0.04498   0.94380   0.91542   0.00000  Uiso   1.00
H261   H     0.23645   0.96889   0.64622   0.00000  Uiso   1.00
H262   H     0.23227   0.01446   0.47657   0.00000  Uiso   1.00
H263   H     0.28546   0.90379   0.65084   0.00000  Uiso   1.00
H264   H     0.20147   0.99511   0.81924   0.00000  Uiso   1.00
H265   H     0.21215   0.05439   0.27589   0.00000  Uiso   1.00
H266   H     0.32429   0.82103   0.64337   0.00000  Uiso   1.00
H267   H     0.14720   0.01360   0.99848   0.00000  Uiso   1.00
O268   O     0.15614   0.04799   0.12099   0.00000  Uiso   1.00
O269   O     0.30326   0.74184   0.60313   0.00000  Uiso   1.00
O270   O     0.07092   0.99447   0.06902   0.00000  Uiso   1.00
N271   N     0.13455   0.99478   0.23566   0.00000  Uiso   1.00
N272   N     0.23940   0.77660   0.57922   0.00000  Uiso   1.00
N273   N     0.07384   0.95662   0.91123   0.00000  Uiso   1.00
N274   N     0.18956   0.03233   0.28036   0.00000  Uiso   1.00
N275   N     0.29441   0.81416   0.62391   0.00000  Uiso   1.00
N276   N     0.12884   0.99418   0.95593   0.00000  Uiso   1.00
C277   C     0.85559   0.09395   0.57142   0.00000  Uiso   1.00
C278   C     0.84487   0.06032   0.48982   0.00000  Uiso   1.00
C279   C     0.86649   0.05296   0.39631   0.00000  Uiso   1.00
C280   C     0.85172   0.02073   0.33226   0.00000  Uiso   1.00
C281   C     0.84040   0.97216   0.20119   0.00000  Uiso   1.00
C282   C     0.81597   0.12045   0.58449   0.00000  Uiso   1.00
C283   C     0.81329   0.16365   0.57058   0.00000  Uiso   1.00
C284   C     0.77419   0.18203   0.58625   0.00000  Uiso   1.00
C285   C     0.71802   0.22683   0.60222   0.00000  Uiso   1.00
C286   C     0.86160   0.07083   0.67598   0.00000  Uiso   1.00
C287   C     0.89729   0.07232   0.73902   0.00000  Uiso   1.00
C288   C     0.89660   0.04894   0.83173   0.00000  Uiso   1.00
C289   C     0.91127   0.01669   0.98975   0.00000  Uiso   1.00
C290   C     0.79090   0.04979   0.62399   0.00000  Uiso   1.00
C291   C     0.80973   0.03633   0.51837   0.00000  Uiso   1.00
C292   C     0.79492   0.00410   0.45446   0.00000  Uiso   1.00
C293   C     0.81652   0.99669   0.36087   0.00000  Uiso   1.00
C294   C     0.78083   0.09646   0.61304   0.00000  Uiso   1.00
C295   C     0.74173   0.11479   0.62874   0.00000  Uiso   1.00
C296   C     0.73899   0.15800   0.61485   0.00000  Uiso   1.00
C297   C     0.82646   0.04684   0.70453   0.00000  Uiso   1.00
C298   C     0.82572   0.02345   0.79717   0.00000  Uiso   1.00
C299   C     0.86140   0.02490   0.86033   0.00000  Uiso   1.00
H300   H     0.88294   0.11263   0.54920   0.00000  Uiso   1.00
H301   H     0.89368   0.07154   0.37423   0.00000  Uiso   1.00
H302   H     0.84049   0.18221   0.54850   0.00000  Uiso   1.00
H303   H     0.92447   0.09089   0.71690   0.00000  Uiso   1.00
H304   H     0.89007   0.01540   0.19283   0.00000  Uiso   1.00
H305   H     0.77793   0.24876   0.56030   0.00000  Uiso   1.00
H306   H     0.95502   0.05620   0.91542   0.00000  Uiso   1.00
H307   H     0.76355   0.03111   0.64622   0.00000  Uiso   1.00
H308   H     0.76773   0.98554   0.47657   0.00000  Uiso   1.00
H309   H     0.71454   0.09621   0.65084   0.00000  Uiso   1.00
H310   H     0.79853   0.00489   0.81924   0.00000  Uiso   1.00
H311   H     0.78785   0.94561   0.27589   0.00000  Uiso   1.00
H312   H     0.67571   0.17897   0.64337   0.00000  Uiso   1.00
H313   H     0.85280   0.98640   0.99848   0.00000  Uiso   1.00
O314   O     0.84386   0.95201   0.12099   0.00000  Uiso   1.00
O315   O     0.69674   0.25816   0.60313   0.00000  Uiso   1.00
O316   O     0.92908   0.00553   0.06902   0.00000  Uiso   1.00
N317   N     0.86545   0.00522   0.23566   0.00000  Uiso   1.00
N318   N     0.76060   0.22340   0.57922   0.00000  Uiso   1.00
N319   N     0.92616   0.04338   0.91123   0.00000  Uiso   1.00
N320   N     0.81044   0.96767   0.28036   0.00000  Uiso   1.00
N321   N     0.70559   0.18584   0.62391   0.00000  Uiso   1.00
N322   N     0.87116   0.00582   0.95593   0.00000  Uiso   1.00
C323   C     0.35559   0.59395   0.07142   0.00000  Uiso   1.00
C324   C     0.34487   0.56032   0.98982   0.00000  Uiso   1.00
C325   C     0.36649   0.55296   0.89631   0.00000  Uiso   1.00
C326   C     0.35172   0.52073   0.83226   0.00000  Uiso   1.00
C327   C     0.34040   0.47216   0.70119   0.00000  Uiso   1.00
C328   C     0.31597   0.62045   0.08449   0.00000  Uiso   1.00
C329   C     0.31329   0.66365   0.07058   0.00000  Uiso   1.00
C330   C     0.27419   0.68203   0.08625   0.00000  Uiso   1.00
C331   C     0.21802   0.72683   0.10222   0.00000  Uiso   1.00
C332   C     0.36160   0.57083   0.17598   0.00000  Uiso   1.00
C333   C     0.39729   0.57232   0.23902   0.00000  Uiso   1.00
C334   C     0.39660   0.54894   0.33173   0.00000  Uiso   1.00
C335   C     0.41127   0.51669   0.48975   0.00000  Uiso   1.00
C336   C     0.29090   0.54979   0.12399   0.00000  Uiso   1.00
C337   C     0.30973   0.53633   0.01837   0.00000  Uiso   1.00
C338   C     0.29492   0.50410   0.95446   0.00000  Uiso   1.00
C339   C     0.31652   0.49669   0.86087   0.00000  Uiso   1.00
C340   C     0.28083   0.59646   0.11304   0.00000  Uiso   1.00
C341   C     0.24173   0.61479   0.12874   0.00000  Uiso   1.00
C342   C     0.23899   0.65800   0.11485   0.00000  Uiso   1.00
C343   C     0.32646   0.54684   0.20453   0.00000  Uiso   1.00
C344   C     0.32572   0.52345   0.29717   0.00000  Uiso   1.00
C345   C     0.36140   0.52490   0.36033   0.00000  Uiso   1.00
H346   H     0.38294   0.61263   0.04920   0.00000  Uiso   1.00
H347   H     0.39368   0.57154   0.87423   0.00000  Uiso   1.00
H348   H     0.34049   0.68221   0.04850   0.00000  Uiso   1.00
H349   H     0.42447   0.59089   0.21690   0.00000  Uiso   1.00
H350   H     0.39007   0.51540   0.69283   0.00000  Uiso   1.00
H351   H     0.27793   0.74876   0.06030   0.00000  Uiso   1.00
H352   H     0.45502   0.55620   0.41542   0.00000  Uiso   1.00
H353   H     0.26355   0.53111   0.14622   0.00000  Uiso   1.00
H354   H     0.26773   0.48554   0.97657   0.00000  Uiso   1.00
H355   H     0.21454   0.59621   0.15084   0.00000  Uiso   1.00
H356   H     0.29853   0.50489   0.31924   0.00000  Uiso   1.00
H357   H     0.28785   0.44561   0.77589   0.00000  Uiso   1.00
H358   H     0.17571   0.67897   0.14337   0.00000  Uiso   1.00
H359   H     0.35280   0.48640   0.49848   0.00000  Uiso   1.00
O360   O     0.34386   0.45201   0.62099   0.00000  Uiso   1.00
O361   O     0.19674   0.75816   0.10313   0.00000  Uiso   1.00
O362   O     0.42908   0.50553   0.56902   0.00000  Uiso   1.00
N363   N     0.36545   0.50522   0.73566   0.00000  Uiso   1.00
N364   N     0.26060   0.72340   0.07922   0.00000  Uiso   1.00
N365   N     0.42616   0.54338   0.41123   0.00000  Uiso   1.00
N366   N     0.31044   0.46767   0.78036   0.00000  Uiso   1.00
N367   N     0.20559   0.68584   0.12391   0.00000  Uiso   1.00
N368   N     0.37116   0.50582   0.45593   0.00000  Uiso   1.00
C369   C     0.09395   0.14441   0.42858   0.00000  Uiso   1.00
C370   C     0.06032   0.15513   0.51018   0.00000  Uiso   1.00
C371   C     0.05296   0.13351   0.60369   0.00000  Uiso   1.00
C372   C     0.02073   0.14828   0.66774   0.00000  Uiso   1.00
C373   C     0.97216   0.15960   0.79881   0.00000  Uiso   1.00
C374   C     0.12045   0.18403   0.41551   0.00000  Uiso   1.00
C375   C     0.16365   0.18671   0.42942   0.00000  Uiso   1.00
C376   C     0.18203   0.22581   0.41375   0.00000  Uiso   1.00
C377   C     0.22683   0.28198   0.39778   0.00000  Uiso   1.00
C378   C     0.07083   0.13840   0.32402   0.00000  Uiso   1.00
C379   C     0.07232   0.10271   0.26098   0.00000  Uiso   1.00
C380   C     0.04894   0.10340   0.16827   0.00000  Uiso   1.00
C381   C     0.01669   0.08873   0.01025   0.00000  Uiso   1.00
C382   C     0.04979   0.20910   0.37601   0.00000  Uiso   1.00
C383   C     0.03633   0.19027   0.48163   0.00000  Uiso   1.00
C384   C     0.00410   0.20508   0.54554   0.00000  Uiso   1.00
C385   C     0.99669   0.18348   0.63913   0.00000  Uiso   1.00
C386   C     0.09646   0.21917   0.38696   0.00000  Uiso   1.00
C387   C     0.11479   0.25827   0.37126   0.00000  Uiso   1.00
C388   C     0.15800   0.26101   0.38515   0.00000  Uiso   1.00
C389   C     0.04684   0.17354   0.29547   0.00000  Uiso   1.00
C390   C     0.02345   0.17428   0.20283   0.00000  Uiso   1.00
C391   C     0.02490   0.13860   0.13967   0.00000  Uiso   1.00
H392   H     0.11263   0.11706   0.45080   0.00000  Uiso   1.00
H393   H     0.07154   0.10632   0.62577   0.00000  Uiso   1.00
H394   H     0.18221   0.15951   0.45150   0.00000  Uiso   1.00
H395   H     0.09089   0.07553   0.28310   0.00000  Uiso   1.00
H396   H     0.01540   0.10993   0.80717   0.00000  Uiso   1.00
H397   H     0.24876   0.22207   0.43970   0.00000  Uiso   1.00
H398   H     0.05620   0.04498   0.08458   0.00000  Uiso   1.00
H399   H     0.03111   0.23645   0.35378   0.00000  Uiso   1.00
H400   H     0.98554   0.23227   0.52343   0.00000  Uiso   1.00
H401   H     0.09621   0.28546   0.34916   0.00000  Uiso   1.00
H402   H     0.00489   0.20147   0.18076   0.00000  Uiso   1.00
H403   H     0.94561   0.21215   0.72411   0.00000  Uiso   1.00
H404   H     0.17897   0.32429   0.35663   0.00000  Uiso   1.00
H405   H     0.98640   0.14720   0.00152   0.00000  Uiso   1.00
O406   O     0.95201   0.15614   0.87901   0.00000  Uiso   1.00
O407   O     0.25816   0.30326   0.39687   0.00000  Uiso   1.00
O408   O     0.00553   0.07092   0.93098   0.00000  Uiso   1.00
N409   N     0.00522   0.13455   0.76434   0.00000  Uiso   1.00
N410   N     0.22340   0.23940   0.42078   0.00000  Uiso   1.00
N411   N     0.04338   0.07384   0.08877   0.00000  Uiso   1.00
N412   N     0.96767   0.18956   0.71964   0.00000  Uiso   1.00
N413   N     0.18584   0.29441   0.37609   0.00000  Uiso   1.00
N414   N     0.00582   0.12884   0.04407   0.00000  Uiso   1.00
C415   C     0.59395   0.64441   0.92858   0.00000  Uiso   1.00
C416   C     0.56032   0.65513   0.01018   0.00000  Uiso   1.00
C417   C     0.55296   0.63351   0.10369   0.00000  Uiso   1.00
C418   C     0.52073   0.64828   0.16774   0.00000  Uiso   1.00
C419   C     0.47216   0.65960   0.29881   0.00000  Uiso   1.00
C420   C     0.62045   0.68403   0.91551   0.00000  Uiso   1.00
C421   C     0.66365   0.68671   0.92942   0.00000  Uiso   1.00
C422   C     0.68203   0.72581   0.91375   0.00000  Uiso   1.00
C423   C     0.72683   0.78198   0.89778   0.00000  Uiso   1.00
C424   C     0.57083   0.63840   0.82402   0.00000  Uiso   1.00
C425   C     0.57232   0.60271   0.76098   0.00000  Uiso   1.00
C426   C     0.54894   0.60340   0.66827   0.00000  Uiso   1.00
C427   C     0.51669   0.58873   0.51025   0.00000  Uiso   1.00
C428   C     0.54979   0.70910   0.87601   0.00000  Uiso   1.00
C429   C     0.53633   0.69027   0.98163   0.00000  Uiso   1.00
C430   C     0.50410   0.70508   0.04554   0.00000  Uiso   1.00
C431   C     0.49669   0.68348   0.13913   0.00000  Uiso   1.00
C432   C     0.59646   0.71917   0.88696   0.00000  Uiso   1.00
C433   C     0.61479   0.75827   0.87126   0.00000  Uiso   1.00
C434   C     0.65800   0.76101   0.88515   0.00000  Uiso   1.00
C435   C     0.54684   0.67354   0.79547   0.00000  Uiso   1.00
C436   C     0.52345   0.67428   0.70283   0.00000  Uiso   1.00
C437   C     0.52490   0.63860   0.63967   0.00000  Uiso   1.00
H438   H     0.61263   0.61706   0.95080   0.00000  Uiso   1.00
H439   H     0.57154   0.60632   0.12577   0.00000  Uiso   1.00
H440   H     0.68221   0.65951   0.95150   0.00000  Uiso   1.00
H441   H     0.59089   0.57553   0.78310   0.00000  Uiso   1.00
H442   H     0.51540   0.60993   0.30717   0.00000  Uiso   1.00
H443   H     0.74876   0.72207   0.93970   0.00000  Uiso   1.00
H444   H     0.55620   0.54498   0.58458   0.00000  Uiso   1.00
H445   H     0.53111   0.73645   0.85378   0.00000  Uiso   1.00
H446   H     0.48554   0.73227   0.02343   0.00000  Uiso   1.00
H447   H     0.59621   0.78546   0.84916   0.00000  Uiso   1.00
H448   H     0.50489   0.70147   0.68076   0.00000  Uiso   1.00
H449   H     0.44561   0.71215   0.22411   0.00000  Uiso   1.00
H450   H     0.67897   0.82429   0.85663   0.00000  Uiso   1.00
H451   H     0.48640   0.64720   0.50152   0.00000  Uiso   1.00
O452   O     0.45201   0.65614   0.37901   0.00000  Uiso   1.00
O453   O     0.75816   0.80326   0.89687   0.00000  Uiso   1.00
O454   O     0.50553   0.57092   0.43098   0.00000  Uiso   1.00
N455   N     0.50522   0.63455   0.26434   0.00000  Uiso   1.00
N456   N     0.72340   0.73940   0.92078   0.00000  Uiso   1.00
N457   N     0.54338   0.57384   0.58877   0.00000  Uiso   1.00
N458   N     0.46767   0.68956   0.21964   0.00000  Uiso   1.00
N459   N     0.68584   0.79441   0.87609   0.00000  Uiso   1.00
N460   N     0.50582   0.62884   0.54407   0.00000  Uiso   1.00
C461   C     0.40605   0.35559   0.92858   0.00000  Uiso   1.00
C462   C     0.43968   0.34487   0.01018   0.00000  Uiso   1.00
C463   C     0.44704   0.36649   0.10369   0.00000  Uiso   1.00
C464   C     0.47927   0.35172   0.16774   0.00000  Uiso   1.00
C465   C     0.52784   0.34040   0.29881   0.00000  Uiso   1.00
C466   C     0.37955   0.31597   0.91551   0.00000  Uiso   1.00
C467   C     0.33635   0.31329   0.92942   0.00000  Uiso   1.00
C468   C     0.31797   0.27419   0.91375   0.00000  Uiso   1.00
C469   C     0.27317   0.21802   0.89778   0.00000  Uiso   1.00
C470   C     0.42917   0.36160   0.82402   0.00000  Uiso   1.00
C471   C     0.42768   0.39729   0.76098   0.00000  Uiso   1.00
C472   C     0.45106   0.39660   0.66827   0.00000  Uiso   1.00
C473   C     0.48331   0.41127   0.51025   0.00000  Uiso   1.00
C474   C     0.45021   0.29090   0.87601   0.00000  Uiso   1.00
C475   C     0.46367   0.30973   0.98163   0.00000  Uiso   1.00
C476   C     0.49590   0.29492   0.04554   0.00000  Uiso   1.00
C477   C     0.50331   0.31652   0.13913   0.00000  Uiso   1.00
C478   C     0.40354   0.28083   0.88696   0.00000  Uiso   1.00
C479   C     0.38521   0.24173   0.87126   0.00000  Uiso   1.00
C480   C     0.34200   0.23899   0.88515   0.00000  Uiso   1.00
C481   C     0.45316   0.32646   0.79547   0.00000  Uiso   1.00
C482   C     0.47655   0.32572   0.70283   0.00000  Uiso   1.00
C483   C     0.47510   0.36140   0.63967   0.00000  Uiso   1.00
H484   H     0.38737   0.38294   0.95080   0.00000  Uiso   1.00
H485   H     0.42846   0.39368   0.12577   0.00000  Uiso   1.00
H486   H     0.31779   0.34049   0.95150   0.00000  Uiso   1.00
H487   H     0.40911   0.42447   0.78310   0.00000  Uiso   1.00
H488   H     0.48460   0.39007   0.30717   0.00000  Uiso   1.00
H489   H     0.25124   0.27793   0.93970   0.00000  Uiso   1.00
H490   H     0.44380   0.45502   0.58458   0.00000  Uiso   1.00
H491   H     0.46889   0.26355   0.85378   0.00000  Uiso   1.00
H492   H     0.51446   0.26773   0.02343   0.00000  Uiso   1.00
H493   H     0.40379   0.21454   0.84916   0.00000  Uiso   1.00
H494   H     0.49511   0.29853   0.68076   0.00000  Uiso   1.00
H495   H     0.55439   0.28785   0.22411   0.00000  Uiso   1.00
H496   H     0.32103   0.17571   0.85663   0.00000  Uiso   1.00
H497   H     0.51360   0.35280   0.50152   0.00000  Uiso   1.00
O498   O     0.54799   0.34386   0.37901   0.00000  Uiso   1.00
O499   O     0.24184   0.19674   0.89687   0.00000  Uiso   1.00
O500   O     0.49447   0.42908   0.43098   0.00000  Uiso   1.00
N501   N     0.49478   0.36545   0.26434   0.00000  Uiso   1.00
N502   N     0.27660   0.26060   0.92078   0.00000  Uiso   1.00
N503   N     0.45662   0.42616   0.58877   0.00000  Uiso   1.00
N504   N     0.53233   0.31044   0.21964   0.00000  Uiso   1.00
N505   N     0.31416   0.20559   0.87609   0.00000  Uiso   1.00
N506   N     0.49418   0.37116   0.54407   0.00000  Uiso   1.00
C507   C     0.90605   0.85559   0.42858   0.00000  Uiso   1.00
C508   C     0.93968   0.84487   0.51018   0.00000  Uiso   1.00
C509   C     0.94704   0.86649   0.60369   0.00000  Uiso   1.00
C510   C     0.97927   0.85172   0.66774   0.00000  Uiso   1.00
C511   C     0.02784   0.84040   0.79881   0.00000  Uiso   1.00
C512   C     0.87955   0.81597   0.41551   0.00000  Uiso   1.00
C513   C     0.83635   0.81329   0.42942   0.00000  Uiso   1.00
C514   C     0.81797   0.77419   0.41375   0.00000  Uiso   1.00
C515   C     0.77317   0.71802   0.39778   0.00000  Uiso   1.00
C516   C     0.92917   0.86160   0.32402   0.00000  Uiso   1.00
C517   C     0.92768   0.89729   0.26098   0.00000  Uiso   1.00
C518   C     0.95106   0.89660   0.16827   0.00000  Uiso   1.00
C519   C     0.98331   0.91127   0.01025   0.00000  Uiso   1.00
C520   C     0.95021   0.79090   0.37601   0.00000  Uiso   1.00
C521   C     0.96367   0.80973   0.48163   0.00000  Uiso   1.00
C522   C     0.99590   0.79492   0.54554   0.00000  Uiso   1.00
C523   C     0.00331   0.81652   0.63913   0.00000  Uiso   1.00
C524   C     0.90354   0.78083   0.38696   0.00000  Uiso   1.00
C525   C     0.88521   0.74173   0.37126   0.00000  Uiso   1.00
C526   C     0.84200   0.73899   0.38515   0.00000  Uiso   1.00
C527   C     0.95316   0.82646   0.29547   0.00000  Uiso   1.00
C528   C     0.97655   0.82572   0.20283   0.00000  Uiso   1.00
C529   C     0.97510   0.86140   0.13967   0.00000  Uiso   1.00
H530   H     0.88737   0.88294   0.45080   0.00000  Uiso   1.00
H531   H     0.92846   0.89368   0.62577   0.00000  Uiso   1.00
H532   H     0.81779   0.84049   0.45150   0.00000  Uiso   1.00
H533   H     0.90911   0.92447   0.28310   0.00000  Uiso   1.00
H534   H     0.98460   0.89007   0.80717   0.00000  Uiso   1.00
H535   H     0.75124   0.77793   0.43970   0.00000  Uiso   1.00
H536   H     0.94380   0.95502   0.08458   0.00000  Uiso   1.00
H537   H     0.96889   0.76355   0.35378   0.00000  Uiso   1.00
H538   H     0.01446   0.76773   0.52343   0.00000  Uiso   1.00
H539   H     0.90379   0.71454   0.34916   0.00000  Uiso   1.00
H540   H     0.99511   0.79853   0.18076   0.00000  Uiso   1.00
H541   H     0.05439   0.78785   0.72411   0.00000  Uiso   1.00
H542   H     0.82103   0.67571   0.35663   0.00000  Uiso   1.00
H543   H     0.01360   0.85280   0.00152   0.00000  Uiso   1.00
O544   O     0.04799   0.84386   0.87901   0.00000  Uiso   1.00
O545   O     0.74184   0.69674   0.39687   0.00000  Uiso   1.00
O546   O     0.99447   0.92908   0.93098   0.00000  Uiso   1.00
N547   N     0.99478   0.86545   0.76434   0.00000  Uiso   1.00
N548   N     0.77660   0.76060   0.42078   0.00000  Uiso   1.00
N549   N     0.95662   0.92616   0.08877   0.00000  Uiso   1.00
N550   N     0.03233   0.81044   0.71964   0.00000  Uiso   1.00
N551   N     0.81416   0.70559   0.37609   0.00000  Uiso   1.00
N552   N     0.99418   0.87116   0.04407   0.00000  Uiso   1.00
C553   C     0.35559   0.09395   0.17858   0.00000  Uiso   1.00
C554   C     0.34487   0.06032   0.26018   0.00000  Uiso   1.00
C555   C     0.36649   0.05296   0.35369   0.00000  Uiso   1.00
C556   C     0.35172   0.02073   0.41774   0.00000  Uiso   1.00
C557   C     0.34040   0.97216   0.54881   0.00000  Uiso   1.00
C558   C     0.31597   0.12045   0.16551   0.00000  Uiso   1.00
C559   C     0.31329   0.16365   0.17942   0.00000  Uiso   1.00
C560   C     0.27419   0.18203   0.16375   0.00000  Uiso   1.00
C561   C     0.21802   0.22683   0.14778   0.00000  Uiso   1.00
C562   C     0.36160   0.07083   0.07402   0.00000  Uiso   1.00
C563   C     0.39729   0.07232   0.01098   0.00000  Uiso   1.00
C564   C     0.39660   0.04894   0.91827   0.00000  Uiso   1.00
C565   C     0.41127   0.01669   0.76025   0.00000  Uiso   1.00
C566   C     0.29090   0.04979   0.12601   0.00000  Uiso   1.00
C567   C     0.30973   0.03633   0.23163   0.00000  Uiso   1.00
C568   C     0.29492   0.00410   0.29554   0.00000  Uiso   1.00
C569   C     0.31652   0.99669   0.38913   0.00000  Uiso   1.00
C570   C     0.28083   0.09646   0.13696   0.00000  Uiso   1.00
C571   C     0.24173   0.11479   0.12126   0.00000  Uiso   1.00
C572   C     0.23899   0.15800   0.13515   0.00000  Uiso   1.00
C573   C     0.32646   0.04684   0.04547   0.00000  Uiso   1.00
C574   C     0.32572   0.02345   0.95283   0.00000  Uiso   1.00
C575   C     0.36140   0.02490   0.88967   0.00000  Uiso   1.00
H576   H     0.38294   0.11263   0.20080   0.00000  Uiso   1.00
H577   H     0.39368   0.07154   0.37577   0.00000  Uiso   1.00
H578   H     0.34049   0.18221   0.20150   0.00000  Uiso   1.00
H579   H     0.42447   0.09089   0.03310   0.00000  Uiso   1.00
H580   H     0.39007   0.01540   0.55717   0.00000  Uiso   1.00
H581   H     0.27793   0.24876   0.18970   0.00000  Uiso   1.00
H582   H     0.45502   0.05620   0.83458   0.00000  Uiso   1.00
H583   H     0.26355   0.03111   0.10378   0.00000  Uiso   1.00
H584   H     0.26773   0.98554   0.27343   0.00000  Uiso   1.00
H585   H     0.21454   0.09621   0.09916   0.00000  Uiso   1.00
H586   H     0.29853   0.00489   0.93076   0.00000  Uiso   1.00
H587   H     0.28785   0.94561   0.47411   0.00000  Uiso   1.00
H588   H     0.17571   0.17897   0.10663   0.00000  Uiso   1.00
H589   H     0.35280   0.98640   0.75152   0.00000  Uiso   1.00
O590   O     0.34386   0.95201   0.62901   0.00000  Uiso   1.00
O591   O     0.19674   0.25816   0.14687   0.00000  Uiso   1.00
O592   O     0.42908   0.00553   0.68098   0.00000  Uiso   1.00
N593   N     0.36545   0.00522   0.51434   0.00000  Uiso   1.00
N594   N     0.26060   0.22340   0.17078   0.00000  Uiso   1.00
N595   N     0.42616   0.04338   0.83877   0.00000  Uiso   1.00
N596   N     0.31044   0.96767   0.46964   0.00000  Uiso   1.00
N597   N     0.20559   0.18584   0.12609   0.00000  Uiso   1.00
N598   N     0.37116   0.00582   0.79407   0.00000  Uiso   1.00
C599   C     0.85559   0.59395   0.67858   0.00000  Uiso   1.00
C600   C     0.84487   0.56032   0.76018   0.00000  Uiso   1.00
C601   C     0.86649   0.55296   0.85369   0.00000  Uiso   1.00
C602   C     0.85172   0.52073   0.91774   0.00000  Uiso   1.00
C603   C     0.84040   0.47216   0.04881   0.00000  Uiso   1.00
C604   C     0.81597   0.62045   0.66551   0.00000  Uiso   1.00
C605   C     0.81329   0.66365   0.67942   0.00000  Uiso   1.00
C606   C     0.77419   0.68203   0.66375   0.00000  Uiso   1.00
C607   C     0.71802   0.72683   0.64778   0.00000  Uiso   1.00
C608   C     0.86160   0.57083   0.57402   0.00000  Uiso   1.00
C609   C     0.89729   0.57232   0.51098   0.00000  Uiso   1.00
C610   C     0.89660   0.54894   0.41827   0.00000  Uiso   1.00
C611   C     0.91127   0.51669   0.26025   0.00000  Uiso   1.00
C612   C     0.79090   0.54979   0.62601   0.00000  Uiso   1.00
C613   C     0.80973   0.53633   0.73163   0.00000  Uiso   1.00
C614   C     0.79492   0.50410   0.79554   0.00000  Uiso   1.00
C615   C     0.81652   0.49669   0.88913   0.00000  Uiso   1.00
C616   C     0.78083   0.59646   0.63696   0.00000  Uiso   1.00
C617   C     0.74173   0.61479   0.62126   0.00000  Uiso   1.00
C618   C     0.73899   0.65800   0.63515   0.00000  Uiso   1.00
C619   C     0.82646   0.54684   0.54547   0.00000  Uiso   1.00
C620   C     0.82572   0.52345   0.45283   0.00000  Uiso   1.00
C621   C     0.86140   0.52490   0.38967   0.00000  Uiso   1.00
H622   H     0.88294   0.61263   0.70080   0.00000  Uiso   1.00
H623   H     0.89368   0.57154   0.87577   0.00000  Uiso   1.00
H624   H     0.84049   0.68221   0.70150   0.00000  Uiso   1.00
H625   H     0.92447   0.59089   0.53310   0.00000  Uiso   1.00
H626   H     0.89007   0.51540   0.05717   0.00000  Uiso   1.00
H627   H     0.77793   0.74876   0.68970   0.00000  Uiso   1.00
H628   H     0.95502   0.55620   0.33458   0.00000  Uiso   1.00
H629   H     0.76355   0.53111   0.60378   0.00000  Uiso   1.00
H630   H     0.76773   0.48554   0.77343   0.00000  Uiso   1.00
H631   H     0.71454   0.59621   0.59916   0.00000  Uiso   1.00
H632   H     0.79853   0.50489   0.43076   0.00000  Uiso   1.00
H633   H     0.78785   0.44561   0.97411   0.00000  Uiso   1.00
H634   H     0.67571   0.67897   0.60663   0.00000  Uiso   1.00
H635   H     0.85280   0.48640   0.25152   0.00000  Uiso   1.00
O636   O     0.84386   0.45201   0.12901   0.00000  Uiso   1.00
O637   O     0.69674   0.75816   0.64687   0.00000  Uiso   1.00
O638   O     0.92908   0.50553   0.18098   0.00000  Uiso   1.00
N639   N     0.86545   0.50522   0.01434   0.00000  Uiso   1.00
N640   N     0.76060   0.72340   0.67078   0.00000  Uiso   1.00
N641   N     0.92616   0.54338   0.33877   0.00000  Uiso   1.00
N642   N     0.81044   0.46767   0.96964   0.00000  Uiso   1.00
N643   N     0.70559   0.68584   0.62609   0.00000  Uiso   1.00
N644   N     0.87116   0.50582   0.29407   0.00000  Uiso   1.00
C645   C     0.14441   0.40605   0.67858   0.00000  Uiso   1.00
C646   C     0.15513   0.43968   0.76018   0.00000  Uiso   1.00
C647   C     0.13351   0.44704   0.85369   0.00000  Uiso   1.00
C648   C     0.14828   0.47927   0.91774   0.00000  Uiso   1.00
C649   C     0.15960   0.52784   0.04881   0.00000  Uiso   1.00
C650   C     0.18403   0.37955   0.66551   0.00000  Uiso   1.00
C651   C     0.18671   0.33635   0.67942   0.00000  Uiso   1.00
C652   C     0.22581   0.31797   0.66375   0.00000  Uiso   1.00
C653   C     0.28198   0.27317   0.64778   0.00000  Uiso   1.00
C654   C     0.13840   0.42917   0.57402   0.00000  Uiso   1.00
C655   C     0.10271   0.42768   0.51098   0.00000  Uiso   1.00
C656   C     0.10340   0.45106   0.41827   0.00000  Uiso   1.00
C657   C     0.08873   0.48331   0.26025   0.00000  Uiso   1.00
C658   C     0.20910   0.45021   0.62601   0.00000  Uiso   1.00
C659   C     0.19027   0.46367   0.73163   0.00000  Uiso   1.00
C660   C     0.20508   0.49590   0.79554   0.00000  Uiso   1.00
C661   C     0.18348   0.50331   0.88913   0.00000  Uiso   1.00
C662   C     0.21917   0.40354   0.63696   0.00000  Uiso   1.00
C663   C     0.25827   0.38521   0.62126   0.00000  Uiso   1.00
C664   C     0.26101   0.34200   0.63515   0.00000  Uiso   1.00
C665   C     0.17354   0.45316   0.54547   0.00000  Uiso   1.00
C666   C     0.17428   0.47655   0.45283   0.00000  Uiso   1.00
C667   C     0.13860   0.47510   0.38967   0.00000  Uiso   1.00
H668   H     0.11706   0.38737   0.70080   0.00000  Uiso   1.00
H669   H     0.10632   0.42846   0.87577   0.00000  Uiso   1.00
H670   H     0.15951   0.31779   0.70150   0.00000  Uiso   1.00
H671   H     0.07553   0.40911   0.53310   0.00000  Uiso   1.00
H672   H     0.10993   0.48460   0.05717   0.00000  Uiso   1.00
H673   H     0.22207   0.25124   0.68970   0.00000  Uiso   1.00
H674   H     0.04498   0.44380   0.33458   0.00000  Uiso   1.00
H675   H     0.23645   0.46889   0.60378   0.00000  Uiso   1.00
H676   H     0.23227   0.51446   0.77343   0.00000  Uiso   1.00
H677   H     0.28546   0.40379   0.59916   0.00000  Uiso   1.00
H678   H     0.20147   0.49511   0.43076   0.00000  Uiso   1.00
H679   H     0.21215   0.55439   0.97411   0.00000  Uiso   1.00
H680   H     0.32429   0.32103   0.60663   0.00000  Uiso   1.00
H681   H     0.14720   0.51360   0.25152   0.00000  Uiso   1.00
O682   O     0.15614   0.54799   0.12901   0.00000  Uiso   1.00
O683   O     0.30326   0.24184   0.64687   0.00000  Uiso   1.00
O684   O     0.07092   0.49447   0.18098   0.00000  Uiso   1.00
N685   N     0.13455   0.49478   0.01434   0.00000  Uiso   1.00
N686   N     0.23940   0.27660   0.67078   0.00000  Uiso   1.00
N687   N     0.07384   0.45662   0.33877   0.00000  Uiso   1.00
N688   N     0.18956   0.53233   0.96964   0.00000  Uiso   1.00
N689   N     0.29441   0.31416   0.62609   0.00000  Uiso   1.00
N690   N     0.12884   0.49418   0.29407   0.00000  Uiso   1.00
C691   C     0.64441   0.90605   0.17858   0.00000  Uiso   1.00
C692   C     0.65513   0.93968   0.26018   0.00000  Uiso   1.00
C693   C     0.63351   0.94704   0.35369   0.00000  Uiso   1.00
C694   C     0.64828   0.97927   0.41774   0.00000  Uiso   1.00
C695   C     0.65960   0.02784   0.54881   0.00000  Uiso   1.00
C696   C     0.68403   0.87955   0.16551   0.00000  Uiso   1.00
C697   C     0.68671   0.83635   0.17942   0.00000  Uiso   1.00
C698   C     0.72581   0.81797   0.16375   0.00000  Uiso   1.00
C699   C     0.78198   0.77317   0.14778   0.00000  Uiso   1.00
C700   C     0.63840   0.92917   0.07402   0.00000  Uiso   1.00
C701   C     0.60271   0.92768   0.01098   0.00000  Uiso   1.00
C702   C     0.60340   0.95106   0.91827   0.00000  Uiso   1.00
C703   C     0.58873   0.98331   0.76025   0.00000  Uiso   1.00
C704   C     0.70910   0.95021   0.12601   0.00000  Uiso   1.00
C705   C     0.69027   0.96367   0.23163   0.00000  Uiso   1.00
C706   C     0.70508   0.99590   0.29554   0.00000  Uiso   1.00
C707   C     0.68348   0.00331   0.38913   0.00000  Uiso   1.00
C708   C     0.71917   0.90354   0.13696   0.00000  Uiso   1.00
C709   C     0.75827   0.88521   0.12126   0.00000  Uiso   1.00
C710   C     0.76101   0.84200   0.13515   0.00000  Uiso   1.00
C711   C     0.67354   0.95316   0.04547   0.00000  Uiso   1.00
C712   C     0.67428   0.97655   0.95283   0.00000  Uiso   1.00
C713   C     0.63860   0.97510   0.88967   0.00000  Uiso   1.00
H714   H     0.61706   0.88737   0.20080   0.00000  Uiso   1.00
H715   H     0.60632   0.92846   0.37577   0.00000  Uiso   1.00
H716   H     0.65951   0.81779   0.20150   0.00000  Uiso   1.00
H717   H     0.57553   0.90911   0.03310   0.00000  Uiso   1.00
H718   H     0.60993   0.98460   0.55717   0.00000  Uiso   1.00
H719   H     0.72207   0.75124   0.18970   0.00000  Uiso   1.00
H720   H     0.54498   0.94380   0.83458   0.00000  Uiso   1.00
H721   H     0.73645   0.96889   0.10378   0.00000  Uiso   1.00
H722   H     0.73227   0.01446   0.27343   0.00000  Uiso   1.00
H723   H     0.78546   0.90379   0.09916   0.00000  Uiso   1.00
H724   H     0.70147   0.99511   0.93076   0.00000  Uiso   1.00
H725   H     0.71215   0.05439   0.47411   0.00000  Uiso   1.00
H726   H     0.82429   0.82103   0.10663   0.00000  Uiso   1.00
H727   H     0.64720   0.01360   0.75152   0.00000  Uiso   1.00
O728   O     0.65614   0.04799   0.62901   0.00000  Uiso   1.00
O729   O     0.80326   0.74184   0.14687   0.00000  Uiso   1.00
O730   O     0.57092   0.99447   0.68098   0.00000  Uiso   1.00
N731   N     0.63455   0.99478   0.51434   0.00000  Uiso   1.00
N732   N     0.73940   0.77660   0.17078   0.00000  Uiso   1.00
N733   N     0.57384   0.95662   0.83877   0.00000  Uiso   1.00
N734   N     0.68956   0.03233   0.46964   0.00000  Uiso   1.00
N735   N     0.79441   0.81416   0.12609   0.00000  Uiso   1.00
N736   N     0.62884   0.99418   0.79407   0.00000  Uiso   1.00
