data_job_02050
_audit_creation_date              2018-12-19
_audit_creation_method            'Materials Studio'
_symmetry_space_group_name_H-M    'P1'
_symmetry_Int_Tables_number       1
_symmetry_cell_setting            triclinic
loop_
_symmetry_equiv_pos_as_xyz
  x,y,z
_cell_length_a                    26.0137
_cell_length_b                    26.0137
_cell_length_c                    14.6971
_cell_angle_alpha                 90.0000
_cell_angle_beta                  90.0000
_cell_angle_gamma                 90.0000
loop_
_atom_site_label
_atom_site_type_symbol
_atom_site_fract_x
_atom_site_fract_y
_atom_site_fract_z
_atom_site_U_iso_or_equiv
_atom_site_adp_type
_atom_site_occupancy
C1     C     0.20036   0.60463   0.02818   0.00000  Uiso   1.00
C2     C     0.20236   0.60426   0.92449   0.00000  Uiso   1.00
C3     C     0.24626   0.59789   0.87204   0.00000  Uiso   1.00
C4     C     0.24003   0.59873   0.77823   0.00000  Uiso   1.00
C5     C     0.25051   0.59712   0.62327   0.00000  Uiso   1.00
C6     C     0.17551   0.65555   0.05479   0.00000  Uiso   1.00
C7     C     0.19683   0.69230   0.11190   0.00000  Uiso   1.00
C8     C     0.16799   0.73630   0.12779   0.00000  Uiso   1.00
C9     C     0.13677   0.81431   0.17518   0.00000  Uiso   1.00
C10    C     0.16213   0.56286   0.05502   0.00000  Uiso   1.00
C11    C     0.17220   0.52168   0.11235   0.00000  Uiso   1.00
C12    C     0.13209   0.48765   0.12845   0.00000  Uiso   1.00
C13    C     0.08009   0.42174   0.17621   0.00000  Uiso   1.00
C14    C     0.11123   0.61743   0.95486   0.00000  Uiso   1.00
C15    C     0.15395   0.61122   0.88466   0.00000  Uiso   1.00
C16    C     0.14765   0.61206   0.79091   0.00000  Uiso   1.00
C17    C     0.19154   0.60569   0.73833   0.00000  Uiso   1.00
C18    C     0.12710   0.66250   0.01496   0.00000  Uiso   1.00
C19    C     0.09822   0.70646   0.03078   0.00000  Uiso   1.00
C20    C     0.11950   0.74327   0.08789   0.00000  Uiso   1.00
C21    C     0.11372   0.56981   0.01520   0.00000  Uiso   1.00
C22    C     0.07359   0.53584   0.03122   0.00000  Uiso   1.00
C23    C     0.08360   0.49462   0.08856   0.00000  Uiso   1.00
H24    H     0.23805   0.59921   0.05919   0.00000  Uiso   1.00
H25    H     0.28372   0.59251   0.90288   0.00000  Uiso   1.00
H26    H     0.23429   0.68690   0.14272   0.00000  Uiso   1.00
H27    H     0.20966   0.51631   0.14316   0.00000  Uiso   1.00
H28    H     0.31301   0.58817   0.71202   0.00000  Uiso   1.00
H29    H     0.20878   0.78718   0.21775   0.00000  Uiso   1.00
H30    H     0.15685   0.42745   0.21869   0.00000  Uiso   1.00
H31    H     0.07354   0.62285   0.92385   0.00000  Uiso   1.00
H32    H     0.11019   0.61744   0.76011   0.00000  Uiso   1.00
H33    H     0.06076   0.71183   0.99995   0.00000  Uiso   1.00
H34    H     0.03614   0.54124   0.00039   0.00000  Uiso   1.00
H35    H     0.17216   0.60841   0.59614   0.00000  Uiso   1.00
H36    H     0.06794   0.80742   0.10188   0.00000  Uiso   1.00
H37    H     0.01601   0.44769   0.10281   0.00000  Uiso   1.00
O38    O     0.26966   0.59432   0.54881   0.00000  Uiso   1.00
O39    O     0.13292   0.85542   0.21232   0.00000  Uiso   1.00
O40    O     0.06479   0.38346   0.21355   0.00000  Uiso   1.00
N41    N     0.27483   0.59366   0.70722   0.00000  Uiso   1.00
N42    N     0.17739   0.77973   0.18004   0.00000  Uiso   1.00
N43    N     0.12883   0.44342   0.18093   0.00000  Uiso   1.00
N44    N     0.19904   0.60455   0.64486   0.00000  Uiso   1.00
N45    N     0.10160   0.79062   0.11768   0.00000  Uiso   1.00
N46    N     0.05305   0.45431   0.11858   0.00000  Uiso   1.00
C47    C     0.70036   0.10463   0.52818   0.00000  Uiso   1.00
C48    C     0.70236   0.10426   0.42449   0.00000  Uiso   1.00
C49    C     0.74626   0.09789   0.37204   0.00000  Uiso   1.00
C50    C     0.74003   0.09873   0.27823   0.00000  Uiso   1.00
C51    C     0.75051   0.09712   0.12327   0.00000  Uiso   1.00
C52    C     0.67551   0.15555   0.55479   0.00000  Uiso   1.00
C53    C     0.69683   0.19230   0.61190   0.00000  Uiso   1.00
C54    C     0.66799   0.23630   0.62779   0.00000  Uiso   1.00
C55    C     0.63677   0.31431   0.67518   0.00000  Uiso   1.00
C56    C     0.66213   0.06286   0.55502   0.00000  Uiso   1.00
C57    C     0.67220   0.02168   0.61235   0.00000  Uiso   1.00
C58    C     0.63209   0.98765   0.62845   0.00000  Uiso   1.00
C59    C     0.58009   0.92174   0.67621   0.00000  Uiso   1.00
C60    C     0.61123   0.11743   0.45486   0.00000  Uiso   1.00
C61    C     0.65395   0.11122   0.38466   0.00000  Uiso   1.00
C62    C     0.64765   0.11206   0.29091   0.00000  Uiso   1.00
C63    C     0.69154   0.10569   0.23833   0.00000  Uiso   1.00
C64    C     0.62710   0.16250   0.51496   0.00000  Uiso   1.00
C65    C     0.59822   0.20646   0.53078   0.00000  Uiso   1.00
C66    C     0.61950   0.24327   0.58789   0.00000  Uiso   1.00
C67    C     0.61372   0.06981   0.51520   0.00000  Uiso   1.00
C68    C     0.57359   0.03584   0.53122   0.00000  Uiso   1.00
C69    C     0.58360   0.99462   0.58856   0.00000  Uiso   1.00
H70    H     0.73805   0.09921   0.55919   0.00000  Uiso   1.00
H71    H     0.78372   0.09251   0.40288   0.00000  Uiso   1.00
H72    H     0.73429   0.18690   0.64272   0.00000  Uiso   1.00
H73    H     0.70966   0.01631   0.64316   0.00000  Uiso   1.00
H74    H     0.81301   0.08817   0.21202   0.00000  Uiso   1.00
H75    H     0.70878   0.28718   0.71775   0.00000  Uiso   1.00
H76    H     0.65685   0.92745   0.71869   0.00000  Uiso   1.00
H77    H     0.57354   0.12285   0.42385   0.00000  Uiso   1.00
H78    H     0.61019   0.11744   0.26011   0.00000  Uiso   1.00
H79    H     0.56076   0.21183   0.49995   0.00000  Uiso   1.00
H80    H     0.53614   0.04124   0.50039   0.00000  Uiso   1.00
H81    H     0.67216   0.10841   0.09614   0.00000  Uiso   1.00
H82    H     0.56794   0.30742   0.60188   0.00000  Uiso   1.00
H83    H     0.51601   0.94769   0.60281   0.00000  Uiso   1.00
O84    O     0.76966   0.09432   0.04881   0.00000  Uiso   1.00
O85    O     0.63292   0.35542   0.71232   0.00000  Uiso   1.00
O86    O     0.56479   0.88346   0.71355   0.00000  Uiso   1.00
N87    N     0.77483   0.09366   0.20722   0.00000  Uiso   1.00
N88    N     0.67739   0.27973   0.68004   0.00000  Uiso   1.00
N89    N     0.62883   0.94342   0.68093   0.00000  Uiso   1.00
N90    N     0.69904   0.10455   0.14486   0.00000  Uiso   1.00
N91    N     0.60160   0.29062   0.61768   0.00000  Uiso   1.00
N92    N     0.55305   0.95431   0.61858   0.00000  Uiso   1.00
C93    C     0.29964   0.89537   0.52818   0.00000  Uiso   1.00
C94    C     0.29764   0.89574   0.42449   0.00000  Uiso   1.00
C95    C     0.25374   0.90211   0.37204   0.00000  Uiso   1.00
C96    C     0.25997   0.90127   0.27823   0.00000  Uiso   1.00
C97    C     0.24949   0.90288   0.12327   0.00000  Uiso   1.00
C98    C     0.32449   0.84445   0.55479   0.00000  Uiso   1.00
C99    C     0.30317   0.80770   0.61190   0.00000  Uiso   1.00
C100   C     0.33201   0.76370   0.62779   0.00000  Uiso   1.00
C101   C     0.36323   0.68569   0.67518   0.00000  Uiso   1.00
C102   C     0.33787   0.93714   0.55502   0.00000  Uiso   1.00
C103   C     0.32780   0.97832   0.61235   0.00000  Uiso   1.00
C104   C     0.36791   0.01235   0.62845   0.00000  Uiso   1.00
C105   C     0.41991   0.07826   0.67621   0.00000  Uiso   1.00
C106   C     0.38877   0.88257   0.45486   0.00000  Uiso   1.00
C107   C     0.34605   0.88878   0.38466   0.00000  Uiso   1.00
C108   C     0.35235   0.88794   0.29091   0.00000  Uiso   1.00
C109   C     0.30846   0.89431   0.23833   0.00000  Uiso   1.00
C110   C     0.37290   0.83750   0.51496   0.00000  Uiso   1.00
C111   C     0.40178   0.79354   0.53078   0.00000  Uiso   1.00
C112   C     0.38050   0.75673   0.58789   0.00000  Uiso   1.00
C113   C     0.38628   0.93019   0.51520   0.00000  Uiso   1.00
C114   C     0.42641   0.96416   0.53122   0.00000  Uiso   1.00
C115   C     0.41640   0.00538   0.58856   0.00000  Uiso   1.00
H116   H     0.26195   0.90079   0.55919   0.00000  Uiso   1.00
H117   H     0.21628   0.90749   0.40288   0.00000  Uiso   1.00
H118   H     0.26571   0.81310   0.64272   0.00000  Uiso   1.00
H119   H     0.29034   0.98369   0.64316   0.00000  Uiso   1.00
H120   H     0.18699   0.91183   0.21202   0.00000  Uiso   1.00
H121   H     0.29122   0.71282   0.71775   0.00000  Uiso   1.00
H122   H     0.34315   0.07255   0.71869   0.00000  Uiso   1.00
H123   H     0.42646   0.87715   0.42385   0.00000  Uiso   1.00
H124   H     0.38981   0.88256   0.26011   0.00000  Uiso   1.00
H125   H     0.43924   0.78817   0.49995   0.00000  Uiso   1.00
H126   H     0.46386   0.95876   0.50039   0.00000  Uiso   1.00
H127   H     0.32784   0.89159   0.09614   0.00000  Uiso   1.00
H128   H     0.43206   0.69258   0.60188   0.00000  Uiso   1.00
H129   H     0.48399   0.05231   0.60281   0.00000  Uiso   1.00
O130   O     0.23034   0.90568   0.04881   0.00000  Uiso   1.00
O131   O     0.36708   0.64458   0.71232   0.00000  Uiso   1.00
O132   O     0.43521   0.11654   0.71355   0.00000  Uiso   1.00
N133   N     0.22517   0.90634   0.20722   0.00000  Uiso   1.00
N134   N     0.32261   0.72027   0.68004   0.00000  Uiso   1.00
N135   N     0.37117   0.05658   0.68093   0.00000  Uiso   1.00
N136   N     0.30096   0.89545   0.14486   0.00000  Uiso   1.00
N137   N     0.39840   0.70938   0.61768   0.00000  Uiso   1.00
N138   N     0.44695   0.04569   0.61858   0.00000  Uiso   1.00
C139   C     0.79964   0.39537   0.02818   0.00000  Uiso   1.00
C140   C     0.79764   0.39574   0.92449   0.00000  Uiso   1.00
C141   C     0.75374   0.40211   0.87204   0.00000  Uiso   1.00
C142   C     0.75997   0.40127   0.77823   0.00000  Uiso   1.00
C143   C     0.74949   0.40288   0.62327   0.00000  Uiso   1.00
C144   C     0.82449   0.34445   0.05479   0.00000  Uiso   1.00
C145   C     0.80317   0.30770   0.11190   0.00000  Uiso   1.00
C146   C     0.83201   0.26370   0.12779   0.00000  Uiso   1.00
C147   C     0.86323   0.18569   0.17518   0.00000  Uiso   1.00
C148   C     0.83787   0.43714   0.05502   0.00000  Uiso   1.00
C149   C     0.82780   0.47832   0.11235   0.00000  Uiso   1.00
C150   C     0.86791   0.51235   0.12845   0.00000  Uiso   1.00
C151   C     0.91991   0.57826   0.17621   0.00000  Uiso   1.00
C152   C     0.88877   0.38257   0.95486   0.00000  Uiso   1.00
C153   C     0.84605   0.38878   0.88466   0.00000  Uiso   1.00
C154   C     0.85235   0.38794   0.79091   0.00000  Uiso   1.00
C155   C     0.80846   0.39431   0.73833   0.00000  Uiso   1.00
C156   C     0.87290   0.33750   0.01496   0.00000  Uiso   1.00
C157   C     0.90178   0.29354   0.03078   0.00000  Uiso   1.00
C158   C     0.88050   0.25673   0.08789   0.00000  Uiso   1.00
C159   C     0.88628   0.43019   0.01520   0.00000  Uiso   1.00
C160   C     0.92641   0.46416   0.03122   0.00000  Uiso   1.00
C161   C     0.91640   0.50538   0.08856   0.00000  Uiso   1.00
H162   H     0.76195   0.40079   0.05919   0.00000  Uiso   1.00
H163   H     0.71628   0.40749   0.90288   0.00000  Uiso   1.00
H164   H     0.76571   0.31310   0.14272   0.00000  Uiso   1.00
H165   H     0.79034   0.48369   0.14316   0.00000  Uiso   1.00
H166   H     0.68699   0.41183   0.71202   0.00000  Uiso   1.00
H167   H     0.79122   0.21282   0.21775   0.00000  Uiso   1.00
H168   H     0.84315   0.57255   0.21869   0.00000  Uiso   1.00
H169   H     0.92646   0.37715   0.92385   0.00000  Uiso   1.00
H170   H     0.88981   0.38256   0.76011   0.00000  Uiso   1.00
H171   H     0.93924   0.28817   0.99995   0.00000  Uiso   1.00
H172   H     0.96386   0.45876   0.00039   0.00000  Uiso   1.00
H173   H     0.82784   0.39159   0.59614   0.00000  Uiso   1.00
H174   H     0.93206   0.19258   0.10188   0.00000  Uiso   1.00
H175   H     0.98399   0.55231   0.10281   0.00000  Uiso   1.00
O176   O     0.73034   0.40568   0.54881   0.00000  Uiso   1.00
O177   O     0.86708   0.14458   0.21232   0.00000  Uiso   1.00
O178   O     0.93521   0.61654   0.21355   0.00000  Uiso   1.00
N179   N     0.72517   0.40634   0.70722   0.00000  Uiso   1.00
N180   N     0.82261   0.22027   0.18004   0.00000  Uiso   1.00
N181   N     0.87117   0.55658   0.18093   0.00000  Uiso   1.00
N182   N     0.80096   0.39545   0.64486   0.00000  Uiso   1.00
N183   N     0.89840   0.20938   0.11768   0.00000  Uiso   1.00
N184   N     0.94695   0.54569   0.11858   0.00000  Uiso   1.00
C185   C     0.39537   0.70036   0.27818   0.00000  Uiso   1.00
C186   C     0.39574   0.70236   0.17449   0.00000  Uiso   1.00
C187   C     0.40211   0.74626   0.12204   0.00000  Uiso   1.00
C188   C     0.40127   0.74003   0.02823   0.00000  Uiso   1.00
C189   C     0.40288   0.75051   0.87327   0.00000  Uiso   1.00
C190   C     0.34445   0.67551   0.30479   0.00000  Uiso   1.00
C191   C     0.30770   0.69683   0.36190   0.00000  Uiso   1.00
C192   C     0.26370   0.66799   0.37779   0.00000  Uiso   1.00
C193   C     0.18569   0.63677   0.42518   0.00000  Uiso   1.00
C194   C     0.43714   0.66213   0.30502   0.00000  Uiso   1.00
C195   C     0.47832   0.67220   0.36235   0.00000  Uiso   1.00
C196   C     0.51235   0.63209   0.37845   0.00000  Uiso   1.00
C197   C     0.57826   0.58009   0.42621   0.00000  Uiso   1.00
C198   C     0.38257   0.61123   0.20486   0.00000  Uiso   1.00
C199   C     0.38878   0.65395   0.13466   0.00000  Uiso   1.00
C200   C     0.38794   0.64765   0.04091   0.00000  Uiso   1.00
C201   C     0.39431   0.69154   0.98833   0.00000  Uiso   1.00
C202   C     0.33750   0.62710   0.26496   0.00000  Uiso   1.00
C203   C     0.29354   0.59822   0.28078   0.00000  Uiso   1.00
C204   C     0.25673   0.61950   0.33789   0.00000  Uiso   1.00
C205   C     0.43019   0.61372   0.26520   0.00000  Uiso   1.00
C206   C     0.46416   0.57359   0.28122   0.00000  Uiso   1.00
C207   C     0.50538   0.58360   0.33856   0.00000  Uiso   1.00
H208   H     0.40079   0.73805   0.30919   0.00000  Uiso   1.00
H209   H     0.40749   0.78372   0.15288   0.00000  Uiso   1.00
H210   H     0.31310   0.73429   0.39272   0.00000  Uiso   1.00
H211   H     0.48369   0.70966   0.39316   0.00000  Uiso   1.00
H212   H     0.41183   0.81301   0.96202   0.00000  Uiso   1.00
H213   H     0.21282   0.70878   0.46775   0.00000  Uiso   1.00
H214   H     0.57255   0.65685   0.46869   0.00000  Uiso   1.00
H215   H     0.37715   0.57354   0.17385   0.00000  Uiso   1.00
H216   H     0.38256   0.61019   0.01011   0.00000  Uiso   1.00
H217   H     0.28817   0.56076   0.24995   0.00000  Uiso   1.00
H218   H     0.45876   0.53614   0.25039   0.00000  Uiso   1.00
H219   H     0.39159   0.67216   0.84614   0.00000  Uiso   1.00
H220   H     0.19258   0.56794   0.35188   0.00000  Uiso   1.00
H221   H     0.55231   0.51601   0.35281   0.00000  Uiso   1.00
O222   O     0.40568   0.76966   0.79881   0.00000  Uiso   1.00
O223   O     0.14458   0.63292   0.46232   0.00000  Uiso   1.00
O224   O     0.61654   0.56479   0.46355   0.00000  Uiso   1.00
N225   N     0.40634   0.77483   0.95722   0.00000  Uiso   1.00
N226   N     0.22027   0.67739   0.43004   0.00000  Uiso   1.00
N227   N     0.55658   0.62883   0.43093   0.00000  Uiso   1.00
N228   N     0.39545   0.69904   0.89486   0.00000  Uiso   1.00
N229   N     0.20938   0.60160   0.36768   0.00000  Uiso   1.00
N230   N     0.54569   0.55305   0.36858   0.00000  Uiso   1.00
C231   C     0.89537   0.20036   0.77818   0.00000  Uiso   1.00
C232   C     0.89574   0.20236   0.67449   0.00000  Uiso   1.00
C233   C     0.90211   0.24626   0.62204   0.00000  Uiso   1.00
C234   C     0.90127   0.24003   0.52823   0.00000  Uiso   1.00
C235   C     0.90288   0.25051   0.37327   0.00000  Uiso   1.00
C236   C     0.84445   0.17551   0.80479   0.00000  Uiso   1.00
C237   C     0.80770   0.19683   0.86190   0.00000  Uiso   1.00
C238   C     0.76370   0.16799   0.87779   0.00000  Uiso   1.00
C239   C     0.68569   0.13677   0.92518   0.00000  Uiso   1.00
C240   C     0.93714   0.16213   0.80502   0.00000  Uiso   1.00
C241   C     0.97832   0.17220   0.86235   0.00000  Uiso   1.00
C242   C     0.01235   0.13209   0.87845   0.00000  Uiso   1.00
C243   C     0.07826   0.08009   0.92621   0.00000  Uiso   1.00
C244   C     0.88257   0.11123   0.70486   0.00000  Uiso   1.00
C245   C     0.88878   0.15395   0.63466   0.00000  Uiso   1.00
C246   C     0.88794   0.14765   0.54091   0.00000  Uiso   1.00
C247   C     0.89431   0.19154   0.48833   0.00000  Uiso   1.00
C248   C     0.83750   0.12710   0.76496   0.00000  Uiso   1.00
C249   C     0.79354   0.09822   0.78078   0.00000  Uiso   1.00
C250   C     0.75673   0.11950   0.83789   0.00000  Uiso   1.00
C251   C     0.93019   0.11372   0.76520   0.00000  Uiso   1.00
C252   C     0.96416   0.07359   0.78122   0.00000  Uiso   1.00
C253   C     0.00538   0.08360   0.83856   0.00000  Uiso   1.00
H254   H     0.90079   0.23805   0.80919   0.00000  Uiso   1.00
H255   H     0.90749   0.28372   0.65288   0.00000  Uiso   1.00
H256   H     0.81310   0.23429   0.89272   0.00000  Uiso   1.00
H257   H     0.98369   0.20966   0.89316   0.00000  Uiso   1.00
H258   H     0.91183   0.31301   0.46202   0.00000  Uiso   1.00
H259   H     0.71282   0.20878   0.96775   0.00000  Uiso   1.00
H260   H     0.07255   0.15685   0.96869   0.00000  Uiso   1.00
H261   H     0.87715   0.07354   0.67385   0.00000  Uiso   1.00
H262   H     0.88256   0.11019   0.51011   0.00000  Uiso   1.00
H263   H     0.78817   0.06076   0.74995   0.00000  Uiso   1.00
H264   H     0.95876   0.03614   0.75039   0.00000  Uiso   1.00
H265   H     0.89159   0.17216   0.34614   0.00000  Uiso   1.00
H266   H     0.69258   0.06794   0.85188   0.00000  Uiso   1.00
H267   H     0.05231   0.01601   0.85281   0.00000  Uiso   1.00
O268   O     0.90568   0.26966   0.29881   0.00000  Uiso   1.00
O269   O     0.64458   0.13292   0.96232   0.00000  Uiso   1.00
O270   O     0.11654   0.06479   0.96355   0.00000  Uiso   1.00
N271   N     0.90634   0.27483   0.45722   0.00000  Uiso   1.00
N272   N     0.72027   0.17739   0.93004   0.00000  Uiso   1.00
N273   N     0.05658   0.12883   0.93093   0.00000  Uiso   1.00
N274   N     0.89545   0.19904   0.39486   0.00000  Uiso   1.00
N275   N     0.70938   0.10160   0.86768   0.00000  Uiso   1.00
N276   N     0.04569   0.05305   0.86858   0.00000  Uiso   1.00
C277   C     0.10463   0.79964   0.77818   0.00000  Uiso   1.00
C278   C     0.10426   0.79764   0.67449   0.00000  Uiso   1.00
C279   C     0.09789   0.75374   0.62204   0.00000  Uiso   1.00
C280   C     0.09873   0.75997   0.52823   0.00000  Uiso   1.00
C281   C     0.09712   0.74949   0.37327   0.00000  Uiso   1.00
C282   C     0.15555   0.82449   0.80479   0.00000  Uiso   1.00
C283   C     0.19230   0.80317   0.86190   0.00000  Uiso   1.00
C284   C     0.23630   0.83201   0.87779   0.00000  Uiso   1.00
C285   C     0.31431   0.86323   0.92518   0.00000  Uiso   1.00
C286   C     0.06286   0.83787   0.80502   0.00000  Uiso   1.00
C287   C     0.02168   0.82780   0.86235   0.00000  Uiso   1.00
C288   C     0.98765   0.86791   0.87845   0.00000  Uiso   1.00
C289   C     0.92174   0.91991   0.92621   0.00000  Uiso   1.00
C290   C     0.11743   0.88877   0.70486   0.00000  Uiso   1.00
C291   C     0.11122   0.84605   0.63466   0.00000  Uiso   1.00
C292   C     0.11206   0.85235   0.54091   0.00000  Uiso   1.00
C293   C     0.10569   0.80846   0.48833   0.00000  Uiso   1.00
C294   C     0.16250   0.87290   0.76496   0.00000  Uiso   1.00
C295   C     0.20646   0.90178   0.78078   0.00000  Uiso   1.00
C296   C     0.24327   0.88050   0.83789   0.00000  Uiso   1.00
C297   C     0.06981   0.88628   0.76520   0.00000  Uiso   1.00
C298   C     0.03584   0.92641   0.78122   0.00000  Uiso   1.00
C299   C     0.99462   0.91640   0.83856   0.00000  Uiso   1.00
H300   H     0.09921   0.76195   0.80919   0.00000  Uiso   1.00
H301   H     0.09251   0.71628   0.65288   0.00000  Uiso   1.00
H302   H     0.18690   0.76571   0.89272   0.00000  Uiso   1.00
H303   H     0.01631   0.79034   0.89316   0.00000  Uiso   1.00
H304   H     0.08817   0.68699   0.46202   0.00000  Uiso   1.00
H305   H     0.28718   0.79122   0.96775   0.00000  Uiso   1.00
H306   H     0.92745   0.84315   0.96869   0.00000  Uiso   1.00
H307   H     0.12285   0.92646   0.67385   0.00000  Uiso   1.00
H308   H     0.11744   0.88981   0.51011   0.00000  Uiso   1.00
H309   H     0.21183   0.93924   0.74995   0.00000  Uiso   1.00
H310   H     0.04124   0.96386   0.75039   0.00000  Uiso   1.00
H311   H     0.10841   0.82784   0.34614   0.00000  Uiso   1.00
H312   H     0.30742   0.93206   0.85188   0.00000  Uiso   1.00
H313   H     0.94769   0.98399   0.85281   0.00000  Uiso   1.00
O314   O     0.09432   0.73034   0.29881   0.00000  Uiso   1.00
O315   O     0.35542   0.86708   0.96232   0.00000  Uiso   1.00
O316   O     0.88346   0.93521   0.96355   0.00000  Uiso   1.00
N317   N     0.09366   0.72517   0.45722   0.00000  Uiso   1.00
N318   N     0.27973   0.82261   0.93004   0.00000  Uiso   1.00
N319   N     0.94342   0.87117   0.93093   0.00000  Uiso   1.00
N320   N     0.10455   0.80096   0.39486   0.00000  Uiso   1.00
N321   N     0.29062   0.89840   0.86768   0.00000  Uiso   1.00
N322   N     0.95431   0.94695   0.86858   0.00000  Uiso   1.00
C323   C     0.60463   0.29964   0.27818   0.00000  Uiso   1.00
C324   C     0.60426   0.29764   0.17449   0.00000  Uiso   1.00
C325   C     0.59789   0.25374   0.12204   0.00000  Uiso   1.00
C326   C     0.59873   0.25997   0.02823   0.00000  Uiso   1.00
C327   C     0.59712   0.24949   0.87327   0.00000  Uiso   1.00
C328   C     0.65555   0.32449   0.30479   0.00000  Uiso   1.00
C329   C     0.69230   0.30317   0.36190   0.00000  Uiso   1.00
C330   C     0.73630   0.33201   0.37779   0.00000  Uiso   1.00
C331   C     0.81431   0.36323   0.42518   0.00000  Uiso   1.00
C332   C     0.56286   0.33787   0.30502   0.00000  Uiso   1.00
C333   C     0.52168   0.32780   0.36235   0.00000  Uiso   1.00
C334   C     0.48765   0.36791   0.37845   0.00000  Uiso   1.00
C335   C     0.42174   0.41991   0.42621   0.00000  Uiso   1.00
C336   C     0.61743   0.38877   0.20486   0.00000  Uiso   1.00
C337   C     0.61122   0.34605   0.13466   0.00000  Uiso   1.00
C338   C     0.61206   0.35235   0.04091   0.00000  Uiso   1.00
C339   C     0.60569   0.30846   0.98833   0.00000  Uiso   1.00
C340   C     0.66250   0.37290   0.26496   0.00000  Uiso   1.00
C341   C     0.70646   0.40178   0.28078   0.00000  Uiso   1.00
C342   C     0.74327   0.38050   0.33789   0.00000  Uiso   1.00
C343   C     0.56981   0.38628   0.26520   0.00000  Uiso   1.00
C344   C     0.53584   0.42641   0.28122   0.00000  Uiso   1.00
C345   C     0.49462   0.41640   0.33856   0.00000  Uiso   1.00
H346   H     0.59921   0.26195   0.30919   0.00000  Uiso   1.00
H347   H     0.59251   0.21628   0.15288   0.00000  Uiso   1.00
H348   H     0.68690   0.26571   0.39272   0.00000  Uiso   1.00
H349   H     0.51631   0.29034   0.39316   0.00000  Uiso   1.00
H350   H     0.58817   0.18699   0.96202   0.00000  Uiso   1.00
H351   H     0.78718   0.29122   0.46775   0.00000  Uiso   1.00
H352   H     0.42745   0.34315   0.46869   0.00000  Uiso   1.00
H353   H     0.62285   0.42646   0.17385   0.00000  Uiso   1.00
H354   H     0.61744   0.38981   0.01011   0.00000  Uiso   1.00
H355   H     0.71183   0.43924   0.24995   0.00000  Uiso   1.00
H356   H     0.54124   0.46386   0.25039   0.00000  Uiso   1.00
H357   H     0.60841   0.32784   0.84614   0.00000  Uiso   1.00
H358   H     0.80742   0.43206   0.35188   0.00000  Uiso   1.00
H359   H     0.44769   0.48399   0.35281   0.00000  Uiso   1.00
O360   O     0.59432   0.23034   0.79881   0.00000  Uiso   1.00
O361   O     0.85542   0.36708   0.46232   0.00000  Uiso   1.00
O362   O     0.38346   0.43521   0.46355   0.00000  Uiso   1.00
N363   N     0.59366   0.22517   0.95722   0.00000  Uiso   1.00
N364   N     0.77973   0.32261   0.43004   0.00000  Uiso   1.00
N365   N     0.44342   0.37117   0.43093   0.00000  Uiso   1.00
N366   N     0.60455   0.30096   0.89486   0.00000  Uiso   1.00
N367   N     0.79062   0.39840   0.36768   0.00000  Uiso   1.00
N368   N     0.45431   0.44695   0.36858   0.00000  Uiso   1.00
C369   C     0.79964   0.89537   0.22182   0.00000  Uiso   1.00
C370   C     0.79764   0.89574   0.32551   0.00000  Uiso   1.00
C371   C     0.75374   0.90211   0.37796   0.00000  Uiso   1.00
C372   C     0.75997   0.90127   0.47177   0.00000  Uiso   1.00
C373   C     0.74949   0.90288   0.62673   0.00000  Uiso   1.00
C374   C     0.82449   0.84445   0.19521   0.00000  Uiso   1.00
C375   C     0.80317   0.80770   0.13810   0.00000  Uiso   1.00
C376   C     0.83201   0.76370   0.12221   0.00000  Uiso   1.00
C377   C     0.86323   0.68569   0.07482   0.00000  Uiso   1.00
C378   C     0.83787   0.93714   0.19498   0.00000  Uiso   1.00
C379   C     0.82780   0.97832   0.13765   0.00000  Uiso   1.00
C380   C     0.86791   0.01235   0.12155   0.00000  Uiso   1.00
C381   C     0.91991   0.07826   0.07379   0.00000  Uiso   1.00
C382   C     0.88877   0.88257   0.29514   0.00000  Uiso   1.00
C383   C     0.84605   0.88878   0.36534   0.00000  Uiso   1.00
C384   C     0.85235   0.88794   0.45909   0.00000  Uiso   1.00
C385   C     0.80846   0.89431   0.51167   0.00000  Uiso   1.00
C386   C     0.87290   0.83750   0.23504   0.00000  Uiso   1.00
C387   C     0.90178   0.79354   0.21922   0.00000  Uiso   1.00
C388   C     0.88050   0.75673   0.16211   0.00000  Uiso   1.00
C389   C     0.88628   0.93019   0.23480   0.00000  Uiso   1.00
C390   C     0.92641   0.96416   0.21878   0.00000  Uiso   1.00
C391   C     0.91640   0.00538   0.16144   0.00000  Uiso   1.00
H392   H     0.76195   0.90079   0.19081   0.00000  Uiso   1.00
H393   H     0.71628   0.90749   0.34712   0.00000  Uiso   1.00
H394   H     0.76571   0.81310   0.10728   0.00000  Uiso   1.00
H395   H     0.79034   0.98369   0.10684   0.00000  Uiso   1.00
H396   H     0.68699   0.91183   0.53798   0.00000  Uiso   1.00
H397   H     0.79122   0.71282   0.03225   0.00000  Uiso   1.00
H398   H     0.84315   0.07255   0.03131   0.00000  Uiso   1.00
H399   H     0.92646   0.87715   0.32615   0.00000  Uiso   1.00
H400   H     0.88981   0.88256   0.48989   0.00000  Uiso   1.00
H401   H     0.93924   0.78817   0.25005   0.00000  Uiso   1.00
H402   H     0.96386   0.95876   0.24961   0.00000  Uiso   1.00
H403   H     0.82784   0.89159   0.65386   0.00000  Uiso   1.00
H404   H     0.93206   0.69258   0.14812   0.00000  Uiso   1.00
H405   H     0.98399   0.05231   0.14719   0.00000  Uiso   1.00
O406   O     0.73034   0.90568   0.70119   0.00000  Uiso   1.00
O407   O     0.86708   0.64458   0.03768   0.00000  Uiso   1.00
O408   O     0.93521   0.11654   0.03645   0.00000  Uiso   1.00
N409   N     0.72517   0.90634   0.54278   0.00000  Uiso   1.00
N410   N     0.82261   0.72027   0.06996   0.00000  Uiso   1.00
N411   N     0.87117   0.05658   0.06907   0.00000  Uiso   1.00
N412   N     0.80096   0.89545   0.60514   0.00000  Uiso   1.00
N413   N     0.89840   0.70938   0.13232   0.00000  Uiso   1.00
N414   N     0.94695   0.04569   0.13142   0.00000  Uiso   1.00
C415   C     0.29964   0.39537   0.72182   0.00000  Uiso   1.00
C416   C     0.29764   0.39574   0.82551   0.00000  Uiso   1.00
C417   C     0.25374   0.40211   0.87796   0.00000  Uiso   1.00
C418   C     0.25997   0.40127   0.97177   0.00000  Uiso   1.00
C419   C     0.24949   0.40288   0.12673   0.00000  Uiso   1.00
C420   C     0.32449   0.34445   0.69521   0.00000  Uiso   1.00
C421   C     0.30317   0.30770   0.63810   0.00000  Uiso   1.00
C422   C     0.33201   0.26370   0.62221   0.00000  Uiso   1.00
C423   C     0.36323   0.18569   0.57482   0.00000  Uiso   1.00
C424   C     0.33787   0.43714   0.69498   0.00000  Uiso   1.00
C425   C     0.32780   0.47832   0.63765   0.00000  Uiso   1.00
C426   C     0.36791   0.51235   0.62155   0.00000  Uiso   1.00
C427   C     0.41991   0.57826   0.57379   0.00000  Uiso   1.00
C428   C     0.38877   0.38257   0.79514   0.00000  Uiso   1.00
C429   C     0.34605   0.38878   0.86534   0.00000  Uiso   1.00
C430   C     0.35235   0.38794   0.95909   0.00000  Uiso   1.00
C431   C     0.30846   0.39431   0.01167   0.00000  Uiso   1.00
C432   C     0.37290   0.33750   0.73504   0.00000  Uiso   1.00
C433   C     0.40178   0.29354   0.71922   0.00000  Uiso   1.00
C434   C     0.38050   0.25673   0.66211   0.00000  Uiso   1.00
C435   C     0.38628   0.43019   0.73480   0.00000  Uiso   1.00
C436   C     0.42641   0.46416   0.71878   0.00000  Uiso   1.00
C437   C     0.41640   0.50538   0.66144   0.00000  Uiso   1.00
H438   H     0.26195   0.40079   0.69081   0.00000  Uiso   1.00
H439   H     0.21628   0.40749   0.84712   0.00000  Uiso   1.00
H440   H     0.26571   0.31310   0.60728   0.00000  Uiso   1.00
H441   H     0.29034   0.48369   0.60684   0.00000  Uiso   1.00
H442   H     0.18699   0.41183   0.03798   0.00000  Uiso   1.00
H443   H     0.29122   0.21282   0.53225   0.00000  Uiso   1.00
H444   H     0.34315   0.57255   0.53131   0.00000  Uiso   1.00
H445   H     0.42646   0.37715   0.82615   0.00000  Uiso   1.00
H446   H     0.38981   0.38256   0.98989   0.00000  Uiso   1.00
H447   H     0.43924   0.28817   0.75005   0.00000  Uiso   1.00
H448   H     0.46386   0.45876   0.74961   0.00000  Uiso   1.00
H449   H     0.32784   0.39159   0.15386   0.00000  Uiso   1.00
H450   H     0.43206   0.19258   0.64812   0.00000  Uiso   1.00
H451   H     0.48399   0.55231   0.64719   0.00000  Uiso   1.00
O452   O     0.23034   0.40568   0.20119   0.00000  Uiso   1.00
O453   O     0.36708   0.14458   0.53768   0.00000  Uiso   1.00
O454   O     0.43521   0.61654   0.53645   0.00000  Uiso   1.00
N455   N     0.22517   0.40634   0.04278   0.00000  Uiso   1.00
N456   N     0.32261   0.22027   0.56996   0.00000  Uiso   1.00
N457   N     0.37117   0.55658   0.56907   0.00000  Uiso   1.00
N458   N     0.30096   0.39545   0.10514   0.00000  Uiso   1.00
N459   N     0.39840   0.20938   0.63232   0.00000  Uiso   1.00
N460   N     0.44695   0.54569   0.63142   0.00000  Uiso   1.00
C461   C     0.70036   0.60463   0.72182   0.00000  Uiso   1.00
C462   C     0.70236   0.60426   0.82551   0.00000  Uiso   1.00
C463   C     0.74626   0.59789   0.87796   0.00000  Uiso   1.00
C464   C     0.74003   0.59873   0.97177   0.00000  Uiso   1.00
C465   C     0.75051   0.59712   0.12673   0.00000  Uiso   1.00
C466   C     0.67551   0.65555   0.69521   0.00000  Uiso   1.00
C467   C     0.69683   0.69230   0.63810   0.00000  Uiso   1.00
C468   C     0.66799   0.73630   0.62221   0.00000  Uiso   1.00
C469   C     0.63677   0.81431   0.57482   0.00000  Uiso   1.00
C470   C     0.66213   0.56286   0.69498   0.00000  Uiso   1.00
C471   C     0.67220   0.52168   0.63765   0.00000  Uiso   1.00
C472   C     0.63209   0.48765   0.62155   0.00000  Uiso   1.00
C473   C     0.58009   0.42174   0.57379   0.00000  Uiso   1.00
C474   C     0.61123   0.61743   0.79514   0.00000  Uiso   1.00
C475   C     0.65395   0.61122   0.86534   0.00000  Uiso   1.00
C476   C     0.64765   0.61206   0.95909   0.00000  Uiso   1.00
C477   C     0.69154   0.60569   0.01167   0.00000  Uiso   1.00
C478   C     0.62710   0.66250   0.73504   0.00000  Uiso   1.00
C479   C     0.59822   0.70646   0.71922   0.00000  Uiso   1.00
C480   C     0.61950   0.74327   0.66211   0.00000  Uiso   1.00
C481   C     0.61372   0.56981   0.73480   0.00000  Uiso   1.00
C482   C     0.57359   0.53584   0.71878   0.00000  Uiso   1.00
C483   C     0.58360   0.49462   0.66144   0.00000  Uiso   1.00
H484   H     0.73805   0.59921   0.69081   0.00000  Uiso   1.00
H485   H     0.78372   0.59251   0.84712   0.00000  Uiso   1.00
H486   H     0.73429   0.68690   0.60728   0.00000  Uiso   1.00
H487   H     0.70966   0.51631   0.60684   0.00000  Uiso   1.00
H488   H     0.81301   0.58817   0.03798   0.00000  Uiso   1.00
H489   H     0.70878   0.78718   0.53225   0.00000  Uiso   1.00
H490   H     0.65685   0.42745   0.53131   0.00000  Uiso   1.00
H491   H     0.57354   0.62285   0.82615   0.00000  Uiso   1.00
H492   H     0.61019   0.61744   0.98989   0.00000  Uiso   1.00
H493   H     0.56076   0.71183   0.75005   0.00000  Uiso   1.00
H494   H     0.53614   0.54124   0.74961   0.00000  Uiso   1.00
H495   H     0.67216   0.60841   0.15386   0.00000  Uiso   1.00
H496   H     0.56794   0.80742   0.64812   0.00000  Uiso   1.00
H497   H     0.51601   0.44769   0.64719   0.00000  Uiso   1.00
O498   O     0.76966   0.59432   0.20119   0.00000  Uiso   1.00
O499   O     0.63292   0.85542   0.53768   0.00000  Uiso   1.00
O500   O     0.56479   0.38346   0.53645   0.00000  Uiso   1.00
N501   N     0.77483   0.59366   0.04278   0.00000  Uiso   1.00
N502   N     0.67739   0.77973   0.56996   0.00000  Uiso   1.00
N503   N     0.62883   0.44342   0.56907   0.00000  Uiso   1.00
N504   N     0.69904   0.60455   0.10514   0.00000  Uiso   1.00
N505   N     0.60160   0.79062   0.63232   0.00000  Uiso   1.00
N506   N     0.55305   0.45431   0.63142   0.00000  Uiso   1.00
C507   C     0.20036   0.10463   0.22182   0.00000  Uiso   1.00
C508   C     0.20236   0.10426   0.32551   0.00000  Uiso   1.00
C509   C     0.24626   0.09789   0.37796   0.00000  Uiso   1.00
C510   C     0.24003   0.09873   0.47177   0.00000  Uiso   1.00
C511   C     0.25051   0.09712   0.62673   0.00000  Uiso   1.00
C512   C     0.17551   0.15555   0.19521   0.00000  Uiso   1.00
C513   C     0.19683   0.19230   0.13810   0.00000  Uiso   1.00
C514   C     0.16799   0.23630   0.12221   0.00000  Uiso   1.00
C515   C     0.13677   0.31431   0.07482   0.00000  Uiso   1.00
C516   C     0.16213   0.06286   0.19498   0.00000  Uiso   1.00
C517   C     0.17220   0.02168   0.13765   0.00000  Uiso   1.00
C518   C     0.13209   0.98765   0.12155   0.00000  Uiso   1.00
C519   C     0.08009   0.92174   0.07379   0.00000  Uiso   1.00
C520   C     0.11123   0.11743   0.29514   0.00000  Uiso   1.00
C521   C     0.15395   0.11122   0.36534   0.00000  Uiso   1.00
C522   C     0.14765   0.11206   0.45909   0.00000  Uiso   1.00
C523   C     0.19154   0.10569   0.51167   0.00000  Uiso   1.00
C524   C     0.12710   0.16250   0.23504   0.00000  Uiso   1.00
C525   C     0.09822   0.20646   0.21922   0.00000  Uiso   1.00
C526   C     0.11950   0.24327   0.16211   0.00000  Uiso   1.00
C527   C     0.11372   0.06981   0.23480   0.00000  Uiso   1.00
C528   C     0.07359   0.03584   0.21878   0.00000  Uiso   1.00
C529   C     0.08360   0.99462   0.16144   0.00000  Uiso   1.00
H530   H     0.23805   0.09921   0.19081   0.00000  Uiso   1.00
H531   H     0.28372   0.09251   0.34712   0.00000  Uiso   1.00
H532   H     0.23429   0.18690   0.10728   0.00000  Uiso   1.00
H533   H     0.20966   0.01631   0.10684   0.00000  Uiso   1.00
H534   H     0.31301   0.08817   0.53798   0.00000  Uiso   1.00
H535   H     0.20878   0.28718   0.03225   0.00000  Uiso   1.00
H536   H     0.15685   0.92745   0.03131   0.00000  Uiso   1.00
H537   H     0.07354   0.12285   0.32615   0.00000  Uiso   1.00
H538   H     0.11019   0.11744   0.48989   0.00000  Uiso   1.00
H539   H     0.06076   0.21183   0.25005   0.00000  Uiso   1.00
H540   H     0.03614   0.04124   0.24961   0.00000  Uiso   1.00
H541   H     0.17216   0.10841   0.65386   0.00000  Uiso   1.00
H542   H     0.06794   0.30742   0.14812   0.00000  Uiso   1.00
H543   H     0.01601   0.94769   0.14719   0.00000  Uiso   1.00
O544   O     0.26966   0.09432   0.70119   0.00000  Uiso   1.00
O545   O     0.13292   0.35542   0.03768   0.00000  Uiso   1.00
O546   O     0.06479   0.88346   0.03645   0.00000  Uiso   1.00
N547   N     0.27483   0.09366   0.54278   0.00000  Uiso   1.00
N548   N     0.17739   0.27973   0.06996   0.00000  Uiso   1.00
N549   N     0.12883   0.94342   0.06907   0.00000  Uiso   1.00
N550   N     0.19904   0.10455   0.60514   0.00000  Uiso   1.00
N551   N     0.10160   0.29062   0.13232   0.00000  Uiso   1.00
N552   N     0.05305   0.95431   0.13142   0.00000  Uiso   1.00
C553   C     0.60463   0.79964   0.97182   0.00000  Uiso   1.00
C554   C     0.60426   0.79764   0.07551   0.00000  Uiso   1.00
C555   C     0.59789   0.75374   0.12796   0.00000  Uiso   1.00
C556   C     0.59873   0.75997   0.22177   0.00000  Uiso   1.00
C557   C     0.59712   0.74949   0.37673   0.00000  Uiso   1.00
C558   C     0.65555   0.82449   0.94521   0.00000  Uiso   1.00
C559   C     0.69230   0.80317   0.88810   0.00000  Uiso   1.00
C560   C     0.73630   0.83201   0.87221   0.00000  Uiso   1.00
C561   C     0.81431   0.86323   0.82482   0.00000  Uiso   1.00
C562   C     0.56286   0.83787   0.94498   0.00000  Uiso   1.00
C563   C     0.52168   0.82780   0.88765   0.00000  Uiso   1.00
C564   C     0.48765   0.86791   0.87155   0.00000  Uiso   1.00
C565   C     0.42174   0.91991   0.82379   0.00000  Uiso   1.00
C566   C     0.61743   0.88877   0.04514   0.00000  Uiso   1.00
C567   C     0.61122   0.84605   0.11534   0.00000  Uiso   1.00
C568   C     0.61206   0.85235   0.20909   0.00000  Uiso   1.00
C569   C     0.60569   0.80846   0.26167   0.00000  Uiso   1.00
C570   C     0.66250   0.87290   0.98504   0.00000  Uiso   1.00
C571   C     0.70646   0.90178   0.96922   0.00000  Uiso   1.00
C572   C     0.74327   0.88050   0.91211   0.00000  Uiso   1.00
C573   C     0.56981   0.88628   0.98480   0.00000  Uiso   1.00
C574   C     0.53584   0.92641   0.96878   0.00000  Uiso   1.00
C575   C     0.49462   0.91640   0.91144   0.00000  Uiso   1.00
H576   H     0.59921   0.76195   0.94081   0.00000  Uiso   1.00
H577   H     0.59251   0.71628   0.09712   0.00000  Uiso   1.00
H578   H     0.68690   0.76571   0.85728   0.00000  Uiso   1.00
H579   H     0.51631   0.79034   0.85684   0.00000  Uiso   1.00
H580   H     0.58817   0.68699   0.28798   0.00000  Uiso   1.00
H581   H     0.78718   0.79122   0.78225   0.00000  Uiso   1.00
H582   H     0.42745   0.84315   0.78131   0.00000  Uiso   1.00
H583   H     0.62285   0.92646   0.07615   0.00000  Uiso   1.00
H584   H     0.61744   0.88981   0.23989   0.00000  Uiso   1.00
H585   H     0.71183   0.93924   0.00005   0.00000  Uiso   1.00
H586   H     0.54124   0.96386   0.99961   0.00000  Uiso   1.00
H587   H     0.60841   0.82784   0.40386   0.00000  Uiso   1.00
H588   H     0.80742   0.93206   0.89812   0.00000  Uiso   1.00
H589   H     0.44769   0.98399   0.89719   0.00000  Uiso   1.00
O590   O     0.59432   0.73034   0.45119   0.00000  Uiso   1.00
O591   O     0.85542   0.86708   0.78768   0.00000  Uiso   1.00
O592   O     0.38346   0.93521   0.78645   0.00000  Uiso   1.00
N593   N     0.59366   0.72517   0.29278   0.00000  Uiso   1.00
N594   N     0.77973   0.82261   0.81996   0.00000  Uiso   1.00
N595   N     0.44342   0.87117   0.81907   0.00000  Uiso   1.00
N596   N     0.60455   0.80096   0.35514   0.00000  Uiso   1.00
N597   N     0.79062   0.89840   0.88232   0.00000  Uiso   1.00
N598   N     0.45431   0.94695   0.88142   0.00000  Uiso   1.00
C599   C     0.10463   0.29964   0.47182   0.00000  Uiso   1.00
C600   C     0.10426   0.29764   0.57551   0.00000  Uiso   1.00
C601   C     0.09789   0.25374   0.62796   0.00000  Uiso   1.00
C602   C     0.09873   0.25997   0.72177   0.00000  Uiso   1.00
C603   C     0.09712   0.24949   0.87673   0.00000  Uiso   1.00
C604   C     0.15555   0.32449   0.44521   0.00000  Uiso   1.00
C605   C     0.19230   0.30317   0.38810   0.00000  Uiso   1.00
C606   C     0.23630   0.33201   0.37221   0.00000  Uiso   1.00
C607   C     0.31431   0.36323   0.32482   0.00000  Uiso   1.00
C608   C     0.06286   0.33787   0.44498   0.00000  Uiso   1.00
C609   C     0.02168   0.32780   0.38765   0.00000  Uiso   1.00
C610   C     0.98765   0.36791   0.37155   0.00000  Uiso   1.00
C611   C     0.92174   0.41991   0.32379   0.00000  Uiso   1.00
C612   C     0.11743   0.38877   0.54514   0.00000  Uiso   1.00
C613   C     0.11122   0.34605   0.61534   0.00000  Uiso   1.00
C614   C     0.11206   0.35235   0.70909   0.00000  Uiso   1.00
C615   C     0.10569   0.30846   0.76167   0.00000  Uiso   1.00
C616   C     0.16250   0.37290   0.48504   0.00000  Uiso   1.00
C617   C     0.20646   0.40178   0.46922   0.00000  Uiso   1.00
C618   C     0.24327   0.38050   0.41211   0.00000  Uiso   1.00
C619   C     0.06981   0.38628   0.48480   0.00000  Uiso   1.00
C620   C     0.03584   0.42641   0.46878   0.00000  Uiso   1.00
C621   C     0.99462   0.41640   0.41144   0.00000  Uiso   1.00
H622   H     0.09921   0.26195   0.44081   0.00000  Uiso   1.00
H623   H     0.09251   0.21628   0.59712   0.00000  Uiso   1.00
H624   H     0.18690   0.26571   0.35728   0.00000  Uiso   1.00
H625   H     0.01631   0.29034   0.35684   0.00000  Uiso   1.00
H626   H     0.08817   0.18699   0.78798   0.00000  Uiso   1.00
H627   H     0.28718   0.29122   0.28225   0.00000  Uiso   1.00
H628   H     0.92745   0.34315   0.28131   0.00000  Uiso   1.00
H629   H     0.12285   0.42646   0.57615   0.00000  Uiso   1.00
H630   H     0.11744   0.38981   0.73989   0.00000  Uiso   1.00
H631   H     0.21183   0.43924   0.50005   0.00000  Uiso   1.00
H632   H     0.04124   0.46386   0.49961   0.00000  Uiso   1.00
H633   H     0.10841   0.32784   0.90386   0.00000  Uiso   1.00
H634   H     0.30742   0.43206   0.39812   0.00000  Uiso   1.00
H635   H     0.94769   0.48399   0.39719   0.00000  Uiso   1.00
O636   O     0.09432   0.23034   0.95119   0.00000  Uiso   1.00
O637   O     0.35542   0.36708   0.28768   0.00000  Uiso   1.00
O638   O     0.88346   0.43521   0.28645   0.00000  Uiso   1.00
N639   N     0.09366   0.22517   0.79278   0.00000  Uiso   1.00
N640   N     0.27973   0.32261   0.31996   0.00000  Uiso   1.00
N641   N     0.94342   0.37117   0.31907   0.00000  Uiso   1.00
N642   N     0.10455   0.30096   0.85514   0.00000  Uiso   1.00
N643   N     0.29062   0.39840   0.38232   0.00000  Uiso   1.00
N644   N     0.95431   0.44695   0.38142   0.00000  Uiso   1.00
C645   C     0.89537   0.70036   0.47182   0.00000  Uiso   1.00
C646   C     0.89574   0.70236   0.57551   0.00000  Uiso   1.00
C647   C     0.90211   0.74626   0.62796   0.00000  Uiso   1.00
C648   C     0.90127   0.74003   0.72177   0.00000  Uiso   1.00
C649   C     0.90288   0.75051   0.87673   0.00000  Uiso   1.00
C650   C     0.84445   0.67551   0.44521   0.00000  Uiso   1.00
C651   C     0.80770   0.69683   0.38810   0.00000  Uiso   1.00
C652   C     0.76370   0.66799   0.37221   0.00000  Uiso   1.00
C653   C     0.68569   0.63677   0.32482   0.00000  Uiso   1.00
C654   C     0.93714   0.66213   0.44498   0.00000  Uiso   1.00
C655   C     0.97832   0.67220   0.38765   0.00000  Uiso   1.00
C656   C     0.01235   0.63209   0.37155   0.00000  Uiso   1.00
C657   C     0.07826   0.58009   0.32379   0.00000  Uiso   1.00
C658   C     0.88257   0.61123   0.54514   0.00000  Uiso   1.00
C659   C     0.88878   0.65395   0.61534   0.00000  Uiso   1.00
C660   C     0.88794   0.64765   0.70909   0.00000  Uiso   1.00
C661   C     0.89431   0.69154   0.76167   0.00000  Uiso   1.00
C662   C     0.83750   0.62710   0.48504   0.00000  Uiso   1.00
C663   C     0.79354   0.59822   0.46922   0.00000  Uiso   1.00
C664   C     0.75673   0.61950   0.41211   0.00000  Uiso   1.00
C665   C     0.93019   0.61372   0.48480   0.00000  Uiso   1.00
C666   C     0.96416   0.57359   0.46878   0.00000  Uiso   1.00
C667   C     0.00538   0.58360   0.41144   0.00000  Uiso   1.00
H668   H     0.90079   0.73805   0.44081   0.00000  Uiso   1.00
H669   H     0.90749   0.78372   0.59712   0.00000  Uiso   1.00
H670   H     0.81310   0.73429   0.35728   0.00000  Uiso   1.00
H671   H     0.98369   0.70966   0.35684   0.00000  Uiso   1.00
H672   H     0.91183   0.81301   0.78798   0.00000  Uiso   1.00
H673   H     0.71282   0.70878   0.28225   0.00000  Uiso   1.00
H674   H     0.07255   0.65685   0.28131   0.00000  Uiso   1.00
H675   H     0.87715   0.57354   0.57615   0.00000  Uiso   1.00
H676   H     0.88256   0.61019   0.73989   0.00000  Uiso   1.00
H677   H     0.78817   0.56076   0.50005   0.00000  Uiso   1.00
H678   H     0.95876   0.53614   0.49961   0.00000  Uiso   1.00
H679   H     0.89159   0.67216   0.90386   0.00000  Uiso   1.00
H680   H     0.69258   0.56794   0.39812   0.00000  Uiso   1.00
H681   H     0.05231   0.51601   0.39719   0.00000  Uiso   1.00
O682   O     0.90568   0.76966   0.95119   0.00000  Uiso   1.00
O683   O     0.64458   0.63292   0.28768   0.00000  Uiso   1.00
O684   O     0.11654   0.56479   0.28645   0.00000  Uiso   1.00
N685   N     0.90634   0.77483   0.79278   0.00000  Uiso   1.00
N686   N     0.72027   0.67739   0.31996   0.00000  Uiso   1.00
N687   N     0.05658   0.62883   0.31907   0.00000  Uiso   1.00
N688   N     0.89545   0.69904   0.85514   0.00000  Uiso   1.00
N689   N     0.70938   0.60160   0.38232   0.00000  Uiso   1.00
N690   N     0.04569   0.55305   0.38142   0.00000  Uiso   1.00
C691   C     0.39537   0.20036   0.97182   0.00000  Uiso   1.00
C692   C     0.39574   0.20236   0.07551   0.00000  Uiso   1.00
C693   C     0.40211   0.24626   0.12796   0.00000  Uiso   1.00
C694   C     0.40127   0.24003   0.22177   0.00000  Uiso   1.00
C695   C     0.40288   0.25051   0.37673   0.00000  Uiso   1.00
C696   C     0.34445   0.17551   0.94521   0.00000  Uiso   1.00
C697   C     0.30770   0.19683   0.88810   0.00000  Uiso   1.00
C698   C     0.26370   0.16799   0.87221   0.00000  Uiso   1.00
C699   C     0.18569   0.13677   0.82482   0.00000  Uiso   1.00
C700   C     0.43714   0.16213   0.94498   0.00000  Uiso   1.00
C701   C     0.47832   0.17220   0.88765   0.00000  Uiso   1.00
C702   C     0.51235   0.13209   0.87155   0.00000  Uiso   1.00
C703   C     0.57826   0.08009   0.82379   0.00000  Uiso   1.00
C704   C     0.38257   0.11123   0.04514   0.00000  Uiso   1.00
C705   C     0.38878   0.15395   0.11534   0.00000  Uiso   1.00
C706   C     0.38794   0.14765   0.20909   0.00000  Uiso   1.00
C707   C     0.39431   0.19154   0.26167   0.00000  Uiso   1.00
C708   C     0.33750   0.12710   0.98504   0.00000  Uiso   1.00
C709   C     0.29354   0.09822   0.96922   0.00000  Uiso   1.00
C710   C     0.25673   0.11950   0.91211   0.00000  Uiso   1.00
C711   C     0.43019   0.11372   0.98480   0.00000  Uiso   1.00
C712   C     0.46416   0.07359   0.96878   0.00000  Uiso   1.00
C713   C     0.50538   0.08360   0.91144   0.00000  Uiso   1.00
H714   H     0.40079   0.23805   0.94081   0.00000  Uiso   1.00
H715   H     0.40749   0.28372   0.09712   0.00000  Uiso   1.00
H716   H     0.31310   0.23429   0.85728   0.00000  Uiso   1.00
H717   H     0.48369   0.20966   0.85684   0.00000  Uiso   1.00
H718   H     0.41183   0.31301   0.28798   0.00000  Uiso   1.00
H719   H     0.21282   0.20878   0.78225   0.00000  Uiso   1.00
H720   H     0.57255   0.15685   0.78131   0.00000  Uiso   1.00
H721   H     0.37715   0.07354   0.07615   0.00000  Uiso   1.00
H722   H     0.38256   0.11019   0.23989   0.00000  Uiso   1.00
H723   H     0.28817   0.06076   0.00005   0.00000  Uiso   1.00
H724   H     0.45876   0.03614   0.99961   0.00000  Uiso   1.00
H725   H     0.39159   0.17216   0.40386   0.00000  Uiso   1.00
H726   H     0.19258   0.06794   0.89812   0.00000  Uiso   1.00
H727   H     0.55231   0.01601   0.89719   0.00000  Uiso   1.00
O728   O     0.40568   0.26966   0.45119   0.00000  Uiso   1.00
O729   O     0.14458   0.13292   0.78768   0.00000  Uiso   1.00
O730   O     0.61654   0.06479   0.78645   0.00000  Uiso   1.00
N731   N     0.40634   0.27483   0.29278   0.00000  Uiso   1.00
N732   N     0.22027   0.17739   0.81996   0.00000  Uiso   1.00
N733   N     0.55658   0.12883   0.81907   0.00000  Uiso   1.00
N734   N     0.39545   0.19904   0.35514   0.00000  Uiso   1.00
N735   N     0.20938   0.10160   0.88232   0.00000  Uiso   1.00
N736   N     0.54569   0.05305   0.88142   0.00000  Uiso   1.00
