data_job_03161
_audit_creation_date              2018-12-19
_audit_creation_method            'Materials Studio'
_symmetry_space_group_name_H-M    'P1'
_symmetry_Int_Tables_number       1
_symmetry_cell_setting            triclinic
loop_
_symmetry_equiv_pos_as_xyz
  x,y,z
_cell_length_a                    25.5397
_cell_length_b                    25.5397
_cell_length_c                    20.0325
_cell_angle_alpha                 90.0000
_cell_angle_beta                  90.0000
_cell_angle_gamma                 90.0000
loop_
_atom_site_label
_atom_site_type_symbol
_atom_site_fract_x
_atom_site_fract_y
_atom_site_fract_z
_atom_site_U_iso_or_equiv
_atom_site_adp_type
_atom_site_occupancy
C1     C     0.39159   0.75166   0.42250   0.00000  Uiso   1.00
C2     C     0.36110   0.80224   0.41136   0.00000  Uiso   1.00
C3     C     0.32015   0.80896   0.36663   0.00000  Uiso   1.00
C4     C     0.29736   0.85827   0.36388   0.00000  Uiso   1.00
C5     C     0.24736   0.93057   0.34039   0.00000  Uiso   1.00
C6     C     0.44899   0.76517   0.41054   0.00000  Uiso   1.00
C7     C     0.48194   0.74071   0.36513   0.00000  Uiso   1.00
C8     C     0.53313   0.75880   0.36169   0.00000  Uiso   1.00
C9     C     0.61959   0.77353   0.33697   0.00000  Uiso   1.00
C10    C     0.38684   0.73938   0.49674   0.00000  Uiso   1.00
C11    C     0.36755   0.69323   0.52382   0.00000  Uiso   1.00
C12    C     0.36644   0.68960   0.59296   0.00000  Uiso   1.00
C13    C     0.35641   0.66428   0.70208   0.00000  Uiso   1.00
C14    C     0.42392   0.82727   0.49715   0.00000  Uiso   1.00
C15    C     0.37866   0.84331   0.45191   0.00000  Uiso   1.00
C16    C     0.35592   0.89262   0.44922   0.00000  Uiso   1.00
C17    C     0.31494   0.89941   0.40450   0.00000  Uiso   1.00
C18    C     0.46655   0.80624   0.45109   0.00000  Uiso   1.00
C19    C     0.51770   0.82437   0.44772   0.00000  Uiso   1.00
C20    C     0.55072   0.79995   0.40231   0.00000  Uiso   1.00
C21    C     0.40440   0.78045   0.53729   0.00000  Uiso   1.00
C22    C     0.40332   0.77689   0.60641   0.00000  Uiso   1.00
C23    C     0.38403   0.73074   0.63358   0.00000  Uiso   1.00
H24    H     0.37792   0.71968   0.39093   0.00000  Uiso   1.00
H25    H     0.30658   0.77717   0.33526   0.00000  Uiso   1.00
H26    H     0.46834   0.70892   0.33376   0.00000  Uiso   1.00
H27    H     0.35397   0.66145   0.49242   0.00000  Uiso   1.00
H28    H     0.23523   0.85902   0.29140   0.00000  Uiso   1.00
H29    H     0.57632   0.71511   0.28826   0.00000  Uiso   1.00
H30    H     0.33516   0.61501   0.62283   0.00000  Uiso   1.00
H31    H     0.43759   0.85925   0.52872   0.00000  Uiso   1.00
H32    H     0.36951   0.92440   0.48061   0.00000  Uiso   1.00
H33    H     0.53128   0.85615   0.47911   0.00000  Uiso   1.00
H34    H     0.41691   0.80868   0.63777   0.00000  Uiso   1.00
H35    H     0.28632   0.97852   0.40937   0.00000  Uiso   1.00
H36    H     0.62741   0.83461   0.40623   0.00000  Uiso   1.00
H37    H     0.38624   0.73450   0.74080   0.00000  Uiso   1.00
O38    O     0.21493   0.95911   0.31623   0.00000  Uiso   1.00
O39    O     0.66243   0.77030   0.31212   0.00000  Uiso   1.00
O40    O     0.34602   0.63897   0.75107   0.00000  Uiso   1.00
N41    N     0.25659   0.87820   0.32577   0.00000  Uiso   1.00
N42    N     0.57549   0.74366   0.32283   0.00000  Uiso   1.00
N43    N     0.35003   0.65006   0.63563   0.00000  Uiso   1.00
N44    N     0.28408   0.94250   0.38925   0.00000  Uiso   1.00
N45    N     0.60298   0.80796   0.38631   0.00000  Uiso   1.00
N46    N     0.37752   0.71436   0.69910   0.00000  Uiso   1.00
C47    C     0.89159   0.25166   0.92250   0.00000  Uiso   1.00
C48    C     0.86110   0.30224   0.91136   0.00000  Uiso   1.00
C49    C     0.82015   0.30896   0.86663   0.00000  Uiso   1.00
C50    C     0.79736   0.35827   0.86388   0.00000  Uiso   1.00
C51    C     0.74736   0.43057   0.84039   0.00000  Uiso   1.00
C52    C     0.94899   0.26517   0.91054   0.00000  Uiso   1.00
C53    C     0.98194   0.24071   0.86513   0.00000  Uiso   1.00
C54    C     0.03313   0.25880   0.86169   0.00000  Uiso   1.00
C55    C     0.11959   0.27353   0.83697   0.00000  Uiso   1.00
C56    C     0.88684   0.23938   0.99674   0.00000  Uiso   1.00
C57    C     0.86755   0.19323   0.02382   0.00000  Uiso   1.00
C58    C     0.86644   0.18960   0.09296   0.00000  Uiso   1.00
C59    C     0.85641   0.16428   0.20208   0.00000  Uiso   1.00
C60    C     0.92392   0.32727   0.99715   0.00000  Uiso   1.00
C61    C     0.87866   0.34331   0.95191   0.00000  Uiso   1.00
C62    C     0.85592   0.39262   0.94922   0.00000  Uiso   1.00
C63    C     0.81494   0.39941   0.90450   0.00000  Uiso   1.00
C64    C     0.96655   0.30624   0.95109   0.00000  Uiso   1.00
C65    C     0.01770   0.32437   0.94772   0.00000  Uiso   1.00
C66    C     0.05072   0.29995   0.90231   0.00000  Uiso   1.00
C67    C     0.90440   0.28045   0.03729   0.00000  Uiso   1.00
C68    C     0.90332   0.27689   0.10641   0.00000  Uiso   1.00
C69    C     0.88403   0.23074   0.13358   0.00000  Uiso   1.00
H70    H     0.87792   0.21968   0.89093   0.00000  Uiso   1.00
H71    H     0.80658   0.27717   0.83526   0.00000  Uiso   1.00
H72    H     0.96834   0.20892   0.83376   0.00000  Uiso   1.00
H73    H     0.85397   0.16145   0.99242   0.00000  Uiso   1.00
H74    H     0.73523   0.35902   0.79140   0.00000  Uiso   1.00
H75    H     0.07632   0.21511   0.78826   0.00000  Uiso   1.00
H76    H     0.83516   0.11501   0.12283   0.00000  Uiso   1.00
H77    H     0.93759   0.35925   0.02872   0.00000  Uiso   1.00
H78    H     0.86951   0.42440   0.98061   0.00000  Uiso   1.00
H79    H     0.03128   0.35615   0.97911   0.00000  Uiso   1.00
H80    H     0.91691   0.30868   0.13777   0.00000  Uiso   1.00
H81    H     0.78632   0.47852   0.90937   0.00000  Uiso   1.00
H82    H     0.12741   0.33461   0.90623   0.00000  Uiso   1.00
H83    H     0.88624   0.23450   0.24080   0.00000  Uiso   1.00
O84    O     0.71493   0.45911   0.81623   0.00000  Uiso   1.00
O85    O     0.16243   0.27030   0.81212   0.00000  Uiso   1.00
O86    O     0.84602   0.13897   0.25107   0.00000  Uiso   1.00
N87    N     0.75659   0.37820   0.82577   0.00000  Uiso   1.00
N88    N     0.07549   0.24366   0.82283   0.00000  Uiso   1.00
N89    N     0.85003   0.15006   0.13563   0.00000  Uiso   1.00
N90    N     0.78408   0.44250   0.88925   0.00000  Uiso   1.00
N91    N     0.10298   0.30796   0.88631   0.00000  Uiso   1.00
N92    N     0.87752   0.21436   0.19910   0.00000  Uiso   1.00
C93    C     0.10841   0.74834   0.92250   0.00000  Uiso   1.00
C94    C     0.13890   0.69776   0.91136   0.00000  Uiso   1.00
C95    C     0.17985   0.69104   0.86663   0.00000  Uiso   1.00
C96    C     0.20264   0.64173   0.86388   0.00000  Uiso   1.00
C97    C     0.25264   0.56943   0.84039   0.00000  Uiso   1.00
C98    C     0.05101   0.73483   0.91054   0.00000  Uiso   1.00
C99    C     0.01806   0.75929   0.86513   0.00000  Uiso   1.00
C100   C     0.96687   0.74120   0.86169   0.00000  Uiso   1.00
C101   C     0.88041   0.72647   0.83697   0.00000  Uiso   1.00
C102   C     0.11316   0.76062   0.99674   0.00000  Uiso   1.00
C103   C     0.13245   0.80677   0.02382   0.00000  Uiso   1.00
C104   C     0.13356   0.81040   0.09296   0.00000  Uiso   1.00
C105   C     0.14359   0.83572   0.20208   0.00000  Uiso   1.00
C106   C     0.07608   0.67273   0.99715   0.00000  Uiso   1.00
C107   C     0.12134   0.65669   0.95191   0.00000  Uiso   1.00
C108   C     0.14408   0.60738   0.94922   0.00000  Uiso   1.00
C109   C     0.18506   0.60059   0.90450   0.00000  Uiso   1.00
C110   C     0.03345   0.69376   0.95109   0.00000  Uiso   1.00
C111   C     0.98230   0.67563   0.94772   0.00000  Uiso   1.00
C112   C     0.94928   0.70005   0.90231   0.00000  Uiso   1.00
C113   C     0.09560   0.71955   0.03729   0.00000  Uiso   1.00
C114   C     0.09668   0.72311   0.10641   0.00000  Uiso   1.00
C115   C     0.11597   0.76926   0.13358   0.00000  Uiso   1.00
H116   H     0.12208   0.78032   0.89093   0.00000  Uiso   1.00
H117   H     0.19342   0.72283   0.83526   0.00000  Uiso   1.00
H118   H     0.03166   0.79108   0.83376   0.00000  Uiso   1.00
H119   H     0.14603   0.83855   0.99242   0.00000  Uiso   1.00
H120   H     0.26477   0.64098   0.79140   0.00000  Uiso   1.00
H121   H     0.92368   0.78489   0.78826   0.00000  Uiso   1.00
H122   H     0.16484   0.88499   0.12283   0.00000  Uiso   1.00
H123   H     0.06241   0.64075   0.02872   0.00000  Uiso   1.00
H124   H     0.13049   0.57560   0.98061   0.00000  Uiso   1.00
H125   H     0.96872   0.64385   0.97911   0.00000  Uiso   1.00
H126   H     0.08309   0.69132   0.13777   0.00000  Uiso   1.00
H127   H     0.21368   0.52148   0.90937   0.00000  Uiso   1.00
H128   H     0.87259   0.66539   0.90623   0.00000  Uiso   1.00
H129   H     0.11376   0.76550   0.24080   0.00000  Uiso   1.00
O130   O     0.28507   0.54089   0.81623   0.00000  Uiso   1.00
O131   O     0.83757   0.72970   0.81212   0.00000  Uiso   1.00
O132   O     0.15398   0.86103   0.25107   0.00000  Uiso   1.00
N133   N     0.24341   0.62180   0.82577   0.00000  Uiso   1.00
N134   N     0.92451   0.75634   0.82283   0.00000  Uiso   1.00
N135   N     0.14997   0.84994   0.13563   0.00000  Uiso   1.00
N136   N     0.21592   0.55750   0.88925   0.00000  Uiso   1.00
N137   N     0.89702   0.69204   0.88631   0.00000  Uiso   1.00
N138   N     0.12248   0.78564   0.19910   0.00000  Uiso   1.00
C139   C     0.60841   0.24834   0.42250   0.00000  Uiso   1.00
C140   C     0.63890   0.19776   0.41136   0.00000  Uiso   1.00
C141   C     0.67985   0.19104   0.36663   0.00000  Uiso   1.00
C142   C     0.70264   0.14173   0.36388   0.00000  Uiso   1.00
C143   C     0.75264   0.06943   0.34039   0.00000  Uiso   1.00
C144   C     0.55101   0.23483   0.41054   0.00000  Uiso   1.00
C145   C     0.51806   0.25929   0.36513   0.00000  Uiso   1.00
C146   C     0.46687   0.24120   0.36169   0.00000  Uiso   1.00
C147   C     0.38041   0.22647   0.33697   0.00000  Uiso   1.00
C148   C     0.61316   0.26062   0.49674   0.00000  Uiso   1.00
C149   C     0.63245   0.30677   0.52382   0.00000  Uiso   1.00
C150   C     0.63356   0.31040   0.59296   0.00000  Uiso   1.00
C151   C     0.64359   0.33572   0.70208   0.00000  Uiso   1.00
C152   C     0.57608   0.17273   0.49715   0.00000  Uiso   1.00
C153   C     0.62134   0.15669   0.45191   0.00000  Uiso   1.00
C154   C     0.64408   0.10738   0.44922   0.00000  Uiso   1.00
C155   C     0.68506   0.10059   0.40450   0.00000  Uiso   1.00
C156   C     0.53345   0.19376   0.45109   0.00000  Uiso   1.00
C157   C     0.48230   0.17563   0.44772   0.00000  Uiso   1.00
C158   C     0.44928   0.20005   0.40231   0.00000  Uiso   1.00
C159   C     0.59560   0.21955   0.53729   0.00000  Uiso   1.00
C160   C     0.59668   0.22311   0.60641   0.00000  Uiso   1.00
C161   C     0.61597   0.26926   0.63358   0.00000  Uiso   1.00
H162   H     0.62208   0.28032   0.39093   0.00000  Uiso   1.00
H163   H     0.69342   0.22283   0.33526   0.00000  Uiso   1.00
H164   H     0.53166   0.29108   0.33376   0.00000  Uiso   1.00
H165   H     0.64603   0.33855   0.49242   0.00000  Uiso   1.00
H166   H     0.76477   0.14098   0.29140   0.00000  Uiso   1.00
H167   H     0.42368   0.28489   0.28826   0.00000  Uiso   1.00
H168   H     0.66484   0.38499   0.62283   0.00000  Uiso   1.00
H169   H     0.56241   0.14075   0.52872   0.00000  Uiso   1.00
H170   H     0.63049   0.07560   0.48061   0.00000  Uiso   1.00
H171   H     0.46872   0.14385   0.47911   0.00000  Uiso   1.00
H172   H     0.58309   0.19132   0.63777   0.00000  Uiso   1.00
H173   H     0.71368   0.02148   0.40937   0.00000  Uiso   1.00
H174   H     0.37259   0.16539   0.40623   0.00000  Uiso   1.00
H175   H     0.61376   0.26550   0.74080   0.00000  Uiso   1.00
O176   O     0.78507   0.04089   0.31623   0.00000  Uiso   1.00
O177   O     0.33757   0.22970   0.31212   0.00000  Uiso   1.00
O178   O     0.65398   0.36103   0.75107   0.00000  Uiso   1.00
N179   N     0.74341   0.12180   0.32577   0.00000  Uiso   1.00
N180   N     0.42451   0.25634   0.32283   0.00000  Uiso   1.00
N181   N     0.64997   0.34994   0.63563   0.00000  Uiso   1.00
N182   N     0.71592   0.05750   0.38925   0.00000  Uiso   1.00
N183   N     0.39702   0.19204   0.38631   0.00000  Uiso   1.00
N184   N     0.62248   0.28564   0.69910   0.00000  Uiso   1.00
C185   C     0.24834   0.89159   0.67250   0.00000  Uiso   1.00
C186   C     0.19776   0.86110   0.66136   0.00000  Uiso   1.00
C187   C     0.19104   0.82015   0.61663   0.00000  Uiso   1.00
C188   C     0.14173   0.79736   0.61388   0.00000  Uiso   1.00
C189   C     0.06943   0.74736   0.59039   0.00000  Uiso   1.00
C190   C     0.23483   0.94899   0.66054   0.00000  Uiso   1.00
C191   C     0.25929   0.98194   0.61513   0.00000  Uiso   1.00
C192   C     0.24120   0.03313   0.61169   0.00000  Uiso   1.00
C193   C     0.22647   0.11959   0.58697   0.00000  Uiso   1.00
C194   C     0.26062   0.88684   0.74674   0.00000  Uiso   1.00
C195   C     0.30677   0.86755   0.77382   0.00000  Uiso   1.00
C196   C     0.31040   0.86644   0.84296   0.00000  Uiso   1.00
C197   C     0.33572   0.85641   0.95208   0.00000  Uiso   1.00
C198   C     0.17273   0.92392   0.74715   0.00000  Uiso   1.00
C199   C     0.15669   0.87866   0.70191   0.00000  Uiso   1.00
C200   C     0.10738   0.85592   0.69922   0.00000  Uiso   1.00
C201   C     0.10059   0.81494   0.65450   0.00000  Uiso   1.00
C202   C     0.19376   0.96655   0.70109   0.00000  Uiso   1.00
C203   C     0.17563   0.01770   0.69772   0.00000  Uiso   1.00
C204   C     0.20005   0.05072   0.65231   0.00000  Uiso   1.00
C205   C     0.21955   0.90440   0.78729   0.00000  Uiso   1.00
C206   C     0.22311   0.90332   0.85641   0.00000  Uiso   1.00
C207   C     0.26926   0.88403   0.88358   0.00000  Uiso   1.00
H208   H     0.28032   0.87792   0.64093   0.00000  Uiso   1.00
H209   H     0.22283   0.80658   0.58526   0.00000  Uiso   1.00
H210   H     0.29108   0.96834   0.58376   0.00000  Uiso   1.00
H211   H     0.33855   0.85397   0.74242   0.00000  Uiso   1.00
H212   H     0.14098   0.73523   0.54140   0.00000  Uiso   1.00
H213   H     0.28489   0.07632   0.53826   0.00000  Uiso   1.00
H214   H     0.38499   0.83516   0.87283   0.00000  Uiso   1.00
H215   H     0.14075   0.93759   0.77872   0.00000  Uiso   1.00
H216   H     0.07560   0.86951   0.73061   0.00000  Uiso   1.00
H217   H     0.14385   0.03128   0.72911   0.00000  Uiso   1.00
H218   H     0.19132   0.91691   0.88777   0.00000  Uiso   1.00
H219   H     0.02148   0.78632   0.65937   0.00000  Uiso   1.00
H220   H     0.16539   0.12741   0.65623   0.00000  Uiso   1.00
H221   H     0.26550   0.88624   0.99080   0.00000  Uiso   1.00
O222   O     0.04089   0.71493   0.56623   0.00000  Uiso   1.00
O223   O     0.22970   0.16243   0.56212   0.00000  Uiso   1.00
O224   O     0.36103   0.84602   0.00107   0.00000  Uiso   1.00
N225   N     0.12180   0.75659   0.57577   0.00000  Uiso   1.00
N226   N     0.25634   0.07549   0.57283   0.00000  Uiso   1.00
N227   N     0.34994   0.85003   0.88563   0.00000  Uiso   1.00
N228   N     0.05750   0.78408   0.63925   0.00000  Uiso   1.00
N229   N     0.19204   0.10298   0.63631   0.00000  Uiso   1.00
N230   N     0.28564   0.87752   0.94910   0.00000  Uiso   1.00
C231   C     0.74834   0.39159   0.17250   0.00000  Uiso   1.00
C232   C     0.69776   0.36110   0.16136   0.00000  Uiso   1.00
C233   C     0.69104   0.32015   0.11663   0.00000  Uiso   1.00
C234   C     0.64173   0.29736   0.11388   0.00000  Uiso   1.00
C235   C     0.56943   0.24736   0.09039   0.00000  Uiso   1.00
C236   C     0.73483   0.44899   0.16054   0.00000  Uiso   1.00
C237   C     0.75929   0.48194   0.11513   0.00000  Uiso   1.00
C238   C     0.74120   0.53313   0.11169   0.00000  Uiso   1.00
C239   C     0.72647   0.61959   0.08697   0.00000  Uiso   1.00
C240   C     0.76062   0.38684   0.24674   0.00000  Uiso   1.00
C241   C     0.80677   0.36755   0.27382   0.00000  Uiso   1.00
C242   C     0.81040   0.36644   0.34296   0.00000  Uiso   1.00
C243   C     0.83572   0.35641   0.45208   0.00000  Uiso   1.00
C244   C     0.67273   0.42392   0.24715   0.00000  Uiso   1.00
C245   C     0.65669   0.37866   0.20191   0.00000  Uiso   1.00
C246   C     0.60738   0.35592   0.19922   0.00000  Uiso   1.00
C247   C     0.60059   0.31494   0.15450   0.00000  Uiso   1.00
C248   C     0.69376   0.46655   0.20109   0.00000  Uiso   1.00
C249   C     0.67563   0.51770   0.19772   0.00000  Uiso   1.00
C250   C     0.70005   0.55072   0.15231   0.00000  Uiso   1.00
C251   C     0.71955   0.40440   0.28729   0.00000  Uiso   1.00
C252   C     0.72311   0.40332   0.35641   0.00000  Uiso   1.00
C253   C     0.76926   0.38403   0.38358   0.00000  Uiso   1.00
H254   H     0.78032   0.37792   0.14093   0.00000  Uiso   1.00
H255   H     0.72283   0.30658   0.08526   0.00000  Uiso   1.00
H256   H     0.79108   0.46834   0.08376   0.00000  Uiso   1.00
H257   H     0.83855   0.35397   0.24242   0.00000  Uiso   1.00
H258   H     0.64098   0.23523   0.04140   0.00000  Uiso   1.00
H259   H     0.78489   0.57632   0.03826   0.00000  Uiso   1.00
H260   H     0.88499   0.33516   0.37283   0.00000  Uiso   1.00
H261   H     0.64075   0.43759   0.27872   0.00000  Uiso   1.00
H262   H     0.57560   0.36951   0.23061   0.00000  Uiso   1.00
H263   H     0.64385   0.53128   0.22911   0.00000  Uiso   1.00
H264   H     0.69132   0.41691   0.38777   0.00000  Uiso   1.00
H265   H     0.52148   0.28632   0.15937   0.00000  Uiso   1.00
H266   H     0.66539   0.62741   0.15623   0.00000  Uiso   1.00
H267   H     0.76550   0.38624   0.49080   0.00000  Uiso   1.00
O268   O     0.54089   0.21493   0.06623   0.00000  Uiso   1.00
O269   O     0.72970   0.66243   0.06212   0.00000  Uiso   1.00
O270   O     0.86103   0.34602   0.50107   0.00000  Uiso   1.00
N271   N     0.62180   0.25659   0.07577   0.00000  Uiso   1.00
N272   N     0.75634   0.57549   0.07283   0.00000  Uiso   1.00
N273   N     0.84994   0.35003   0.38563   0.00000  Uiso   1.00
N274   N     0.55750   0.28408   0.13925   0.00000  Uiso   1.00
N275   N     0.69204   0.60298   0.13631   0.00000  Uiso   1.00
N276   N     0.78564   0.37752   0.44910   0.00000  Uiso   1.00
C277   C     0.25166   0.60841   0.17250   0.00000  Uiso   1.00
C278   C     0.30224   0.63890   0.16136   0.00000  Uiso   1.00
C279   C     0.30896   0.67985   0.11663   0.00000  Uiso   1.00
C280   C     0.35827   0.70264   0.11388   0.00000  Uiso   1.00
C281   C     0.43057   0.75264   0.09039   0.00000  Uiso   1.00
C282   C     0.26517   0.55101   0.16054   0.00000  Uiso   1.00
C283   C     0.24071   0.51806   0.11513   0.00000  Uiso   1.00
C284   C     0.25880   0.46687   0.11169   0.00000  Uiso   1.00
C285   C     0.27353   0.38041   0.08697   0.00000  Uiso   1.00
C286   C     0.23938   0.61316   0.24674   0.00000  Uiso   1.00
C287   C     0.19323   0.63245   0.27382   0.00000  Uiso   1.00
C288   C     0.18960   0.63356   0.34296   0.00000  Uiso   1.00
C289   C     0.16428   0.64359   0.45208   0.00000  Uiso   1.00
C290   C     0.32727   0.57608   0.24715   0.00000  Uiso   1.00
C291   C     0.34331   0.62134   0.20191   0.00000  Uiso   1.00
C292   C     0.39262   0.64408   0.19922   0.00000  Uiso   1.00
C293   C     0.39941   0.68506   0.15450   0.00000  Uiso   1.00
C294   C     0.30624   0.53345   0.20109   0.00000  Uiso   1.00
C295   C     0.32437   0.48230   0.19772   0.00000  Uiso   1.00
C296   C     0.29995   0.44928   0.15231   0.00000  Uiso   1.00
C297   C     0.28045   0.59560   0.28729   0.00000  Uiso   1.00
C298   C     0.27689   0.59668   0.35641   0.00000  Uiso   1.00
C299   C     0.23074   0.61597   0.38358   0.00000  Uiso   1.00
H300   H     0.21968   0.62208   0.14093   0.00000  Uiso   1.00
H301   H     0.27717   0.69342   0.08526   0.00000  Uiso   1.00
H302   H     0.20892   0.53166   0.08376   0.00000  Uiso   1.00
H303   H     0.16145   0.64603   0.24242   0.00000  Uiso   1.00
H304   H     0.35902   0.76477   0.04140   0.00000  Uiso   1.00
H305   H     0.21511   0.42368   0.03826   0.00000  Uiso   1.00
H306   H     0.11501   0.66484   0.37283   0.00000  Uiso   1.00
H307   H     0.35925   0.56241   0.27872   0.00000  Uiso   1.00
H308   H     0.42440   0.63049   0.23061   0.00000  Uiso   1.00
H309   H     0.35615   0.46872   0.22911   0.00000  Uiso   1.00
H310   H     0.30868   0.58309   0.38777   0.00000  Uiso   1.00
H311   H     0.47852   0.71368   0.15937   0.00000  Uiso   1.00
H312   H     0.33461   0.37259   0.15623   0.00000  Uiso   1.00
H313   H     0.23450   0.61376   0.49080   0.00000  Uiso   1.00
O314   O     0.45911   0.78507   0.06623   0.00000  Uiso   1.00
O315   O     0.27030   0.33757   0.06212   0.00000  Uiso   1.00
O316   O     0.13897   0.65398   0.50107   0.00000  Uiso   1.00
N317   N     0.37820   0.74341   0.07577   0.00000  Uiso   1.00
N318   N     0.24366   0.42451   0.07283   0.00000  Uiso   1.00
N319   N     0.15006   0.64997   0.38563   0.00000  Uiso   1.00
N320   N     0.44250   0.71592   0.13925   0.00000  Uiso   1.00
N321   N     0.30796   0.39702   0.13631   0.00000  Uiso   1.00
N322   N     0.21436   0.62248   0.44910   0.00000  Uiso   1.00
C323   C     0.75166   0.10841   0.67250   0.00000  Uiso   1.00
C324   C     0.80224   0.13890   0.66136   0.00000  Uiso   1.00
C325   C     0.80896   0.17985   0.61663   0.00000  Uiso   1.00
C326   C     0.85827   0.20264   0.61388   0.00000  Uiso   1.00
C327   C     0.93057   0.25264   0.59039   0.00000  Uiso   1.00
C328   C     0.76517   0.05101   0.66054   0.00000  Uiso   1.00
C329   C     0.74071   0.01806   0.61513   0.00000  Uiso   1.00
C330   C     0.75880   0.96687   0.61169   0.00000  Uiso   1.00
C331   C     0.77353   0.88041   0.58697   0.00000  Uiso   1.00
C332   C     0.73938   0.11316   0.74674   0.00000  Uiso   1.00
C333   C     0.69323   0.13245   0.77382   0.00000  Uiso   1.00
C334   C     0.68960   0.13356   0.84296   0.00000  Uiso   1.00
C335   C     0.66428   0.14359   0.95208   0.00000  Uiso   1.00
C336   C     0.82727   0.07608   0.74715   0.00000  Uiso   1.00
C337   C     0.84331   0.12134   0.70191   0.00000  Uiso   1.00
C338   C     0.89262   0.14408   0.69922   0.00000  Uiso   1.00
C339   C     0.89941   0.18506   0.65450   0.00000  Uiso   1.00
C340   C     0.80624   0.03345   0.70109   0.00000  Uiso   1.00
C341   C     0.82437   0.98230   0.69772   0.00000  Uiso   1.00
C342   C     0.79995   0.94928   0.65231   0.00000  Uiso   1.00
C343   C     0.78045   0.09560   0.78729   0.00000  Uiso   1.00
C344   C     0.77689   0.09668   0.85641   0.00000  Uiso   1.00
C345   C     0.73074   0.11597   0.88358   0.00000  Uiso   1.00
H346   H     0.71968   0.12208   0.64093   0.00000  Uiso   1.00
H347   H     0.77717   0.19342   0.58526   0.00000  Uiso   1.00
H348   H     0.70892   0.03166   0.58376   0.00000  Uiso   1.00
H349   H     0.66145   0.14603   0.74242   0.00000  Uiso   1.00
H350   H     0.85902   0.26477   0.54140   0.00000  Uiso   1.00
H351   H     0.71511   0.92368   0.53826   0.00000  Uiso   1.00
H352   H     0.61501   0.16484   0.87283   0.00000  Uiso   1.00
H353   H     0.85925   0.06241   0.77872   0.00000  Uiso   1.00
H354   H     0.92440   0.13049   0.73061   0.00000  Uiso   1.00
H355   H     0.85615   0.96872   0.72911   0.00000  Uiso   1.00
H356   H     0.80868   0.08309   0.88777   0.00000  Uiso   1.00
H357   H     0.97852   0.21368   0.65937   0.00000  Uiso   1.00
H358   H     0.83461   0.87259   0.65623   0.00000  Uiso   1.00
H359   H     0.73450   0.11376   0.99080   0.00000  Uiso   1.00
O360   O     0.95911   0.28507   0.56623   0.00000  Uiso   1.00
O361   O     0.77030   0.83757   0.56212   0.00000  Uiso   1.00
O362   O     0.63897   0.15398   0.00107   0.00000  Uiso   1.00
N363   N     0.87820   0.24341   0.57577   0.00000  Uiso   1.00
N364   N     0.74366   0.92451   0.57283   0.00000  Uiso   1.00
N365   N     0.65006   0.14997   0.88563   0.00000  Uiso   1.00
N366   N     0.94250   0.21592   0.63925   0.00000  Uiso   1.00
N367   N     0.80796   0.89702   0.63631   0.00000  Uiso   1.00
N368   N     0.71436   0.12248   0.94910   0.00000  Uiso   1.00
C369   C     0.60841   0.74834   0.82750   0.00000  Uiso   1.00
C370   C     0.63890   0.69776   0.83864   0.00000  Uiso   1.00
C371   C     0.67985   0.69104   0.88337   0.00000  Uiso   1.00
C372   C     0.70264   0.64173   0.88612   0.00000  Uiso   1.00
C373   C     0.75264   0.56943   0.90961   0.00000  Uiso   1.00
C374   C     0.55101   0.73483   0.83946   0.00000  Uiso   1.00
C375   C     0.51806   0.75929   0.88487   0.00000  Uiso   1.00
C376   C     0.46687   0.74120   0.88831   0.00000  Uiso   1.00
C377   C     0.38041   0.72647   0.91303   0.00000  Uiso   1.00
C378   C     0.61316   0.76062   0.75326   0.00000  Uiso   1.00
C379   C     0.63245   0.80677   0.72618   0.00000  Uiso   1.00
C380   C     0.63356   0.81040   0.65704   0.00000  Uiso   1.00
C381   C     0.64359   0.83572   0.54792   0.00000  Uiso   1.00
C382   C     0.57608   0.67273   0.75285   0.00000  Uiso   1.00
C383   C     0.62134   0.65669   0.79809   0.00000  Uiso   1.00
C384   C     0.64408   0.60738   0.80078   0.00000  Uiso   1.00
C385   C     0.68506   0.60059   0.84550   0.00000  Uiso   1.00
C386   C     0.53345   0.69376   0.79891   0.00000  Uiso   1.00
C387   C     0.48230   0.67563   0.80228   0.00000  Uiso   1.00
C388   C     0.44928   0.70005   0.84769   0.00000  Uiso   1.00
C389   C     0.59560   0.71955   0.71271   0.00000  Uiso   1.00
C390   C     0.59668   0.72311   0.64359   0.00000  Uiso   1.00
C391   C     0.61597   0.76926   0.61642   0.00000  Uiso   1.00
H392   H     0.62208   0.78032   0.85907   0.00000  Uiso   1.00
H393   H     0.69342   0.72283   0.91474   0.00000  Uiso   1.00
H394   H     0.53166   0.79108   0.91624   0.00000  Uiso   1.00
H395   H     0.64603   0.83855   0.75758   0.00000  Uiso   1.00
H396   H     0.76477   0.64098   0.95860   0.00000  Uiso   1.00
H397   H     0.42368   0.78489   0.96174   0.00000  Uiso   1.00
H398   H     0.66484   0.88499   0.62717   0.00000  Uiso   1.00
H399   H     0.56241   0.64075   0.72128   0.00000  Uiso   1.00
H400   H     0.63049   0.57560   0.76939   0.00000  Uiso   1.00
H401   H     0.46872   0.64385   0.77089   0.00000  Uiso   1.00
H402   H     0.58309   0.69132   0.61223   0.00000  Uiso   1.00
H403   H     0.71368   0.52148   0.84063   0.00000  Uiso   1.00
H404   H     0.37259   0.66539   0.84377   0.00000  Uiso   1.00
H405   H     0.61376   0.76550   0.50920   0.00000  Uiso   1.00
O406   O     0.78507   0.54089   0.93377   0.00000  Uiso   1.00
O407   O     0.33757   0.72970   0.93788   0.00000  Uiso   1.00
O408   O     0.65398   0.86103   0.49893   0.00000  Uiso   1.00
N409   N     0.74341   0.62180   0.92423   0.00000  Uiso   1.00
N410   N     0.42451   0.75634   0.92717   0.00000  Uiso   1.00
N411   N     0.64997   0.84994   0.61437   0.00000  Uiso   1.00
N412   N     0.71592   0.55750   0.86075   0.00000  Uiso   1.00
N413   N     0.39702   0.69204   0.86369   0.00000  Uiso   1.00
N414   N     0.62248   0.78564   0.55090   0.00000  Uiso   1.00
C415   C     0.10841   0.24834   0.32750   0.00000  Uiso   1.00
C416   C     0.13890   0.19776   0.33864   0.00000  Uiso   1.00
C417   C     0.17985   0.19104   0.38337   0.00000  Uiso   1.00
C418   C     0.20264   0.14173   0.38612   0.00000  Uiso   1.00
C419   C     0.25264   0.06943   0.40961   0.00000  Uiso   1.00
C420   C     0.05101   0.23483   0.33946   0.00000  Uiso   1.00
C421   C     0.01806   0.25929   0.38487   0.00000  Uiso   1.00
C422   C     0.96687   0.24120   0.38831   0.00000  Uiso   1.00
C423   C     0.88041   0.22647   0.41303   0.00000  Uiso   1.00
C424   C     0.11316   0.26062   0.25326   0.00000  Uiso   1.00
C425   C     0.13245   0.30677   0.22618   0.00000  Uiso   1.00
C426   C     0.13356   0.31040   0.15704   0.00000  Uiso   1.00
C427   C     0.14359   0.33572   0.04792   0.00000  Uiso   1.00
C428   C     0.07608   0.17273   0.25285   0.00000  Uiso   1.00
C429   C     0.12134   0.15669   0.29809   0.00000  Uiso   1.00
C430   C     0.14408   0.10738   0.30078   0.00000  Uiso   1.00
C431   C     0.18506   0.10059   0.34550   0.00000  Uiso   1.00
C432   C     0.03345   0.19376   0.29891   0.00000  Uiso   1.00
C433   C     0.98230   0.17563   0.30228   0.00000  Uiso   1.00
C434   C     0.94928   0.20005   0.34769   0.00000  Uiso   1.00
C435   C     0.09560   0.21955   0.21271   0.00000  Uiso   1.00
C436   C     0.09668   0.22311   0.14359   0.00000  Uiso   1.00
C437   C     0.11597   0.26926   0.11642   0.00000  Uiso   1.00
H438   H     0.12208   0.28032   0.35907   0.00000  Uiso   1.00
H439   H     0.19342   0.22283   0.41474   0.00000  Uiso   1.00
H440   H     0.03166   0.29108   0.41624   0.00000  Uiso   1.00
H441   H     0.14603   0.33855   0.25758   0.00000  Uiso   1.00
H442   H     0.26477   0.14098   0.45860   0.00000  Uiso   1.00
H443   H     0.92368   0.28489   0.46174   0.00000  Uiso   1.00
H444   H     0.16484   0.38499   0.12717   0.00000  Uiso   1.00
H445   H     0.06241   0.14075   0.22128   0.00000  Uiso   1.00
H446   H     0.13049   0.07560   0.26939   0.00000  Uiso   1.00
H447   H     0.96872   0.14385   0.27089   0.00000  Uiso   1.00
H448   H     0.08309   0.19132   0.11223   0.00000  Uiso   1.00
H449   H     0.21368   0.02148   0.34063   0.00000  Uiso   1.00
H450   H     0.87259   0.16539   0.34377   0.00000  Uiso   1.00
H451   H     0.11376   0.26550   0.00920   0.00000  Uiso   1.00
O452   O     0.28507   0.04089   0.43377   0.00000  Uiso   1.00
O453   O     0.83757   0.22970   0.43788   0.00000  Uiso   1.00
O454   O     0.15398   0.36103   0.99893   0.00000  Uiso   1.00
N455   N     0.24341   0.12180   0.42423   0.00000  Uiso   1.00
N456   N     0.92451   0.25634   0.42717   0.00000  Uiso   1.00
N457   N     0.14997   0.34994   0.11437   0.00000  Uiso   1.00
N458   N     0.21592   0.05750   0.36075   0.00000  Uiso   1.00
N459   N     0.89702   0.19204   0.36369   0.00000  Uiso   1.00
N460   N     0.12248   0.28564   0.05090   0.00000  Uiso   1.00
C461   C     0.89159   0.75166   0.32750   0.00000  Uiso   1.00
C462   C     0.86110   0.80224   0.33864   0.00000  Uiso   1.00
C463   C     0.82015   0.80896   0.38337   0.00000  Uiso   1.00
C464   C     0.79736   0.85827   0.38612   0.00000  Uiso   1.00
C465   C     0.74736   0.93057   0.40961   0.00000  Uiso   1.00
C466   C     0.94899   0.76517   0.33946   0.00000  Uiso   1.00
C467   C     0.98194   0.74071   0.38487   0.00000  Uiso   1.00
C468   C     0.03313   0.75880   0.38831   0.00000  Uiso   1.00
C469   C     0.11959   0.77353   0.41303   0.00000  Uiso   1.00
C470   C     0.88684   0.73938   0.25326   0.00000  Uiso   1.00
C471   C     0.86755   0.69323   0.22618   0.00000  Uiso   1.00
C472   C     0.86644   0.68960   0.15704   0.00000  Uiso   1.00
C473   C     0.85641   0.66428   0.04792   0.00000  Uiso   1.00
C474   C     0.92392   0.82727   0.25285   0.00000  Uiso   1.00
C475   C     0.87866   0.84331   0.29809   0.00000  Uiso   1.00
C476   C     0.85592   0.89262   0.30078   0.00000  Uiso   1.00
C477   C     0.81494   0.89941   0.34550   0.00000  Uiso   1.00
C478   C     0.96655   0.80624   0.29891   0.00000  Uiso   1.00
C479   C     0.01770   0.82437   0.30228   0.00000  Uiso   1.00
C480   C     0.05072   0.79995   0.34769   0.00000  Uiso   1.00
C481   C     0.90440   0.78045   0.21271   0.00000  Uiso   1.00
C482   C     0.90332   0.77689   0.14359   0.00000  Uiso   1.00
C483   C     0.88403   0.73074   0.11642   0.00000  Uiso   1.00
H484   H     0.87792   0.71968   0.35907   0.00000  Uiso   1.00
H485   H     0.80658   0.77717   0.41474   0.00000  Uiso   1.00
H486   H     0.96834   0.70892   0.41624   0.00000  Uiso   1.00
H487   H     0.85397   0.66145   0.25758   0.00000  Uiso   1.00
H488   H     0.73523   0.85902   0.45860   0.00000  Uiso   1.00
H489   H     0.07632   0.71511   0.46174   0.00000  Uiso   1.00
H490   H     0.83516   0.61501   0.12717   0.00000  Uiso   1.00
H491   H     0.93759   0.85925   0.22128   0.00000  Uiso   1.00
H492   H     0.86951   0.92440   0.26939   0.00000  Uiso   1.00
H493   H     0.03128   0.85615   0.27089   0.00000  Uiso   1.00
H494   H     0.91691   0.80868   0.11223   0.00000  Uiso   1.00
H495   H     0.78632   0.97852   0.34063   0.00000  Uiso   1.00
H496   H     0.12741   0.83461   0.34377   0.00000  Uiso   1.00
H497   H     0.88624   0.73450   0.00920   0.00000  Uiso   1.00
O498   O     0.71493   0.95911   0.43377   0.00000  Uiso   1.00
O499   O     0.16243   0.77030   0.43788   0.00000  Uiso   1.00
O500   O     0.84602   0.63897   0.99893   0.00000  Uiso   1.00
N501   N     0.75659   0.87820   0.42423   0.00000  Uiso   1.00
N502   N     0.07549   0.74366   0.42717   0.00000  Uiso   1.00
N503   N     0.85003   0.65006   0.11437   0.00000  Uiso   1.00
N504   N     0.78408   0.94250   0.36075   0.00000  Uiso   1.00
N505   N     0.10298   0.80796   0.36369   0.00000  Uiso   1.00
N506   N     0.87752   0.71436   0.05090   0.00000  Uiso   1.00
C507   C     0.39159   0.25166   0.82750   0.00000  Uiso   1.00
C508   C     0.36110   0.30224   0.83864   0.00000  Uiso   1.00
C509   C     0.32015   0.30896   0.88337   0.00000  Uiso   1.00
C510   C     0.29736   0.35827   0.88612   0.00000  Uiso   1.00
C511   C     0.24736   0.43057   0.90961   0.00000  Uiso   1.00
C512   C     0.44899   0.26517   0.83946   0.00000  Uiso   1.00
C513   C     0.48194   0.24071   0.88487   0.00000  Uiso   1.00
C514   C     0.53313   0.25880   0.88831   0.00000  Uiso   1.00
C515   C     0.61959   0.27353   0.91303   0.00000  Uiso   1.00
C516   C     0.38684   0.23938   0.75326   0.00000  Uiso   1.00
C517   C     0.36755   0.19323   0.72618   0.00000  Uiso   1.00
C518   C     0.36644   0.18960   0.65704   0.00000  Uiso   1.00
C519   C     0.35641   0.16428   0.54792   0.00000  Uiso   1.00
C520   C     0.42392   0.32727   0.75285   0.00000  Uiso   1.00
C521   C     0.37866   0.34331   0.79809   0.00000  Uiso   1.00
C522   C     0.35592   0.39262   0.80078   0.00000  Uiso   1.00
C523   C     0.31494   0.39941   0.84550   0.00000  Uiso   1.00
C524   C     0.46655   0.30624   0.79891   0.00000  Uiso   1.00
C525   C     0.51770   0.32437   0.80228   0.00000  Uiso   1.00
C526   C     0.55072   0.29995   0.84769   0.00000  Uiso   1.00
C527   C     0.40440   0.28045   0.71271   0.00000  Uiso   1.00
C528   C     0.40332   0.27689   0.64359   0.00000  Uiso   1.00
C529   C     0.38403   0.23074   0.61642   0.00000  Uiso   1.00
H530   H     0.37792   0.21968   0.85907   0.00000  Uiso   1.00
H531   H     0.30658   0.27717   0.91474   0.00000  Uiso   1.00
H532   H     0.46834   0.20892   0.91624   0.00000  Uiso   1.00
H533   H     0.35397   0.16145   0.75758   0.00000  Uiso   1.00
H534   H     0.23523   0.35902   0.95860   0.00000  Uiso   1.00
H535   H     0.57632   0.21511   0.96174   0.00000  Uiso   1.00
H536   H     0.33516   0.11501   0.62717   0.00000  Uiso   1.00
H537   H     0.43759   0.35925   0.72128   0.00000  Uiso   1.00
H538   H     0.36951   0.42440   0.76939   0.00000  Uiso   1.00
H539   H     0.53128   0.35615   0.77089   0.00000  Uiso   1.00
H540   H     0.41691   0.30868   0.61223   0.00000  Uiso   1.00
H541   H     0.28632   0.47852   0.84063   0.00000  Uiso   1.00
H542   H     0.62741   0.33461   0.84377   0.00000  Uiso   1.00
H543   H     0.38624   0.23450   0.50920   0.00000  Uiso   1.00
O544   O     0.21493   0.45911   0.93377   0.00000  Uiso   1.00
O545   O     0.66243   0.27030   0.93788   0.00000  Uiso   1.00
O546   O     0.34602   0.13897   0.49893   0.00000  Uiso   1.00
N547   N     0.25659   0.37820   0.92423   0.00000  Uiso   1.00
N548   N     0.57549   0.24366   0.92717   0.00000  Uiso   1.00
N549   N     0.35003   0.15006   0.61437   0.00000  Uiso   1.00
N550   N     0.28408   0.44250   0.86075   0.00000  Uiso   1.00
N551   N     0.60298   0.30796   0.86369   0.00000  Uiso   1.00
N552   N     0.37752   0.21436   0.55090   0.00000  Uiso   1.00
C553   C     0.75166   0.60841   0.57750   0.00000  Uiso   1.00
C554   C     0.80224   0.63890   0.58864   0.00000  Uiso   1.00
C555   C     0.80896   0.67985   0.63337   0.00000  Uiso   1.00
C556   C     0.85827   0.70264   0.63612   0.00000  Uiso   1.00
C557   C     0.93057   0.75264   0.65961   0.00000  Uiso   1.00
C558   C     0.76517   0.55101   0.58946   0.00000  Uiso   1.00
C559   C     0.74071   0.51806   0.63487   0.00000  Uiso   1.00
C560   C     0.75880   0.46687   0.63831   0.00000  Uiso   1.00
C561   C     0.77353   0.38041   0.66303   0.00000  Uiso   1.00
C562   C     0.73938   0.61316   0.50326   0.00000  Uiso   1.00
C563   C     0.69323   0.63245   0.47618   0.00000  Uiso   1.00
C564   C     0.68960   0.63356   0.40704   0.00000  Uiso   1.00
C565   C     0.66428   0.64359   0.29792   0.00000  Uiso   1.00
C566   C     0.82727   0.57608   0.50285   0.00000  Uiso   1.00
C567   C     0.84331   0.62134   0.54809   0.00000  Uiso   1.00
C568   C     0.89262   0.64408   0.55078   0.00000  Uiso   1.00
C569   C     0.89941   0.68506   0.59550   0.00000  Uiso   1.00
C570   C     0.80624   0.53345   0.54891   0.00000  Uiso   1.00
C571   C     0.82437   0.48230   0.55228   0.00000  Uiso   1.00
C572   C     0.79995   0.44928   0.59769   0.00000  Uiso   1.00
C573   C     0.78045   0.59560   0.46271   0.00000  Uiso   1.00
C574   C     0.77689   0.59668   0.39359   0.00000  Uiso   1.00
C575   C     0.73074   0.61597   0.36642   0.00000  Uiso   1.00
H576   H     0.71968   0.62208   0.60907   0.00000  Uiso   1.00
H577   H     0.77717   0.69342   0.66474   0.00000  Uiso   1.00
H578   H     0.70892   0.53166   0.66624   0.00000  Uiso   1.00
H579   H     0.66145   0.64603   0.50758   0.00000  Uiso   1.00
H580   H     0.85902   0.76477   0.70860   0.00000  Uiso   1.00
H581   H     0.71511   0.42368   0.71174   0.00000  Uiso   1.00
H582   H     0.61501   0.66484   0.37717   0.00000  Uiso   1.00
H583   H     0.85925   0.56241   0.47128   0.00000  Uiso   1.00
H584   H     0.92440   0.63049   0.51939   0.00000  Uiso   1.00
H585   H     0.85615   0.46872   0.52089   0.00000  Uiso   1.00
H586   H     0.80868   0.58309   0.36223   0.00000  Uiso   1.00
H587   H     0.97852   0.71368   0.59063   0.00000  Uiso   1.00
H588   H     0.83461   0.37259   0.59377   0.00000  Uiso   1.00
H589   H     0.73450   0.61376   0.25920   0.00000  Uiso   1.00
O590   O     0.95911   0.78507   0.68377   0.00000  Uiso   1.00
O591   O     0.77030   0.33757   0.68788   0.00000  Uiso   1.00
O592   O     0.63897   0.65398   0.24893   0.00000  Uiso   1.00
N593   N     0.87820   0.74341   0.67423   0.00000  Uiso   1.00
N594   N     0.74366   0.42451   0.67717   0.00000  Uiso   1.00
N595   N     0.65006   0.64997   0.36437   0.00000  Uiso   1.00
N596   N     0.94250   0.71592   0.61075   0.00000  Uiso   1.00
N597   N     0.80796   0.39702   0.61369   0.00000  Uiso   1.00
N598   N     0.71436   0.62248   0.30090   0.00000  Uiso   1.00
C599   C     0.25166   0.10841   0.07750   0.00000  Uiso   1.00
C600   C     0.30224   0.13890   0.08864   0.00000  Uiso   1.00
C601   C     0.30896   0.17985   0.13337   0.00000  Uiso   1.00
C602   C     0.35827   0.20264   0.13612   0.00000  Uiso   1.00
C603   C     0.43057   0.25264   0.15961   0.00000  Uiso   1.00
C604   C     0.26517   0.05101   0.08946   0.00000  Uiso   1.00
C605   C     0.24071   0.01806   0.13487   0.00000  Uiso   1.00
C606   C     0.25880   0.96687   0.13831   0.00000  Uiso   1.00
C607   C     0.27353   0.88041   0.16303   0.00000  Uiso   1.00
C608   C     0.23938   0.11316   0.00326   0.00000  Uiso   1.00
C609   C     0.19323   0.13245   0.97618   0.00000  Uiso   1.00
C610   C     0.18960   0.13356   0.90704   0.00000  Uiso   1.00
C611   C     0.16428   0.14359   0.79792   0.00000  Uiso   1.00
C612   C     0.32727   0.07608   0.00285   0.00000  Uiso   1.00
C613   C     0.34331   0.12134   0.04809   0.00000  Uiso   1.00
C614   C     0.39262   0.14408   0.05078   0.00000  Uiso   1.00
C615   C     0.39941   0.18506   0.09550   0.00000  Uiso   1.00
C616   C     0.30624   0.03345   0.04891   0.00000  Uiso   1.00
C617   C     0.32437   0.98230   0.05228   0.00000  Uiso   1.00
C618   C     0.29995   0.94928   0.09769   0.00000  Uiso   1.00
C619   C     0.28045   0.09560   0.96271   0.00000  Uiso   1.00
C620   C     0.27689   0.09668   0.89359   0.00000  Uiso   1.00
C621   C     0.23074   0.11597   0.86642   0.00000  Uiso   1.00
H622   H     0.21968   0.12208   0.10907   0.00000  Uiso   1.00
H623   H     0.27717   0.19342   0.16474   0.00000  Uiso   1.00
H624   H     0.20892   0.03166   0.16624   0.00000  Uiso   1.00
H625   H     0.16145   0.14603   0.00758   0.00000  Uiso   1.00
H626   H     0.35902   0.26477   0.20860   0.00000  Uiso   1.00
H627   H     0.21511   0.92368   0.21174   0.00000  Uiso   1.00
H628   H     0.11501   0.16484   0.87717   0.00000  Uiso   1.00
H629   H     0.35925   0.06241   0.97128   0.00000  Uiso   1.00
H630   H     0.42440   0.13049   0.01939   0.00000  Uiso   1.00
H631   H     0.35615   0.96872   0.02089   0.00000  Uiso   1.00
H632   H     0.30868   0.08309   0.86223   0.00000  Uiso   1.00
H633   H     0.47852   0.21368   0.09063   0.00000  Uiso   1.00
H634   H     0.33461   0.87259   0.09377   0.00000  Uiso   1.00
H635   H     0.23450   0.11376   0.75920   0.00000  Uiso   1.00
O636   O     0.45911   0.28507   0.18377   0.00000  Uiso   1.00
O637   O     0.27030   0.83757   0.18788   0.00000  Uiso   1.00
O638   O     0.13897   0.15398   0.74893   0.00000  Uiso   1.00
N639   N     0.37820   0.24341   0.17423   0.00000  Uiso   1.00
N640   N     0.24366   0.92451   0.17717   0.00000  Uiso   1.00
N641   N     0.15006   0.14997   0.86437   0.00000  Uiso   1.00
N642   N     0.44250   0.21592   0.11075   0.00000  Uiso   1.00
N643   N     0.30796   0.89702   0.11369   0.00000  Uiso   1.00
N644   N     0.21436   0.12248   0.80090   0.00000  Uiso   1.00
C645   C     0.74834   0.89159   0.07750   0.00000  Uiso   1.00
C646   C     0.69776   0.86110   0.08864   0.00000  Uiso   1.00
C647   C     0.69104   0.82015   0.13337   0.00000  Uiso   1.00
C648   C     0.64173   0.79736   0.13612   0.00000  Uiso   1.00
C649   C     0.56943   0.74736   0.15961   0.00000  Uiso   1.00
C650   C     0.73483   0.94899   0.08946   0.00000  Uiso   1.00
C651   C     0.75929   0.98194   0.13487   0.00000  Uiso   1.00
C652   C     0.74120   0.03313   0.13831   0.00000  Uiso   1.00
C653   C     0.72647   0.11959   0.16303   0.00000  Uiso   1.00
C654   C     0.76062   0.88684   0.00326   0.00000  Uiso   1.00
C655   C     0.80677   0.86755   0.97618   0.00000  Uiso   1.00
C656   C     0.81040   0.86644   0.90704   0.00000  Uiso   1.00
C657   C     0.83572   0.85641   0.79792   0.00000  Uiso   1.00
C658   C     0.67273   0.92392   0.00285   0.00000  Uiso   1.00
C659   C     0.65669   0.87866   0.04809   0.00000  Uiso   1.00
C660   C     0.60738   0.85592   0.05078   0.00000  Uiso   1.00
C661   C     0.60059   0.81494   0.09550   0.00000  Uiso   1.00
C662   C     0.69376   0.96655   0.04891   0.00000  Uiso   1.00
C663   C     0.67563   0.01770   0.05228   0.00000  Uiso   1.00
C664   C     0.70005   0.05072   0.09769   0.00000  Uiso   1.00
C665   C     0.71955   0.90440   0.96271   0.00000  Uiso   1.00
C666   C     0.72311   0.90332   0.89359   0.00000  Uiso   1.00
C667   C     0.76926   0.88403   0.86642   0.00000  Uiso   1.00
H668   H     0.78032   0.87792   0.10907   0.00000  Uiso   1.00
H669   H     0.72283   0.80658   0.16474   0.00000  Uiso   1.00
H670   H     0.79108   0.96834   0.16624   0.00000  Uiso   1.00
H671   H     0.83855   0.85397   0.00758   0.00000  Uiso   1.00
H672   H     0.64098   0.73523   0.20860   0.00000  Uiso   1.00
H673   H     0.78489   0.07632   0.21174   0.00000  Uiso   1.00
H674   H     0.88499   0.83516   0.87717   0.00000  Uiso   1.00
H675   H     0.64075   0.93759   0.97128   0.00000  Uiso   1.00
H676   H     0.57560   0.86951   0.01939   0.00000  Uiso   1.00
H677   H     0.64385   0.03128   0.02089   0.00000  Uiso   1.00
H678   H     0.69132   0.91691   0.86223   0.00000  Uiso   1.00
H679   H     0.52148   0.78632   0.09063   0.00000  Uiso   1.00
H680   H     0.66539   0.12741   0.09377   0.00000  Uiso   1.00
H681   H     0.76550   0.88624   0.75920   0.00000  Uiso   1.00
O682   O     0.54089   0.71493   0.18377   0.00000  Uiso   1.00
O683   O     0.72970   0.16243   0.18788   0.00000  Uiso   1.00
O684   O     0.86103   0.84602   0.74893   0.00000  Uiso   1.00
N685   N     0.62180   0.75659   0.17423   0.00000  Uiso   1.00
N686   N     0.75634   0.07549   0.17717   0.00000  Uiso   1.00
N687   N     0.84994   0.85003   0.86437   0.00000  Uiso   1.00
N688   N     0.55750   0.78408   0.11075   0.00000  Uiso   1.00
N689   N     0.69204   0.10298   0.11369   0.00000  Uiso   1.00
N690   N     0.78564   0.87752   0.80090   0.00000  Uiso   1.00
C691   C     0.24834   0.39159   0.57750   0.00000  Uiso   1.00
C692   C     0.19776   0.36110   0.58864   0.00000  Uiso   1.00
C693   C     0.19104   0.32015   0.63337   0.00000  Uiso   1.00
C694   C     0.14173   0.29736   0.63612   0.00000  Uiso   1.00
C695   C     0.06943   0.24736   0.65961   0.00000  Uiso   1.00
C696   C     0.23483   0.44899   0.58946   0.00000  Uiso   1.00
C697   C     0.25929   0.48194   0.63487   0.00000  Uiso   1.00
C698   C     0.24120   0.53313   0.63831   0.00000  Uiso   1.00
C699   C     0.22647   0.61959   0.66303   0.00000  Uiso   1.00
C700   C     0.26062   0.38684   0.50326   0.00000  Uiso   1.00
C701   C     0.30677   0.36755   0.47618   0.00000  Uiso   1.00
C702   C     0.31040   0.36644   0.40704   0.00000  Uiso   1.00
C703   C     0.33572   0.35641   0.29792   0.00000  Uiso   1.00
C704   C     0.17273   0.42392   0.50285   0.00000  Uiso   1.00
C705   C     0.15669   0.37866   0.54809   0.00000  Uiso   1.00
C706   C     0.10738   0.35592   0.55078   0.00000  Uiso   1.00
C707   C     0.10059   0.31494   0.59550   0.00000  Uiso   1.00
C708   C     0.19376   0.46655   0.54891   0.00000  Uiso   1.00
C709   C     0.17563   0.51770   0.55228   0.00000  Uiso   1.00
C710   C     0.20005   0.55072   0.59769   0.00000  Uiso   1.00
C711   C     0.21955   0.40440   0.46271   0.00000  Uiso   1.00
C712   C     0.22311   0.40332   0.39359   0.00000  Uiso   1.00
C713   C     0.26926   0.38403   0.36642   0.00000  Uiso   1.00
H714   H     0.28032   0.37792   0.60907   0.00000  Uiso   1.00
H715   H     0.22283   0.30658   0.66474   0.00000  Uiso   1.00
H716   H     0.29108   0.46834   0.66624   0.00000  Uiso   1.00
H717   H     0.33855   0.35397   0.50758   0.00000  Uiso   1.00
H718   H     0.14098   0.23523   0.70860   0.00000  Uiso   1.00
H719   H     0.28489   0.57632   0.71174   0.00000  Uiso   1.00
H720   H     0.38499   0.33516   0.37717   0.00000  Uiso   1.00
H721   H     0.14075   0.43759   0.47128   0.00000  Uiso   1.00
H722   H     0.07560   0.36951   0.51939   0.00000  Uiso   1.00
H723   H     0.14385   0.53128   0.52089   0.00000  Uiso   1.00
H724   H     0.19132   0.41691   0.36223   0.00000  Uiso   1.00
H725   H     0.02148   0.28632   0.59063   0.00000  Uiso   1.00
H726   H     0.16539   0.62741   0.59377   0.00000  Uiso   1.00
H727   H     0.26550   0.38624   0.25920   0.00000  Uiso   1.00
O728   O     0.04089   0.21493   0.68377   0.00000  Uiso   1.00
O729   O     0.22970   0.66243   0.68788   0.00000  Uiso   1.00
O730   O     0.36103   0.34602   0.24893   0.00000  Uiso   1.00
N731   N     0.12180   0.25659   0.67423   0.00000  Uiso   1.00
N732   N     0.25634   0.57549   0.67717   0.00000  Uiso   1.00
N733   N     0.34994   0.35003   0.36437   0.00000  Uiso   1.00
N734   N     0.05750   0.28408   0.61075   0.00000  Uiso   1.00
N735   N     0.19204   0.60298   0.61369   0.00000  Uiso   1.00
N736   N     0.28564   0.37752   0.30090   0.00000  Uiso   1.00
