data_job_01899
_audit_creation_date              2018-12-19
_audit_creation_method            'Materials Studio'
_symmetry_space_group_name_H-M    'P1'
_symmetry_Int_Tables_number       1
_symmetry_cell_setting            triclinic
loop_
_symmetry_equiv_pos_as_xyz
  x,y,z
_cell_length_a                    24.2821
_cell_length_b                    24.2821
_cell_length_c                    20.6792
_cell_angle_alpha                 90.0000
_cell_angle_beta                  90.0000
_cell_angle_gamma                 90.0000
loop_
_atom_site_label
_atom_site_type_symbol
_atom_site_fract_x
_atom_site_fract_y
_atom_site_fract_z
_atom_site_U_iso_or_equiv
_atom_site_adp_type
_atom_site_occupancy
C1     C     0.42996   0.74908   0.78734   0.00000  Uiso   1.00
C2     C     0.38624   0.78101   0.74997   0.00000  Uiso   1.00
C3     C     0.38932   0.83612   0.73258   0.00000  Uiso   1.00
C4     C     0.34503   0.85770   0.69850   0.00000  Uiso   1.00
C5     C     0.28408   0.91221   0.64295   0.00000  Uiso   1.00
C6     C     0.40094   0.72552   0.84660   0.00000  Uiso   1.00
C7     C     0.41639   0.73398   0.91045   0.00000  Uiso   1.00
C8     C     0.38449   0.70884   0.95771   0.00000  Uiso   1.00
C9     C     0.34639   0.67717   0.05217   0.00000  Uiso   1.00
C10    C     0.44505   0.69982   0.74518   0.00000  Uiso   1.00
C11    C     0.49760   0.68666   0.72377   0.00000  Uiso   1.00
C12    C     0.50283   0.63987   0.68565   0.00000  Uiso   1.00
C13    C     0.53322   0.56831   0.62265   0.00000  Uiso   1.00
C14    C     0.34584   0.68940   0.75775   0.00000  Uiso   1.00
C15    C     0.34054   0.74859   0.73390   0.00000  Uiso   1.00
C16    C     0.29624   0.77009   0.69983   0.00000  Uiso   1.00
C17    C     0.29926   0.82522   0.68239   0.00000  Uiso   1.00
C18    C     0.35525   0.69310   0.83053   0.00000  Uiso   1.00
C19    C     0.32332   0.66795   0.87770   0.00000  Uiso   1.00
C20    C     0.33871   0.67636   0.94160   0.00000  Uiso   1.00
C21    C     0.39936   0.66740   0.72910   0.00000  Uiso   1.00
C22    C     0.40452   0.62063   0.69102   0.00000  Uiso   1.00
C23    C     0.45706   0.60740   0.66955   0.00000  Uiso   1.00
H24    H     0.46554   0.77432   0.79986   0.00000  Uiso   1.00
H25    H     0.42469   0.86119   0.74504   0.00000  Uiso   1.00
H26    H     0.45176   0.75906   0.92287   0.00000  Uiso   1.00
H27    H     0.53295   0.71175   0.73622   0.00000  Uiso   1.00
H28    H     0.35923   0.94322   0.67718   0.00000  Uiso   1.00
H29    H     0.41633   0.72785   0.05216   0.00000  Uiso   1.00
H30    H     0.58754   0.62809   0.65857   0.00000  Uiso   1.00
H31    H     0.31026   0.66416   0.74523   0.00000  Uiso   1.00
H32    H     0.26089   0.74499   0.68740   0.00000  Uiso   1.00
H33    H     0.28796   0.64286   0.86524   0.00000  Uiso   1.00
H34    H     0.36915   0.59555   0.67859   0.00000  Uiso   1.00
H35    H     0.22629   0.84891   0.63040   0.00000  Uiso   1.00
H36    H     0.28339   0.63354   0.00538   0.00000  Uiso   1.00
H37    H     0.45459   0.53378   0.61179   0.00000  Uiso   1.00
O38    O     0.26308   0.95123   0.61675   0.00000  Uiso   1.00
O39    O     0.33799   0.66867   0.10871   0.00000  Uiso   1.00
O40    O     0.56261   0.53779   0.59233   0.00000  Uiso   1.00
N41    N     0.33473   0.90993   0.67409   0.00000  Uiso   1.00
N42    N     0.38810   0.70858   0.02468   0.00000  Uiso   1.00
N43    N     0.54817   0.61530   0.65672   0.00000  Uiso   1.00
N44    N     0.26319   0.85918   0.64892   0.00000  Uiso   1.00
N45    N     0.31657   0.65783   0.99951   0.00000  Uiso   1.00
N46    N     0.47663   0.56456   0.63155   0.00000  Uiso   1.00
C47    C     0.92996   0.24908   0.28734   0.00000  Uiso   1.00
C48    C     0.88624   0.28101   0.24997   0.00000  Uiso   1.00
C49    C     0.88932   0.33612   0.23258   0.00000  Uiso   1.00
C50    C     0.84503   0.35770   0.19850   0.00000  Uiso   1.00
C51    C     0.78408   0.41221   0.14295   0.00000  Uiso   1.00
C52    C     0.90094   0.22552   0.34660   0.00000  Uiso   1.00
C53    C     0.91639   0.23398   0.41045   0.00000  Uiso   1.00
C54    C     0.88449   0.20884   0.45771   0.00000  Uiso   1.00
C55    C     0.84639   0.17717   0.55217   0.00000  Uiso   1.00
C56    C     0.94505   0.19982   0.24518   0.00000  Uiso   1.00
C57    C     0.99760   0.18666   0.22377   0.00000  Uiso   1.00
C58    C     0.00283   0.13987   0.18565   0.00000  Uiso   1.00
C59    C     0.03322   0.06831   0.12265   0.00000  Uiso   1.00
C60    C     0.84584   0.18940   0.25775   0.00000  Uiso   1.00
C61    C     0.84054   0.24859   0.23390   0.00000  Uiso   1.00
C62    C     0.79624   0.27009   0.19983   0.00000  Uiso   1.00
C63    C     0.79926   0.32522   0.18239   0.00000  Uiso   1.00
C64    C     0.85525   0.19310   0.33053   0.00000  Uiso   1.00
C65    C     0.82332   0.16795   0.37770   0.00000  Uiso   1.00
C66    C     0.83871   0.17636   0.44160   0.00000  Uiso   1.00
C67    C     0.89936   0.16740   0.22910   0.00000  Uiso   1.00
C68    C     0.90452   0.12063   0.19102   0.00000  Uiso   1.00
C69    C     0.95706   0.10740   0.16955   0.00000  Uiso   1.00
H70    H     0.96554   0.27432   0.29986   0.00000  Uiso   1.00
H71    H     0.92469   0.36119   0.24504   0.00000  Uiso   1.00
H72    H     0.95176   0.25906   0.42287   0.00000  Uiso   1.00
H73    H     0.03295   0.21175   0.23622   0.00000  Uiso   1.00
H74    H     0.85923   0.44322   0.17718   0.00000  Uiso   1.00
H75    H     0.91633   0.22785   0.55216   0.00000  Uiso   1.00
H76    H     0.08754   0.12809   0.15857   0.00000  Uiso   1.00
H77    H     0.81026   0.16416   0.24523   0.00000  Uiso   1.00
H78    H     0.76089   0.24499   0.18740   0.00000  Uiso   1.00
H79    H     0.78796   0.14286   0.36524   0.00000  Uiso   1.00
H80    H     0.86915   0.09555   0.17859   0.00000  Uiso   1.00
H81    H     0.72629   0.34891   0.13040   0.00000  Uiso   1.00
H82    H     0.78339   0.13354   0.50538   0.00000  Uiso   1.00
H83    H     0.95459   0.03378   0.11179   0.00000  Uiso   1.00
O84    O     0.76308   0.45123   0.11675   0.00000  Uiso   1.00
O85    O     0.83799   0.16867   0.60871   0.00000  Uiso   1.00
O86    O     0.06261   0.03779   0.09233   0.00000  Uiso   1.00
N87    N     0.83473   0.40993   0.17409   0.00000  Uiso   1.00
N88    N     0.88810   0.20858   0.52468   0.00000  Uiso   1.00
N89    N     0.04817   0.11530   0.15672   0.00000  Uiso   1.00
N90    N     0.76319   0.35918   0.14892   0.00000  Uiso   1.00
N91    N     0.81657   0.15783   0.49951   0.00000  Uiso   1.00
N92    N     0.97663   0.06456   0.13155   0.00000  Uiso   1.00
C93    C     0.07004   0.75092   0.28734   0.00000  Uiso   1.00
C94    C     0.11376   0.71899   0.24997   0.00000  Uiso   1.00
C95    C     0.11068   0.66388   0.23258   0.00000  Uiso   1.00
C96    C     0.15497   0.64230   0.19850   0.00000  Uiso   1.00
C97    C     0.21592   0.58779   0.14295   0.00000  Uiso   1.00
C98    C     0.09906   0.77448   0.34660   0.00000  Uiso   1.00
C99    C     0.08361   0.76602   0.41045   0.00000  Uiso   1.00
C100   C     0.11551   0.79116   0.45771   0.00000  Uiso   1.00
C101   C     0.15361   0.82283   0.55217   0.00000  Uiso   1.00
C102   C     0.05495   0.80018   0.24518   0.00000  Uiso   1.00
C103   C     0.00240   0.81334   0.22377   0.00000  Uiso   1.00
C104   C     0.99717   0.86013   0.18565   0.00000  Uiso   1.00
C105   C     0.96678   0.93169   0.12265   0.00000  Uiso   1.00
C106   C     0.15416   0.81060   0.25775   0.00000  Uiso   1.00
C107   C     0.15946   0.75141   0.23390   0.00000  Uiso   1.00
C108   C     0.20376   0.72991   0.19983   0.00000  Uiso   1.00
C109   C     0.20074   0.67478   0.18239   0.00000  Uiso   1.00
C110   C     0.14475   0.80690   0.33053   0.00000  Uiso   1.00
C111   C     0.17668   0.83205   0.37770   0.00000  Uiso   1.00
C112   C     0.16129   0.82364   0.44160   0.00000  Uiso   1.00
C113   C     0.10064   0.83260   0.22910   0.00000  Uiso   1.00
C114   C     0.09548   0.87937   0.19102   0.00000  Uiso   1.00
C115   C     0.04294   0.89260   0.16955   0.00000  Uiso   1.00
H116   H     0.03446   0.72568   0.29986   0.00000  Uiso   1.00
H117   H     0.07531   0.63881   0.24504   0.00000  Uiso   1.00
H118   H     0.04824   0.74094   0.42287   0.00000  Uiso   1.00
H119   H     0.96705   0.78825   0.23622   0.00000  Uiso   1.00
H120   H     0.14077   0.55678   0.17718   0.00000  Uiso   1.00
H121   H     0.08367   0.77215   0.55216   0.00000  Uiso   1.00
H122   H     0.91246   0.87191   0.15857   0.00000  Uiso   1.00
H123   H     0.18974   0.83584   0.24523   0.00000  Uiso   1.00
H124   H     0.23911   0.75501   0.18740   0.00000  Uiso   1.00
H125   H     0.21204   0.85714   0.36524   0.00000  Uiso   1.00
H126   H     0.13085   0.90445   0.17859   0.00000  Uiso   1.00
H127   H     0.27371   0.65109   0.13040   0.00000  Uiso   1.00
H128   H     0.21661   0.86646   0.50538   0.00000  Uiso   1.00
H129   H     0.04541   0.96622   0.11179   0.00000  Uiso   1.00
O130   O     0.23692   0.54877   0.11675   0.00000  Uiso   1.00
O131   O     0.16201   0.83133   0.60871   0.00000  Uiso   1.00
O132   O     0.93739   0.96221   0.09233   0.00000  Uiso   1.00
N133   N     0.16527   0.59007   0.17409   0.00000  Uiso   1.00
N134   N     0.11190   0.79142   0.52468   0.00000  Uiso   1.00
N135   N     0.95183   0.88470   0.15672   0.00000  Uiso   1.00
N136   N     0.23681   0.64082   0.14892   0.00000  Uiso   1.00
N137   N     0.18343   0.84217   0.49951   0.00000  Uiso   1.00
N138   N     0.02337   0.93544   0.13155   0.00000  Uiso   1.00
C139   C     0.57004   0.25092   0.78734   0.00000  Uiso   1.00
C140   C     0.61376   0.21899   0.74997   0.00000  Uiso   1.00
C141   C     0.61068   0.16388   0.73258   0.00000  Uiso   1.00
C142   C     0.65497   0.14230   0.69850   0.00000  Uiso   1.00
C143   C     0.71592   0.08779   0.64295   0.00000  Uiso   1.00
C144   C     0.59906   0.27448   0.84660   0.00000  Uiso   1.00
C145   C     0.58361   0.26602   0.91045   0.00000  Uiso   1.00
C146   C     0.61551   0.29116   0.95771   0.00000  Uiso   1.00
C147   C     0.65361   0.32283   0.05217   0.00000  Uiso   1.00
C148   C     0.55495   0.30018   0.74518   0.00000  Uiso   1.00
C149   C     0.50240   0.31334   0.72377   0.00000  Uiso   1.00
C150   C     0.49717   0.36013   0.68565   0.00000  Uiso   1.00
C151   C     0.46678   0.43169   0.62265   0.00000  Uiso   1.00
C152   C     0.65416   0.31060   0.75775   0.00000  Uiso   1.00
C153   C     0.65946   0.25141   0.73390   0.00000  Uiso   1.00
C154   C     0.70376   0.22991   0.69983   0.00000  Uiso   1.00
C155   C     0.70074   0.17478   0.68239   0.00000  Uiso   1.00
C156   C     0.64475   0.30690   0.83053   0.00000  Uiso   1.00
C157   C     0.67668   0.33205   0.87770   0.00000  Uiso   1.00
C158   C     0.66129   0.32364   0.94160   0.00000  Uiso   1.00
C159   C     0.60064   0.33260   0.72910   0.00000  Uiso   1.00
C160   C     0.59548   0.37937   0.69102   0.00000  Uiso   1.00
C161   C     0.54294   0.39260   0.66955   0.00000  Uiso   1.00
H162   H     0.53446   0.22568   0.79986   0.00000  Uiso   1.00
H163   H     0.57531   0.13881   0.74504   0.00000  Uiso   1.00
H164   H     0.54824   0.24094   0.92287   0.00000  Uiso   1.00
H165   H     0.46705   0.28825   0.73622   0.00000  Uiso   1.00
H166   H     0.64077   0.05678   0.67718   0.00000  Uiso   1.00
H167   H     0.58367   0.27215   0.05216   0.00000  Uiso   1.00
H168   H     0.41246   0.37191   0.65857   0.00000  Uiso   1.00
H169   H     0.68974   0.33584   0.74523   0.00000  Uiso   1.00
H170   H     0.73911   0.25501   0.68740   0.00000  Uiso   1.00
H171   H     0.71204   0.35714   0.86524   0.00000  Uiso   1.00
H172   H     0.63085   0.40445   0.67859   0.00000  Uiso   1.00
H173   H     0.77371   0.15109   0.63040   0.00000  Uiso   1.00
H174   H     0.71661   0.36646   0.00538   0.00000  Uiso   1.00
H175   H     0.54541   0.46622   0.61179   0.00000  Uiso   1.00
O176   O     0.73692   0.04877   0.61675   0.00000  Uiso   1.00
O177   O     0.66201   0.33133   0.10871   0.00000  Uiso   1.00
O178   O     0.43739   0.46221   0.59233   0.00000  Uiso   1.00
N179   N     0.66527   0.09007   0.67409   0.00000  Uiso   1.00
N180   N     0.61190   0.29142   0.02468   0.00000  Uiso   1.00
N181   N     0.45183   0.38470   0.65672   0.00000  Uiso   1.00
N182   N     0.73681   0.14082   0.64892   0.00000  Uiso   1.00
N183   N     0.68343   0.34217   0.99951   0.00000  Uiso   1.00
N184   N     0.52337   0.43544   0.63155   0.00000  Uiso   1.00
C185   C     0.25092   0.92996   0.03734   0.00000  Uiso   1.00
C186   C     0.21899   0.88624   0.99997   0.00000  Uiso   1.00
C187   C     0.16388   0.88932   0.98258   0.00000  Uiso   1.00
C188   C     0.14230   0.84503   0.94850   0.00000  Uiso   1.00
C189   C     0.08779   0.78408   0.89295   0.00000  Uiso   1.00
C190   C     0.27448   0.90094   0.09660   0.00000  Uiso   1.00
C191   C     0.26602   0.91639   0.16045   0.00000  Uiso   1.00
C192   C     0.29116   0.88449   0.20771   0.00000  Uiso   1.00
C193   C     0.32283   0.84639   0.30217   0.00000  Uiso   1.00
C194   C     0.30018   0.94505   0.99518   0.00000  Uiso   1.00
C195   C     0.31334   0.99760   0.97377   0.00000  Uiso   1.00
C196   C     0.36013   0.00283   0.93565   0.00000  Uiso   1.00
C197   C     0.43169   0.03322   0.87265   0.00000  Uiso   1.00
C198   C     0.31060   0.84584   0.00775   0.00000  Uiso   1.00
C199   C     0.25141   0.84054   0.98390   0.00000  Uiso   1.00
C200   C     0.22991   0.79624   0.94983   0.00000  Uiso   1.00
C201   C     0.17478   0.79926   0.93239   0.00000  Uiso   1.00
C202   C     0.30690   0.85525   0.08053   0.00000  Uiso   1.00
C203   C     0.33205   0.82332   0.12770   0.00000  Uiso   1.00
C204   C     0.32364   0.83871   0.19160   0.00000  Uiso   1.00
C205   C     0.33260   0.89936   0.97910   0.00000  Uiso   1.00
C206   C     0.37937   0.90452   0.94102   0.00000  Uiso   1.00
C207   C     0.39260   0.95706   0.91955   0.00000  Uiso   1.00
H208   H     0.22568   0.96554   0.04986   0.00000  Uiso   1.00
H209   H     0.13881   0.92469   0.99504   0.00000  Uiso   1.00
H210   H     0.24094   0.95176   0.17287   0.00000  Uiso   1.00
H211   H     0.28825   0.03295   0.98622   0.00000  Uiso   1.00
H212   H     0.05678   0.85923   0.92718   0.00000  Uiso   1.00
H213   H     0.27215   0.91633   0.30216   0.00000  Uiso   1.00
H214   H     0.37191   0.08754   0.90857   0.00000  Uiso   1.00
H215   H     0.33584   0.81026   0.99523   0.00000  Uiso   1.00
H216   H     0.25501   0.76089   0.93740   0.00000  Uiso   1.00
H217   H     0.35714   0.78796   0.11524   0.00000  Uiso   1.00
H218   H     0.40445   0.86915   0.92859   0.00000  Uiso   1.00
H219   H     0.15109   0.72629   0.88040   0.00000  Uiso   1.00
H220   H     0.36646   0.78339   0.25538   0.00000  Uiso   1.00
H221   H     0.46622   0.95459   0.86179   0.00000  Uiso   1.00
O222   O     0.04877   0.76308   0.86675   0.00000  Uiso   1.00
O223   O     0.33133   0.83799   0.35871   0.00000  Uiso   1.00
O224   O     0.46221   0.06261   0.84233   0.00000  Uiso   1.00
N225   N     0.09007   0.83473   0.92409   0.00000  Uiso   1.00
N226   N     0.29142   0.88810   0.27468   0.00000  Uiso   1.00
N227   N     0.38470   0.04817   0.90672   0.00000  Uiso   1.00
N228   N     0.14082   0.76319   0.89892   0.00000  Uiso   1.00
N229   N     0.34217   0.81657   0.24951   0.00000  Uiso   1.00
N230   N     0.43544   0.97663   0.88155   0.00000  Uiso   1.00
C231   C     0.75092   0.42996   0.53734   0.00000  Uiso   1.00
C232   C     0.71899   0.38624   0.49997   0.00000  Uiso   1.00
C233   C     0.66388   0.38932   0.48258   0.00000  Uiso   1.00
C234   C     0.64230   0.34503   0.44850   0.00000  Uiso   1.00
C235   C     0.58779   0.28408   0.39295   0.00000  Uiso   1.00
C236   C     0.77448   0.40094   0.59660   0.00000  Uiso   1.00
C237   C     0.76602   0.41639   0.66045   0.00000  Uiso   1.00
C238   C     0.79116   0.38449   0.70771   0.00000  Uiso   1.00
C239   C     0.82283   0.34639   0.80217   0.00000  Uiso   1.00
C240   C     0.80018   0.44505   0.49518   0.00000  Uiso   1.00
C241   C     0.81334   0.49760   0.47377   0.00000  Uiso   1.00
C242   C     0.86013   0.50283   0.43565   0.00000  Uiso   1.00
C243   C     0.93169   0.53322   0.37265   0.00000  Uiso   1.00
C244   C     0.81060   0.34584   0.50775   0.00000  Uiso   1.00
C245   C     0.75141   0.34054   0.48390   0.00000  Uiso   1.00
C246   C     0.72991   0.29624   0.44983   0.00000  Uiso   1.00
C247   C     0.67478   0.29926   0.43239   0.00000  Uiso   1.00
C248   C     0.80690   0.35525   0.58053   0.00000  Uiso   1.00
C249   C     0.83205   0.32332   0.62770   0.00000  Uiso   1.00
C250   C     0.82364   0.33871   0.69160   0.00000  Uiso   1.00
C251   C     0.83260   0.39936   0.47910   0.00000  Uiso   1.00
C252   C     0.87937   0.40452   0.44102   0.00000  Uiso   1.00
C253   C     0.89260   0.45706   0.41955   0.00000  Uiso   1.00
H254   H     0.72568   0.46554   0.54986   0.00000  Uiso   1.00
H255   H     0.63881   0.42469   0.49504   0.00000  Uiso   1.00
H256   H     0.74094   0.45176   0.67287   0.00000  Uiso   1.00
H257   H     0.78825   0.53295   0.48622   0.00000  Uiso   1.00
H258   H     0.55678   0.35923   0.42718   0.00000  Uiso   1.00
H259   H     0.77215   0.41633   0.80216   0.00000  Uiso   1.00
H260   H     0.87191   0.58754   0.40857   0.00000  Uiso   1.00
H261   H     0.83584   0.31026   0.49523   0.00000  Uiso   1.00
H262   H     0.75501   0.26089   0.43740   0.00000  Uiso   1.00
H263   H     0.85714   0.28796   0.61524   0.00000  Uiso   1.00
H264   H     0.90445   0.36915   0.42859   0.00000  Uiso   1.00
H265   H     0.65109   0.22629   0.38040   0.00000  Uiso   1.00
H266   H     0.86646   0.28339   0.75538   0.00000  Uiso   1.00
H267   H     0.96622   0.45459   0.36179   0.00000  Uiso   1.00
O268   O     0.54877   0.26308   0.36675   0.00000  Uiso   1.00
O269   O     0.83133   0.33799   0.85871   0.00000  Uiso   1.00
O270   O     0.96221   0.56261   0.34233   0.00000  Uiso   1.00
N271   N     0.59007   0.33473   0.42409   0.00000  Uiso   1.00
N272   N     0.79142   0.38810   0.77468   0.00000  Uiso   1.00
N273   N     0.88470   0.54817   0.40672   0.00000  Uiso   1.00
N274   N     0.64082   0.26319   0.39892   0.00000  Uiso   1.00
N275   N     0.84217   0.31657   0.74951   0.00000  Uiso   1.00
N276   N     0.93544   0.47663   0.38155   0.00000  Uiso   1.00
C277   C     0.24908   0.57004   0.53734   0.00000  Uiso   1.00
C278   C     0.28101   0.61376   0.49997   0.00000  Uiso   1.00
C279   C     0.33612   0.61068   0.48258   0.00000  Uiso   1.00
C280   C     0.35770   0.65497   0.44850   0.00000  Uiso   1.00
C281   C     0.41221   0.71592   0.39295   0.00000  Uiso   1.00
C282   C     0.22552   0.59906   0.59660   0.00000  Uiso   1.00
C283   C     0.23398   0.58361   0.66045   0.00000  Uiso   1.00
C284   C     0.20884   0.61551   0.70771   0.00000  Uiso   1.00
C285   C     0.17717   0.65361   0.80217   0.00000  Uiso   1.00
C286   C     0.19982   0.55495   0.49518   0.00000  Uiso   1.00
C287   C     0.18666   0.50240   0.47377   0.00000  Uiso   1.00
C288   C     0.13987   0.49717   0.43565   0.00000  Uiso   1.00
C289   C     0.06831   0.46678   0.37265   0.00000  Uiso   1.00
C290   C     0.18940   0.65416   0.50775   0.00000  Uiso   1.00
C291   C     0.24859   0.65946   0.48390   0.00000  Uiso   1.00
C292   C     0.27009   0.70376   0.44983   0.00000  Uiso   1.00
C293   C     0.32522   0.70074   0.43239   0.00000  Uiso   1.00
C294   C     0.19310   0.64475   0.58053   0.00000  Uiso   1.00
C295   C     0.16795   0.67668   0.62770   0.00000  Uiso   1.00
C296   C     0.17636   0.66129   0.69160   0.00000  Uiso   1.00
C297   C     0.16740   0.60064   0.47910   0.00000  Uiso   1.00
C298   C     0.12063   0.59548   0.44102   0.00000  Uiso   1.00
C299   C     0.10740   0.54294   0.41955   0.00000  Uiso   1.00
H300   H     0.27432   0.53446   0.54986   0.00000  Uiso   1.00
H301   H     0.36119   0.57531   0.49504   0.00000  Uiso   1.00
H302   H     0.25906   0.54824   0.67287   0.00000  Uiso   1.00
H303   H     0.21175   0.46705   0.48622   0.00000  Uiso   1.00
H304   H     0.44322   0.64077   0.42718   0.00000  Uiso   1.00
H305   H     0.22785   0.58367   0.80216   0.00000  Uiso   1.00
H306   H     0.12809   0.41246   0.40857   0.00000  Uiso   1.00
H307   H     0.16416   0.68974   0.49523   0.00000  Uiso   1.00
H308   H     0.24499   0.73911   0.43740   0.00000  Uiso   1.00
H309   H     0.14286   0.71204   0.61524   0.00000  Uiso   1.00
H310   H     0.09555   0.63085   0.42859   0.00000  Uiso   1.00
H311   H     0.34891   0.77371   0.38040   0.00000  Uiso   1.00
H312   H     0.13354   0.71661   0.75538   0.00000  Uiso   1.00
H313   H     0.03378   0.54541   0.36179   0.00000  Uiso   1.00
O314   O     0.45123   0.73692   0.36675   0.00000  Uiso   1.00
O315   O     0.16867   0.66201   0.85871   0.00000  Uiso   1.00
O316   O     0.03779   0.43739   0.34233   0.00000  Uiso   1.00
N317   N     0.40993   0.66527   0.42409   0.00000  Uiso   1.00
N318   N     0.20858   0.61190   0.77468   0.00000  Uiso   1.00
N319   N     0.11530   0.45183   0.40672   0.00000  Uiso   1.00
N320   N     0.35918   0.73681   0.39892   0.00000  Uiso   1.00
N321   N     0.15783   0.68343   0.74951   0.00000  Uiso   1.00
N322   N     0.06456   0.52337   0.38155   0.00000  Uiso   1.00
C323   C     0.74908   0.07004   0.03734   0.00000  Uiso   1.00
C324   C     0.78101   0.11376   0.99997   0.00000  Uiso   1.00
C325   C     0.83612   0.11068   0.98258   0.00000  Uiso   1.00
C326   C     0.85770   0.15497   0.94850   0.00000  Uiso   1.00
C327   C     0.91221   0.21592   0.89295   0.00000  Uiso   1.00
C328   C     0.72552   0.09906   0.09660   0.00000  Uiso   1.00
C329   C     0.73398   0.08361   0.16045   0.00000  Uiso   1.00
C330   C     0.70884   0.11551   0.20771   0.00000  Uiso   1.00
C331   C     0.67717   0.15361   0.30217   0.00000  Uiso   1.00
C332   C     0.69982   0.05495   0.99518   0.00000  Uiso   1.00
C333   C     0.68666   0.00240   0.97377   0.00000  Uiso   1.00
C334   C     0.63987   0.99717   0.93565   0.00000  Uiso   1.00
C335   C     0.56831   0.96678   0.87265   0.00000  Uiso   1.00
C336   C     0.68940   0.15416   0.00775   0.00000  Uiso   1.00
C337   C     0.74859   0.15946   0.98390   0.00000  Uiso   1.00
C338   C     0.77009   0.20376   0.94983   0.00000  Uiso   1.00
C339   C     0.82522   0.20074   0.93239   0.00000  Uiso   1.00
C340   C     0.69310   0.14475   0.08053   0.00000  Uiso   1.00
C341   C     0.66795   0.17668   0.12770   0.00000  Uiso   1.00
C342   C     0.67636   0.16129   0.19160   0.00000  Uiso   1.00
C343   C     0.66740   0.10064   0.97910   0.00000  Uiso   1.00
C344   C     0.62063   0.09548   0.94102   0.00000  Uiso   1.00
C345   C     0.60740   0.04294   0.91955   0.00000  Uiso   1.00
H346   H     0.77432   0.03446   0.04986   0.00000  Uiso   1.00
H347   H     0.86119   0.07531   0.99504   0.00000  Uiso   1.00
H348   H     0.75906   0.04824   0.17287   0.00000  Uiso   1.00
H349   H     0.71175   0.96705   0.98622   0.00000  Uiso   1.00
H350   H     0.94322   0.14077   0.92718   0.00000  Uiso   1.00
H351   H     0.72785   0.08367   0.30216   0.00000  Uiso   1.00
H352   H     0.62809   0.91246   0.90857   0.00000  Uiso   1.00
H353   H     0.66416   0.18974   0.99523   0.00000  Uiso   1.00
H354   H     0.74499   0.23911   0.93740   0.00000  Uiso   1.00
H355   H     0.64286   0.21204   0.11524   0.00000  Uiso   1.00
H356   H     0.59555   0.13085   0.92859   0.00000  Uiso   1.00
H357   H     0.84891   0.27371   0.88040   0.00000  Uiso   1.00
H358   H     0.63354   0.21661   0.25538   0.00000  Uiso   1.00
H359   H     0.53378   0.04541   0.86179   0.00000  Uiso   1.00
O360   O     0.95123   0.23692   0.86675   0.00000  Uiso   1.00
O361   O     0.66867   0.16201   0.35871   0.00000  Uiso   1.00
O362   O     0.53779   0.93739   0.84233   0.00000  Uiso   1.00
N363   N     0.90993   0.16527   0.92409   0.00000  Uiso   1.00
N364   N     0.70858   0.11190   0.27468   0.00000  Uiso   1.00
N365   N     0.61530   0.95183   0.90672   0.00000  Uiso   1.00
N366   N     0.85918   0.23681   0.89892   0.00000  Uiso   1.00
N367   N     0.65783   0.18343   0.24951   0.00000  Uiso   1.00
N368   N     0.56456   0.02337   0.88155   0.00000  Uiso   1.00
C369   C     0.57004   0.75092   0.46266   0.00000  Uiso   1.00
C370   C     0.61376   0.71899   0.50003   0.00000  Uiso   1.00
C371   C     0.61068   0.66388   0.51742   0.00000  Uiso   1.00
C372   C     0.65497   0.64230   0.55150   0.00000  Uiso   1.00
C373   C     0.71592   0.58779   0.60705   0.00000  Uiso   1.00
C374   C     0.59906   0.77448   0.40340   0.00000  Uiso   1.00
C375   C     0.58361   0.76602   0.33955   0.00000  Uiso   1.00
C376   C     0.61551   0.79116   0.29229   0.00000  Uiso   1.00
C377   C     0.65361   0.82283   0.19783   0.00000  Uiso   1.00
C378   C     0.55495   0.80018   0.50482   0.00000  Uiso   1.00
C379   C     0.50240   0.81334   0.52623   0.00000  Uiso   1.00
C380   C     0.49717   0.86013   0.56435   0.00000  Uiso   1.00
C381   C     0.46678   0.93169   0.62735   0.00000  Uiso   1.00
C382   C     0.65416   0.81060   0.49225   0.00000  Uiso   1.00
C383   C     0.65946   0.75141   0.51610   0.00000  Uiso   1.00
C384   C     0.70376   0.72991   0.55017   0.00000  Uiso   1.00
C385   C     0.70074   0.67478   0.56761   0.00000  Uiso   1.00
C386   C     0.64475   0.80690   0.41947   0.00000  Uiso   1.00
C387   C     0.67668   0.83205   0.37230   0.00000  Uiso   1.00
C388   C     0.66129   0.82364   0.30840   0.00000  Uiso   1.00
C389   C     0.60064   0.83260   0.52090   0.00000  Uiso   1.00
C390   C     0.59548   0.87937   0.55898   0.00000  Uiso   1.00
C391   C     0.54294   0.89260   0.58045   0.00000  Uiso   1.00
H392   H     0.53446   0.72568   0.45014   0.00000  Uiso   1.00
H393   H     0.57531   0.63881   0.50496   0.00000  Uiso   1.00
H394   H     0.54824   0.74094   0.32713   0.00000  Uiso   1.00
H395   H     0.46705   0.78825   0.51378   0.00000  Uiso   1.00
H396   H     0.64077   0.55678   0.57282   0.00000  Uiso   1.00
H397   H     0.58367   0.77215   0.19784   0.00000  Uiso   1.00
H398   H     0.41246   0.87191   0.59143   0.00000  Uiso   1.00
H399   H     0.68974   0.83584   0.50477   0.00000  Uiso   1.00
H400   H     0.73911   0.75501   0.56260   0.00000  Uiso   1.00
H401   H     0.71204   0.85714   0.38476   0.00000  Uiso   1.00
H402   H     0.63085   0.90445   0.57141   0.00000  Uiso   1.00
H403   H     0.77371   0.65109   0.61960   0.00000  Uiso   1.00
H404   H     0.71661   0.86646   0.24462   0.00000  Uiso   1.00
H405   H     0.54541   0.96622   0.63821   0.00000  Uiso   1.00
O406   O     0.73692   0.54877   0.63325   0.00000  Uiso   1.00
O407   O     0.66201   0.83133   0.14129   0.00000  Uiso   1.00
O408   O     0.43739   0.96221   0.65767   0.00000  Uiso   1.00
N409   N     0.66527   0.59007   0.57591   0.00000  Uiso   1.00
N410   N     0.61190   0.79142   0.22532   0.00000  Uiso   1.00
N411   N     0.45183   0.88470   0.59328   0.00000  Uiso   1.00
N412   N     0.73681   0.64082   0.60108   0.00000  Uiso   1.00
N413   N     0.68343   0.84217   0.25049   0.00000  Uiso   1.00
N414   N     0.52337   0.93544   0.61845   0.00000  Uiso   1.00
C415   C     0.07004   0.25092   0.96266   0.00000  Uiso   1.00
C416   C     0.11376   0.21899   0.00003   0.00000  Uiso   1.00
C417   C     0.11068   0.16388   0.01742   0.00000  Uiso   1.00
C418   C     0.15497   0.14230   0.05150   0.00000  Uiso   1.00
C419   C     0.21592   0.08779   0.10705   0.00000  Uiso   1.00
C420   C     0.09906   0.27448   0.90340   0.00000  Uiso   1.00
C421   C     0.08361   0.26602   0.83955   0.00000  Uiso   1.00
C422   C     0.11551   0.29116   0.79229   0.00000  Uiso   1.00
C423   C     0.15361   0.32283   0.69783   0.00000  Uiso   1.00
C424   C     0.05495   0.30018   0.00482   0.00000  Uiso   1.00
C425   C     0.00240   0.31334   0.02623   0.00000  Uiso   1.00
C426   C     0.99717   0.36013   0.06435   0.00000  Uiso   1.00
C427   C     0.96678   0.43169   0.12735   0.00000  Uiso   1.00
C428   C     0.15416   0.31060   0.99225   0.00000  Uiso   1.00
C429   C     0.15946   0.25141   0.01610   0.00000  Uiso   1.00
C430   C     0.20376   0.22991   0.05017   0.00000  Uiso   1.00
C431   C     0.20074   0.17478   0.06761   0.00000  Uiso   1.00
C432   C     0.14475   0.30690   0.91947   0.00000  Uiso   1.00
C433   C     0.17668   0.33205   0.87230   0.00000  Uiso   1.00
C434   C     0.16129   0.32364   0.80840   0.00000  Uiso   1.00
C435   C     0.10064   0.33260   0.02090   0.00000  Uiso   1.00
C436   C     0.09548   0.37937   0.05898   0.00000  Uiso   1.00
C437   C     0.04294   0.39260   0.08045   0.00000  Uiso   1.00
H438   H     0.03446   0.22568   0.95014   0.00000  Uiso   1.00
H439   H     0.07531   0.13881   0.00496   0.00000  Uiso   1.00
H440   H     0.04824   0.24094   0.82713   0.00000  Uiso   1.00
H441   H     0.96705   0.28825   0.01378   0.00000  Uiso   1.00
H442   H     0.14077   0.05678   0.07282   0.00000  Uiso   1.00
H443   H     0.08367   0.27215   0.69784   0.00000  Uiso   1.00
H444   H     0.91246   0.37191   0.09143   0.00000  Uiso   1.00
H445   H     0.18974   0.33584   0.00477   0.00000  Uiso   1.00
H446   H     0.23911   0.25501   0.06260   0.00000  Uiso   1.00
H447   H     0.21204   0.35714   0.88476   0.00000  Uiso   1.00
H448   H     0.13085   0.40445   0.07141   0.00000  Uiso   1.00
H449   H     0.27371   0.15109   0.11960   0.00000  Uiso   1.00
H450   H     0.21661   0.36646   0.74462   0.00000  Uiso   1.00
H451   H     0.04541   0.46622   0.13821   0.00000  Uiso   1.00
O452   O     0.23692   0.04877   0.13325   0.00000  Uiso   1.00
O453   O     0.16201   0.33133   0.64129   0.00000  Uiso   1.00
O454   O     0.93739   0.46221   0.15767   0.00000  Uiso   1.00
N455   N     0.16527   0.09007   0.07591   0.00000  Uiso   1.00
N456   N     0.11190   0.29142   0.72532   0.00000  Uiso   1.00
N457   N     0.95183   0.38470   0.09328   0.00000  Uiso   1.00
N458   N     0.23681   0.14082   0.10108   0.00000  Uiso   1.00
N459   N     0.18343   0.34217   0.75049   0.00000  Uiso   1.00
N460   N     0.02337   0.43544   0.11845   0.00000  Uiso   1.00
C461   C     0.92996   0.74908   0.96266   0.00000  Uiso   1.00
C462   C     0.88624   0.78101   0.00003   0.00000  Uiso   1.00
C463   C     0.88932   0.83612   0.01742   0.00000  Uiso   1.00
C464   C     0.84503   0.85770   0.05150   0.00000  Uiso   1.00
C465   C     0.78408   0.91221   0.10705   0.00000  Uiso   1.00
C466   C     0.90094   0.72552   0.90340   0.00000  Uiso   1.00
C467   C     0.91639   0.73398   0.83955   0.00000  Uiso   1.00
C468   C     0.88449   0.70884   0.79229   0.00000  Uiso   1.00
C469   C     0.84639   0.67717   0.69783   0.00000  Uiso   1.00
C470   C     0.94505   0.69982   0.00482   0.00000  Uiso   1.00
C471   C     0.99760   0.68666   0.02623   0.00000  Uiso   1.00
C472   C     0.00283   0.63987   0.06435   0.00000  Uiso   1.00
C473   C     0.03322   0.56831   0.12735   0.00000  Uiso   1.00
C474   C     0.84584   0.68940   0.99225   0.00000  Uiso   1.00
C475   C     0.84054   0.74859   0.01610   0.00000  Uiso   1.00
C476   C     0.79624   0.77009   0.05017   0.00000  Uiso   1.00
C477   C     0.79926   0.82522   0.06761   0.00000  Uiso   1.00
C478   C     0.85525   0.69310   0.91947   0.00000  Uiso   1.00
C479   C     0.82332   0.66795   0.87230   0.00000  Uiso   1.00
C480   C     0.83871   0.67636   0.80840   0.00000  Uiso   1.00
C481   C     0.89936   0.66740   0.02090   0.00000  Uiso   1.00
C482   C     0.90452   0.62063   0.05898   0.00000  Uiso   1.00
C483   C     0.95706   0.60740   0.08045   0.00000  Uiso   1.00
H484   H     0.96554   0.77432   0.95014   0.00000  Uiso   1.00
H485   H     0.92469   0.86119   0.00496   0.00000  Uiso   1.00
H486   H     0.95176   0.75906   0.82713   0.00000  Uiso   1.00
H487   H     0.03295   0.71175   0.01378   0.00000  Uiso   1.00
H488   H     0.85923   0.94322   0.07282   0.00000  Uiso   1.00
H489   H     0.91633   0.72785   0.69784   0.00000  Uiso   1.00
H490   H     0.08754   0.62809   0.09143   0.00000  Uiso   1.00
H491   H     0.81026   0.66416   0.00477   0.00000  Uiso   1.00
H492   H     0.76089   0.74499   0.06260   0.00000  Uiso   1.00
H493   H     0.78796   0.64286   0.88476   0.00000  Uiso   1.00
H494   H     0.86915   0.59555   0.07141   0.00000  Uiso   1.00
H495   H     0.72629   0.84891   0.11960   0.00000  Uiso   1.00
H496   H     0.78339   0.63354   0.74462   0.00000  Uiso   1.00
H497   H     0.95459   0.53378   0.13821   0.00000  Uiso   1.00
O498   O     0.76308   0.95123   0.13325   0.00000  Uiso   1.00
O499   O     0.83799   0.66867   0.64129   0.00000  Uiso   1.00
O500   O     0.06261   0.53779   0.15767   0.00000  Uiso   1.00
N501   N     0.83473   0.90993   0.07591   0.00000  Uiso   1.00
N502   N     0.88810   0.70858   0.72532   0.00000  Uiso   1.00
N503   N     0.04817   0.61530   0.09328   0.00000  Uiso   1.00
N504   N     0.76319   0.85918   0.10108   0.00000  Uiso   1.00
N505   N     0.81657   0.65783   0.75049   0.00000  Uiso   1.00
N506   N     0.97663   0.56456   0.11845   0.00000  Uiso   1.00
C507   C     0.42996   0.24908   0.46266   0.00000  Uiso   1.00
C508   C     0.38624   0.28101   0.50003   0.00000  Uiso   1.00
C509   C     0.38932   0.33612   0.51742   0.00000  Uiso   1.00
C510   C     0.34503   0.35770   0.55150   0.00000  Uiso   1.00
C511   C     0.28408   0.41221   0.60705   0.00000  Uiso   1.00
C512   C     0.40094   0.22552   0.40340   0.00000  Uiso   1.00
C513   C     0.41639   0.23398   0.33955   0.00000  Uiso   1.00
C514   C     0.38449   0.20884   0.29229   0.00000  Uiso   1.00
C515   C     0.34639   0.17717   0.19783   0.00000  Uiso   1.00
C516   C     0.44505   0.19982   0.50482   0.00000  Uiso   1.00
C517   C     0.49760   0.18666   0.52623   0.00000  Uiso   1.00
C518   C     0.50283   0.13987   0.56435   0.00000  Uiso   1.00
C519   C     0.53322   0.06831   0.62735   0.00000  Uiso   1.00
C520   C     0.34584   0.18940   0.49225   0.00000  Uiso   1.00
C521   C     0.34054   0.24859   0.51610   0.00000  Uiso   1.00
C522   C     0.29624   0.27009   0.55017   0.00000  Uiso   1.00
C523   C     0.29926   0.32522   0.56761   0.00000  Uiso   1.00
C524   C     0.35525   0.19310   0.41947   0.00000  Uiso   1.00
C525   C     0.32332   0.16795   0.37230   0.00000  Uiso   1.00
C526   C     0.33871   0.17636   0.30840   0.00000  Uiso   1.00
C527   C     0.39936   0.16740   0.52090   0.00000  Uiso   1.00
C528   C     0.40452   0.12063   0.55898   0.00000  Uiso   1.00
C529   C     0.45706   0.10740   0.58045   0.00000  Uiso   1.00
H530   H     0.46554   0.27432   0.45014   0.00000  Uiso   1.00
H531   H     0.42469   0.36119   0.50496   0.00000  Uiso   1.00
H532   H     0.45176   0.25906   0.32713   0.00000  Uiso   1.00
H533   H     0.53295   0.21175   0.51378   0.00000  Uiso   1.00
H534   H     0.35923   0.44322   0.57282   0.00000  Uiso   1.00
H535   H     0.41633   0.22785   0.19784   0.00000  Uiso   1.00
H536   H     0.58754   0.12809   0.59143   0.00000  Uiso   1.00
H537   H     0.31026   0.16416   0.50477   0.00000  Uiso   1.00
H538   H     0.26089   0.24499   0.56260   0.00000  Uiso   1.00
H539   H     0.28796   0.14286   0.38476   0.00000  Uiso   1.00
H540   H     0.36915   0.09555   0.57141   0.00000  Uiso   1.00
H541   H     0.22629   0.34891   0.61960   0.00000  Uiso   1.00
H542   H     0.28339   0.13354   0.24462   0.00000  Uiso   1.00
H543   H     0.45459   0.03378   0.63821   0.00000  Uiso   1.00
O544   O     0.26308   0.45123   0.63325   0.00000  Uiso   1.00
O545   O     0.33799   0.16867   0.14129   0.00000  Uiso   1.00
O546   O     0.56261   0.03779   0.65767   0.00000  Uiso   1.00
N547   N     0.33473   0.40993   0.57591   0.00000  Uiso   1.00
N548   N     0.38810   0.20858   0.22532   0.00000  Uiso   1.00
N549   N     0.54817   0.11530   0.59328   0.00000  Uiso   1.00
N550   N     0.26319   0.35918   0.60108   0.00000  Uiso   1.00
N551   N     0.31657   0.15783   0.25049   0.00000  Uiso   1.00
N552   N     0.47663   0.06456   0.61845   0.00000  Uiso   1.00
C553   C     0.74908   0.57004   0.21266   0.00000  Uiso   1.00
C554   C     0.78101   0.61376   0.25003   0.00000  Uiso   1.00
C555   C     0.83612   0.61068   0.26742   0.00000  Uiso   1.00
C556   C     0.85770   0.65497   0.30150   0.00000  Uiso   1.00
C557   C     0.91221   0.71592   0.35705   0.00000  Uiso   1.00
C558   C     0.72552   0.59906   0.15340   0.00000  Uiso   1.00
C559   C     0.73398   0.58361   0.08955   0.00000  Uiso   1.00
C560   C     0.70884   0.61551   0.04229   0.00000  Uiso   1.00
C561   C     0.67717   0.65361   0.94783   0.00000  Uiso   1.00
C562   C     0.69982   0.55495   0.25482   0.00000  Uiso   1.00
C563   C     0.68666   0.50240   0.27623   0.00000  Uiso   1.00
C564   C     0.63987   0.49717   0.31435   0.00000  Uiso   1.00
C565   C     0.56831   0.46678   0.37735   0.00000  Uiso   1.00
C566   C     0.68940   0.65416   0.24225   0.00000  Uiso   1.00
C567   C     0.74859   0.65946   0.26610   0.00000  Uiso   1.00
C568   C     0.77009   0.70376   0.30017   0.00000  Uiso   1.00
C569   C     0.82522   0.70074   0.31761   0.00000  Uiso   1.00
C570   C     0.69310   0.64475   0.16947   0.00000  Uiso   1.00
C571   C     0.66795   0.67668   0.12230   0.00000  Uiso   1.00
C572   C     0.67636   0.66129   0.05840   0.00000  Uiso   1.00
C573   C     0.66740   0.60064   0.27090   0.00000  Uiso   1.00
C574   C     0.62063   0.59548   0.30898   0.00000  Uiso   1.00
C575   C     0.60740   0.54294   0.33045   0.00000  Uiso   1.00
H576   H     0.77432   0.53446   0.20014   0.00000  Uiso   1.00
H577   H     0.86119   0.57531   0.25496   0.00000  Uiso   1.00
H578   H     0.75906   0.54824   0.07713   0.00000  Uiso   1.00
H579   H     0.71175   0.46705   0.26378   0.00000  Uiso   1.00
H580   H     0.94322   0.64077   0.32282   0.00000  Uiso   1.00
H581   H     0.72785   0.58367   0.94784   0.00000  Uiso   1.00
H582   H     0.62809   0.41246   0.34143   0.00000  Uiso   1.00
H583   H     0.66416   0.68974   0.25477   0.00000  Uiso   1.00
H584   H     0.74499   0.73911   0.31260   0.00000  Uiso   1.00
H585   H     0.64286   0.71204   0.13476   0.00000  Uiso   1.00
H586   H     0.59555   0.63085   0.32141   0.00000  Uiso   1.00
H587   H     0.84891   0.77371   0.36960   0.00000  Uiso   1.00
H588   H     0.63354   0.71661   0.99462   0.00000  Uiso   1.00
H589   H     0.53378   0.54541   0.38821   0.00000  Uiso   1.00
O590   O     0.95123   0.73692   0.38325   0.00000  Uiso   1.00
O591   O     0.66867   0.66201   0.89129   0.00000  Uiso   1.00
O592   O     0.53779   0.43739   0.40767   0.00000  Uiso   1.00
N593   N     0.90993   0.66527   0.32591   0.00000  Uiso   1.00
N594   N     0.70858   0.61190   0.97532   0.00000  Uiso   1.00
N595   N     0.61530   0.45183   0.34328   0.00000  Uiso   1.00
N596   N     0.85918   0.73681   0.35108   0.00000  Uiso   1.00
N597   N     0.65783   0.68343   0.00049   0.00000  Uiso   1.00
N598   N     0.56456   0.52337   0.36845   0.00000  Uiso   1.00
C599   C     0.24908   0.07004   0.71266   0.00000  Uiso   1.00
C600   C     0.28101   0.11376   0.75003   0.00000  Uiso   1.00
C601   C     0.33612   0.11068   0.76742   0.00000  Uiso   1.00
C602   C     0.35770   0.15497   0.80150   0.00000  Uiso   1.00
C603   C     0.41221   0.21592   0.85705   0.00000  Uiso   1.00
C604   C     0.22552   0.09906   0.65340   0.00000  Uiso   1.00
C605   C     0.23398   0.08361   0.58955   0.00000  Uiso   1.00
C606   C     0.20884   0.11551   0.54229   0.00000  Uiso   1.00
C607   C     0.17717   0.15361   0.44783   0.00000  Uiso   1.00
C608   C     0.19982   0.05495   0.75482   0.00000  Uiso   1.00
C609   C     0.18666   0.00240   0.77623   0.00000  Uiso   1.00
C610   C     0.13987   0.99717   0.81435   0.00000  Uiso   1.00
C611   C     0.06831   0.96678   0.87735   0.00000  Uiso   1.00
C612   C     0.18940   0.15416   0.74225   0.00000  Uiso   1.00
C613   C     0.24859   0.15946   0.76610   0.00000  Uiso   1.00
C614   C     0.27009   0.20376   0.80017   0.00000  Uiso   1.00
C615   C     0.32522   0.20074   0.81761   0.00000  Uiso   1.00
C616   C     0.19310   0.14475   0.66947   0.00000  Uiso   1.00
C617   C     0.16795   0.17668   0.62230   0.00000  Uiso   1.00
C618   C     0.17636   0.16129   0.55840   0.00000  Uiso   1.00
C619   C     0.16740   0.10064   0.77090   0.00000  Uiso   1.00
C620   C     0.12063   0.09548   0.80898   0.00000  Uiso   1.00
C621   C     0.10740   0.04294   0.83045   0.00000  Uiso   1.00
H622   H     0.27432   0.03446   0.70014   0.00000  Uiso   1.00
H623   H     0.36119   0.07531   0.75496   0.00000  Uiso   1.00
H624   H     0.25906   0.04824   0.57713   0.00000  Uiso   1.00
H625   H     0.21175   0.96705   0.76378   0.00000  Uiso   1.00
H626   H     0.44322   0.14077   0.82282   0.00000  Uiso   1.00
H627   H     0.22785   0.08367   0.44784   0.00000  Uiso   1.00
H628   H     0.12809   0.91246   0.84143   0.00000  Uiso   1.00
H629   H     0.16416   0.18974   0.75477   0.00000  Uiso   1.00
H630   H     0.24499   0.23911   0.81260   0.00000  Uiso   1.00
H631   H     0.14286   0.21204   0.63476   0.00000  Uiso   1.00
H632   H     0.09555   0.13085   0.82141   0.00000  Uiso   1.00
H633   H     0.34891   0.27371   0.86960   0.00000  Uiso   1.00
H634   H     0.13354   0.21661   0.49462   0.00000  Uiso   1.00
H635   H     0.03378   0.04541   0.88821   0.00000  Uiso   1.00
O636   O     0.45123   0.23692   0.88325   0.00000  Uiso   1.00
O637   O     0.16867   0.16201   0.39129   0.00000  Uiso   1.00
O638   O     0.03779   0.93739   0.90767   0.00000  Uiso   1.00
N639   N     0.40993   0.16527   0.82591   0.00000  Uiso   1.00
N640   N     0.20858   0.11190   0.47532   0.00000  Uiso   1.00
N641   N     0.11530   0.95183   0.84328   0.00000  Uiso   1.00
N642   N     0.35918   0.23681   0.85108   0.00000  Uiso   1.00
N643   N     0.15783   0.18343   0.50049   0.00000  Uiso   1.00
N644   N     0.06456   0.02337   0.86845   0.00000  Uiso   1.00
C645   C     0.75092   0.92996   0.71266   0.00000  Uiso   1.00
C646   C     0.71899   0.88624   0.75003   0.00000  Uiso   1.00
C647   C     0.66388   0.88932   0.76742   0.00000  Uiso   1.00
C648   C     0.64230   0.84503   0.80150   0.00000  Uiso   1.00
C649   C     0.58779   0.78408   0.85705   0.00000  Uiso   1.00
C650   C     0.77448   0.90094   0.65340   0.00000  Uiso   1.00
C651   C     0.76602   0.91639   0.58955   0.00000  Uiso   1.00
C652   C     0.79116   0.88449   0.54229   0.00000  Uiso   1.00
C653   C     0.82283   0.84639   0.44783   0.00000  Uiso   1.00
C654   C     0.80018   0.94505   0.75482   0.00000  Uiso   1.00
C655   C     0.81334   0.99760   0.77623   0.00000  Uiso   1.00
C656   C     0.86013   0.00283   0.81435   0.00000  Uiso   1.00
C657   C     0.93169   0.03322   0.87735   0.00000  Uiso   1.00
C658   C     0.81060   0.84584   0.74225   0.00000  Uiso   1.00
C659   C     0.75141   0.84054   0.76610   0.00000  Uiso   1.00
C660   C     0.72991   0.79624   0.80017   0.00000  Uiso   1.00
C661   C     0.67478   0.79926   0.81761   0.00000  Uiso   1.00
C662   C     0.80690   0.85525   0.66947   0.00000  Uiso   1.00
C663   C     0.83205   0.82332   0.62230   0.00000  Uiso   1.00
C664   C     0.82364   0.83871   0.55840   0.00000  Uiso   1.00
C665   C     0.83260   0.89936   0.77090   0.00000  Uiso   1.00
C666   C     0.87937   0.90452   0.80898   0.00000  Uiso   1.00
C667   C     0.89260   0.95706   0.83045   0.00000  Uiso   1.00
H668   H     0.72568   0.96554   0.70014   0.00000  Uiso   1.00
H669   H     0.63881   0.92469   0.75496   0.00000  Uiso   1.00
H670   H     0.74094   0.95176   0.57713   0.00000  Uiso   1.00
H671   H     0.78825   0.03295   0.76378   0.00000  Uiso   1.00
H672   H     0.55678   0.85923   0.82282   0.00000  Uiso   1.00
H673   H     0.77215   0.91633   0.44784   0.00000  Uiso   1.00
H674   H     0.87191   0.08754   0.84143   0.00000  Uiso   1.00
H675   H     0.83584   0.81026   0.75477   0.00000  Uiso   1.00
H676   H     0.75501   0.76089   0.81260   0.00000  Uiso   1.00
H677   H     0.85714   0.78796   0.63476   0.00000  Uiso   1.00
H678   H     0.90445   0.86915   0.82141   0.00000  Uiso   1.00
H679   H     0.65109   0.72629   0.86960   0.00000  Uiso   1.00
H680   H     0.86646   0.78339   0.49462   0.00000  Uiso   1.00
H681   H     0.96622   0.95459   0.88821   0.00000  Uiso   1.00
O682   O     0.54877   0.76308   0.88325   0.00000  Uiso   1.00
O683   O     0.83133   0.83799   0.39129   0.00000  Uiso   1.00
O684   O     0.96221   0.06261   0.90767   0.00000  Uiso   1.00
N685   N     0.59007   0.83473   0.82591   0.00000  Uiso   1.00
N686   N     0.79142   0.88810   0.47532   0.00000  Uiso   1.00
N687   N     0.88470   0.04817   0.84328   0.00000  Uiso   1.00
N688   N     0.64082   0.76319   0.85108   0.00000  Uiso   1.00
N689   N     0.84217   0.81657   0.50049   0.00000  Uiso   1.00
N690   N     0.93544   0.97663   0.86845   0.00000  Uiso   1.00
C691   C     0.25092   0.42996   0.21266   0.00000  Uiso   1.00
C692   C     0.21899   0.38624   0.25003   0.00000  Uiso   1.00
C693   C     0.16388   0.38932   0.26742   0.00000  Uiso   1.00
C694   C     0.14230   0.34503   0.30150   0.00000  Uiso   1.00
C695   C     0.08779   0.28408   0.35705   0.00000  Uiso   1.00
C696   C     0.27448   0.40094   0.15340   0.00000  Uiso   1.00
C697   C     0.26602   0.41639   0.08955   0.00000  Uiso   1.00
C698   C     0.29116   0.38449   0.04229   0.00000  Uiso   1.00
C699   C     0.32283   0.34639   0.94783   0.00000  Uiso   1.00
C700   C     0.30018   0.44505   0.25482   0.00000  Uiso   1.00
C701   C     0.31334   0.49760   0.27623   0.00000  Uiso   1.00
C702   C     0.36013   0.50283   0.31435   0.00000  Uiso   1.00
C703   C     0.43169   0.53322   0.37735   0.00000  Uiso   1.00
C704   C     0.31060   0.34584   0.24225   0.00000  Uiso   1.00
C705   C     0.25141   0.34054   0.26610   0.00000  Uiso   1.00
C706   C     0.22991   0.29624   0.30017   0.00000  Uiso   1.00
C707   C     0.17478   0.29926   0.31761   0.00000  Uiso   1.00
C708   C     0.30690   0.35525   0.16947   0.00000  Uiso   1.00
C709   C     0.33205   0.32332   0.12230   0.00000  Uiso   1.00
C710   C     0.32364   0.33871   0.05840   0.00000  Uiso   1.00
C711   C     0.33260   0.39936   0.27090   0.00000  Uiso   1.00
C712   C     0.37937   0.40452   0.30898   0.00000  Uiso   1.00
C713   C     0.39260   0.45706   0.33045   0.00000  Uiso   1.00
H714   H     0.22568   0.46554   0.20014   0.00000  Uiso   1.00
H715   H     0.13881   0.42469   0.25496   0.00000  Uiso   1.00
H716   H     0.24094   0.45176   0.07713   0.00000  Uiso   1.00
H717   H     0.28825   0.53295   0.26378   0.00000  Uiso   1.00
H718   H     0.05678   0.35923   0.32282   0.00000  Uiso   1.00
H719   H     0.27215   0.41633   0.94784   0.00000  Uiso   1.00
H720   H     0.37191   0.58754   0.34143   0.00000  Uiso   1.00
H721   H     0.33584   0.31026   0.25477   0.00000  Uiso   1.00
H722   H     0.25501   0.26089   0.31260   0.00000  Uiso   1.00
H723   H     0.35714   0.28796   0.13476   0.00000  Uiso   1.00
H724   H     0.40445   0.36915   0.32141   0.00000  Uiso   1.00
H725   H     0.15109   0.22629   0.36960   0.00000  Uiso   1.00
H726   H     0.36646   0.28339   0.99462   0.00000  Uiso   1.00
H727   H     0.46622   0.45459   0.38821   0.00000  Uiso   1.00
O728   O     0.04877   0.26308   0.38325   0.00000  Uiso   1.00
O729   O     0.33133   0.33799   0.89129   0.00000  Uiso   1.00
O730   O     0.46221   0.56261   0.40767   0.00000  Uiso   1.00
N731   N     0.09007   0.33473   0.32591   0.00000  Uiso   1.00
N732   N     0.29142   0.38810   0.97532   0.00000  Uiso   1.00
N733   N     0.38470   0.54817   0.34328   0.00000  Uiso   1.00
N734   N     0.14082   0.26319   0.35108   0.00000  Uiso   1.00
N735   N     0.34217   0.31657   0.00049   0.00000  Uiso   1.00
N736   N     0.43544   0.47663   0.36845   0.00000  Uiso   1.00
