data_job_04214
_audit_creation_date              2018-12-19
_audit_creation_method            'Materials Studio'
_symmetry_space_group_name_H-M    'P1'
_symmetry_Int_Tables_number       1
_symmetry_cell_setting            triclinic
loop_
_symmetry_equiv_pos_as_xyz
  x,y,z
_cell_length_a                    28.4467
_cell_length_b                    28.4467
_cell_length_c                    11.1235
_cell_angle_alpha                 90.0000
_cell_angle_beta                  90.0000
_cell_angle_gamma                 90.0000
loop_
_atom_site_label
_atom_site_type_symbol
_atom_site_fract_x
_atom_site_fract_y
_atom_site_fract_z
_atom_site_U_iso_or_equiv
_atom_site_adp_type
_atom_site_occupancy
C1     C     0.63377   0.86490   0.49990   0.00000  Uiso   1.00
C2     C     0.58302   0.88028   0.51998   0.00000  Uiso   1.00
C3     C     0.55169   0.86012   0.60052   0.00000  Uiso   1.00
C4     C     0.50683   0.87926   0.60547   0.00000  Uiso   1.00
C5     C     0.43000   0.89735   0.64770   0.00000  Uiso   1.00
C6     C     0.63798   0.85386   0.36619   0.00000  Uiso   1.00
C7     C     0.65286   0.81149   0.31744   0.00000  Uiso   1.00
C8     C     0.65427   0.80839   0.19292   0.00000  Uiso   1.00
C9     C     0.66280   0.78546   0.99639   0.00000  Uiso   1.00
C10    C     0.66390   0.90843   0.52140   0.00000  Uiso   1.00
C11    C     0.70060   0.91195   0.60313   0.00000  Uiso   1.00
C12    C     0.72385   0.95480   0.60928   0.00000  Uiso   1.00
C13    C     0.77262   0.01661   0.65375   0.00000  Uiso   1.00
C14    C     0.60982   0.93474   0.36545   0.00000  Uiso   1.00
C15    C     0.57001   0.91821   0.44694   0.00000  Uiso   1.00
C16    C     0.52519   0.93739   0.45177   0.00000  Uiso   1.00
C17    C     0.49380   0.91727   0.53231   0.00000  Uiso   1.00
C18    C     0.62497   0.89179   0.29316   0.00000  Uiso   1.00
C19    C     0.62637   0.88875   0.16868   0.00000  Uiso   1.00
C20    C     0.64125   0.84639   0.11976   0.00000  Uiso   1.00
C21    C     0.65090   0.94637   0.44838   0.00000  Uiso   1.00
C22    C     0.67410   0.98922   0.45438   0.00000  Uiso   1.00
C23    C     0.71082   0.99280   0.53611   0.00000  Uiso   1.00
H24    H     0.64390   0.83537   0.55675   0.00000  Uiso   1.00
H25    H     0.56177   0.83076   0.65702   0.00000  Uiso   1.00
H26    H     0.66293   0.78214   0.37397   0.00000  Uiso   1.00
H27    H     0.71065   0.88259   0.65963   0.00000  Uiso   1.00
H28    H     0.46497   0.84237   0.73594   0.00000  Uiso   1.00
H29    H     0.67829   0.73985   0.13913   0.00000  Uiso   1.00
H30    H     0.77892   0.95166   0.74149   0.00000  Uiso   1.00
H31    H     0.59970   0.96428   0.30859   0.00000  Uiso   1.00
H32    H     0.51514   0.96675   0.39524   0.00000  Uiso   1.00
H33    H     0.61630   0.91812   0.11220   0.00000  Uiso   1.00
H34    H     0.66402   0.01857   0.39786   0.00000  Uiso   1.00
H35    H     0.42712   0.95274   0.52347   0.00000  Uiso   1.00
H36    H     0.64044   0.85021   0.92666   0.00000  Uiso   1.00
H37    H     0.74108   0.06203   0.52903   0.00000  Uiso   1.00
O38    O     0.39121   0.89684   0.69116   0.00000  Uiso   1.00
O39    O     0.67109   0.76234   0.90817   0.00000  Uiso   1.00
O40    O     0.80312   0.04023   0.69846   0.00000  Uiso   1.00
N41    N     0.46767   0.86802   0.67406   0.00000  Uiso   1.00
N42    N     0.66710   0.77216   0.11608   0.00000  Uiso   1.00
N43    N     0.76120   0.97018   0.67922   0.00000  Uiso   1.00
N44    N     0.44730   0.92740   0.55973   0.00000  Uiso   1.00
N45    N     0.64674   0.83155   0.00175   0.00000  Uiso   1.00
N46    N     0.74083   0.02957   0.56489   0.00000  Uiso   1.00
C47    C     0.13377   0.36490   0.99990   0.00000  Uiso   1.00
C48    C     0.08302   0.38028   0.01998   0.00000  Uiso   1.00
C49    C     0.05169   0.36012   0.10052   0.00000  Uiso   1.00
C50    C     0.00683   0.37926   0.10547   0.00000  Uiso   1.00
C51    C     0.93000   0.39735   0.14770   0.00000  Uiso   1.00
C52    C     0.13798   0.35386   0.86619   0.00000  Uiso   1.00
C53    C     0.15286   0.31149   0.81744   0.00000  Uiso   1.00
C54    C     0.15427   0.30839   0.69292   0.00000  Uiso   1.00
C55    C     0.16280   0.28546   0.49639   0.00000  Uiso   1.00
C56    C     0.16390   0.40843   0.02140   0.00000  Uiso   1.00
C57    C     0.20060   0.41195   0.10313   0.00000  Uiso   1.00
C58    C     0.22385   0.45480   0.10928   0.00000  Uiso   1.00
C59    C     0.27262   0.51661   0.15375   0.00000  Uiso   1.00
C60    C     0.10982   0.43474   0.86545   0.00000  Uiso   1.00
C61    C     0.07001   0.41821   0.94694   0.00000  Uiso   1.00
C62    C     0.02519   0.43739   0.95177   0.00000  Uiso   1.00
C63    C     0.99380   0.41727   0.03231   0.00000  Uiso   1.00
C64    C     0.12497   0.39179   0.79316   0.00000  Uiso   1.00
C65    C     0.12637   0.38875   0.66868   0.00000  Uiso   1.00
C66    C     0.14125   0.34639   0.61976   0.00000  Uiso   1.00
C67    C     0.15090   0.44637   0.94838   0.00000  Uiso   1.00
C68    C     0.17410   0.48922   0.95438   0.00000  Uiso   1.00
C69    C     0.21082   0.49280   0.03611   0.00000  Uiso   1.00
H70    H     0.14390   0.33537   0.05675   0.00000  Uiso   1.00
H71    H     0.06177   0.33076   0.15702   0.00000  Uiso   1.00
H72    H     0.16293   0.28214   0.87397   0.00000  Uiso   1.00
H73    H     0.21065   0.38259   0.15963   0.00000  Uiso   1.00
H74    H     0.96497   0.34237   0.23594   0.00000  Uiso   1.00
H75    H     0.17829   0.23985   0.63913   0.00000  Uiso   1.00
H76    H     0.27892   0.45166   0.24149   0.00000  Uiso   1.00
H77    H     0.09970   0.46428   0.80859   0.00000  Uiso   1.00
H78    H     0.01514   0.46675   0.89524   0.00000  Uiso   1.00
H79    H     0.11630   0.41812   0.61220   0.00000  Uiso   1.00
H80    H     0.16402   0.51857   0.89786   0.00000  Uiso   1.00
H81    H     0.92712   0.45274   0.02347   0.00000  Uiso   1.00
H82    H     0.14044   0.35021   0.42666   0.00000  Uiso   1.00
H83    H     0.24108   0.56203   0.02903   0.00000  Uiso   1.00
O84    O     0.89121   0.39684   0.19116   0.00000  Uiso   1.00
O85    O     0.17109   0.26234   0.40817   0.00000  Uiso   1.00
O86    O     0.30312   0.54023   0.19846   0.00000  Uiso   1.00
N87    N     0.96767   0.36802   0.17406   0.00000  Uiso   1.00
N88    N     0.16710   0.27216   0.61608   0.00000  Uiso   1.00
N89    N     0.26120   0.47018   0.17922   0.00000  Uiso   1.00
N90    N     0.94730   0.42740   0.05973   0.00000  Uiso   1.00
N91    N     0.14674   0.33155   0.50175   0.00000  Uiso   1.00
N92    N     0.24083   0.52957   0.06489   0.00000  Uiso   1.00
C93    C     0.86623   0.63510   0.99990   0.00000  Uiso   1.00
C94    C     0.91698   0.61972   0.01998   0.00000  Uiso   1.00
C95    C     0.94831   0.63988   0.10052   0.00000  Uiso   1.00
C96    C     0.99317   0.62074   0.10547   0.00000  Uiso   1.00
C97    C     0.07000   0.60265   0.14770   0.00000  Uiso   1.00
C98    C     0.86202   0.64614   0.86619   0.00000  Uiso   1.00
C99    C     0.84714   0.68851   0.81744   0.00000  Uiso   1.00
C100   C     0.84573   0.69161   0.69292   0.00000  Uiso   1.00
C101   C     0.83720   0.71454   0.49639   0.00000  Uiso   1.00
C102   C     0.83610   0.59157   0.02140   0.00000  Uiso   1.00
C103   C     0.79940   0.58805   0.10313   0.00000  Uiso   1.00
C104   C     0.77615   0.54520   0.10928   0.00000  Uiso   1.00
C105   C     0.72738   0.48339   0.15375   0.00000  Uiso   1.00
C106   C     0.89018   0.56526   0.86545   0.00000  Uiso   1.00
C107   C     0.92999   0.58179   0.94694   0.00000  Uiso   1.00
C108   C     0.97481   0.56261   0.95177   0.00000  Uiso   1.00
C109   C     0.00620   0.58273   0.03231   0.00000  Uiso   1.00
C110   C     0.87503   0.60821   0.79316   0.00000  Uiso   1.00
C111   C     0.87363   0.61125   0.66868   0.00000  Uiso   1.00
C112   C     0.85875   0.65361   0.61976   0.00000  Uiso   1.00
C113   C     0.84910   0.55363   0.94838   0.00000  Uiso   1.00
C114   C     0.82590   0.51078   0.95438   0.00000  Uiso   1.00
C115   C     0.78918   0.50720   0.03611   0.00000  Uiso   1.00
H116   H     0.85610   0.66463   0.05675   0.00000  Uiso   1.00
H117   H     0.93823   0.66924   0.15702   0.00000  Uiso   1.00
H118   H     0.83707   0.71786   0.87397   0.00000  Uiso   1.00
H119   H     0.78935   0.61741   0.15963   0.00000  Uiso   1.00
H120   H     0.03503   0.65763   0.23594   0.00000  Uiso   1.00
H121   H     0.82171   0.76015   0.63913   0.00000  Uiso   1.00
H122   H     0.72108   0.54834   0.24149   0.00000  Uiso   1.00
H123   H     0.90030   0.53572   0.80859   0.00000  Uiso   1.00
H124   H     0.98486   0.53325   0.89524   0.00000  Uiso   1.00
H125   H     0.88370   0.58188   0.61220   0.00000  Uiso   1.00
H126   H     0.83598   0.48143   0.89786   0.00000  Uiso   1.00
H127   H     0.07288   0.54726   0.02347   0.00000  Uiso   1.00
H128   H     0.85956   0.64979   0.42666   0.00000  Uiso   1.00
H129   H     0.75892   0.43797   0.02903   0.00000  Uiso   1.00
O130   O     0.10879   0.60316   0.19116   0.00000  Uiso   1.00
O131   O     0.82891   0.73766   0.40817   0.00000  Uiso   1.00
O132   O     0.69688   0.45977   0.19846   0.00000  Uiso   1.00
N133   N     0.03233   0.63198   0.17406   0.00000  Uiso   1.00
N134   N     0.83290   0.72784   0.61608   0.00000  Uiso   1.00
N135   N     0.73880   0.52982   0.17922   0.00000  Uiso   1.00
N136   N     0.05270   0.57260   0.05973   0.00000  Uiso   1.00
N137   N     0.85326   0.66845   0.50175   0.00000  Uiso   1.00
N138   N     0.75917   0.47043   0.06489   0.00000  Uiso   1.00
C139   C     0.36623   0.13510   0.49990   0.00000  Uiso   1.00
C140   C     0.41698   0.11972   0.51998   0.00000  Uiso   1.00
C141   C     0.44831   0.13988   0.60052   0.00000  Uiso   1.00
C142   C     0.49317   0.12074   0.60547   0.00000  Uiso   1.00
C143   C     0.57000   0.10265   0.64770   0.00000  Uiso   1.00
C144   C     0.36202   0.14614   0.36619   0.00000  Uiso   1.00
C145   C     0.34714   0.18851   0.31744   0.00000  Uiso   1.00
C146   C     0.34573   0.19161   0.19292   0.00000  Uiso   1.00
C147   C     0.33720   0.21454   0.99639   0.00000  Uiso   1.00
C148   C     0.33610   0.09157   0.52140   0.00000  Uiso   1.00
C149   C     0.29940   0.08805   0.60313   0.00000  Uiso   1.00
C150   C     0.27615   0.04520   0.60928   0.00000  Uiso   1.00
C151   C     0.22738   0.98339   0.65375   0.00000  Uiso   1.00
C152   C     0.39018   0.06526   0.36545   0.00000  Uiso   1.00
C153   C     0.42999   0.08179   0.44694   0.00000  Uiso   1.00
C154   C     0.47481   0.06261   0.45177   0.00000  Uiso   1.00
C155   C     0.50620   0.08273   0.53231   0.00000  Uiso   1.00
C156   C     0.37503   0.10821   0.29316   0.00000  Uiso   1.00
C157   C     0.37363   0.11125   0.16868   0.00000  Uiso   1.00
C158   C     0.35875   0.15361   0.11976   0.00000  Uiso   1.00
C159   C     0.34910   0.05363   0.44838   0.00000  Uiso   1.00
C160   C     0.32590   0.01078   0.45438   0.00000  Uiso   1.00
C161   C     0.28918   0.00720   0.53611   0.00000  Uiso   1.00
H162   H     0.35610   0.16463   0.55675   0.00000  Uiso   1.00
H163   H     0.43823   0.16924   0.65702   0.00000  Uiso   1.00
H164   H     0.33707   0.21786   0.37397   0.00000  Uiso   1.00
H165   H     0.28935   0.11741   0.65963   0.00000  Uiso   1.00
H166   H     0.53503   0.15763   0.73594   0.00000  Uiso   1.00
H167   H     0.32171   0.26015   0.13913   0.00000  Uiso   1.00
H168   H     0.22108   0.04834   0.74149   0.00000  Uiso   1.00
H169   H     0.40030   0.03572   0.30859   0.00000  Uiso   1.00
H170   H     0.48486   0.03325   0.39524   0.00000  Uiso   1.00
H171   H     0.38370   0.08188   0.11220   0.00000  Uiso   1.00
H172   H     0.33598   0.98143   0.39786   0.00000  Uiso   1.00
H173   H     0.57288   0.04726   0.52347   0.00000  Uiso   1.00
H174   H     0.35956   0.14979   0.92666   0.00000  Uiso   1.00
H175   H     0.25892   0.93797   0.52903   0.00000  Uiso   1.00
O176   O     0.60879   0.10316   0.69116   0.00000  Uiso   1.00
O177   O     0.32891   0.23766   0.90817   0.00000  Uiso   1.00
O178   O     0.19688   0.95977   0.69846   0.00000  Uiso   1.00
N179   N     0.53233   0.13198   0.67406   0.00000  Uiso   1.00
N180   N     0.33290   0.22784   0.11608   0.00000  Uiso   1.00
N181   N     0.23880   0.02982   0.67922   0.00000  Uiso   1.00
N182   N     0.55270   0.07260   0.55973   0.00000  Uiso   1.00
N183   N     0.35326   0.16845   0.00175   0.00000  Uiso   1.00
N184   N     0.25917   0.97043   0.56489   0.00000  Uiso   1.00
C185   C     0.13510   0.13377   0.74990   0.00000  Uiso   1.00
C186   C     0.11972   0.08302   0.76998   0.00000  Uiso   1.00
C187   C     0.13988   0.05169   0.85052   0.00000  Uiso   1.00
C188   C     0.12074   0.00683   0.85547   0.00000  Uiso   1.00
C189   C     0.10265   0.93000   0.89770   0.00000  Uiso   1.00
C190   C     0.14614   0.13798   0.61619   0.00000  Uiso   1.00
C191   C     0.18851   0.15286   0.56744   0.00000  Uiso   1.00
C192   C     0.19161   0.15427   0.44292   0.00000  Uiso   1.00
C193   C     0.21454   0.16280   0.24639   0.00000  Uiso   1.00
C194   C     0.09157   0.16390   0.77140   0.00000  Uiso   1.00
C195   C     0.08805   0.20060   0.85313   0.00000  Uiso   1.00
C196   C     0.04520   0.22385   0.85928   0.00000  Uiso   1.00
C197   C     0.98339   0.27262   0.90375   0.00000  Uiso   1.00
C198   C     0.06526   0.10982   0.61545   0.00000  Uiso   1.00
C199   C     0.08179   0.07001   0.69694   0.00000  Uiso   1.00
C200   C     0.06261   0.02519   0.70177   0.00000  Uiso   1.00
C201   C     0.08273   0.99380   0.78231   0.00000  Uiso   1.00
C202   C     0.10821   0.12497   0.54316   0.00000  Uiso   1.00
C203   C     0.11125   0.12637   0.41868   0.00000  Uiso   1.00
C204   C     0.15361   0.14125   0.36976   0.00000  Uiso   1.00
C205   C     0.05363   0.15090   0.69838   0.00000  Uiso   1.00
C206   C     0.01078   0.17410   0.70438   0.00000  Uiso   1.00
C207   C     0.00720   0.21082   0.78611   0.00000  Uiso   1.00
H208   H     0.16463   0.14390   0.80675   0.00000  Uiso   1.00
H209   H     0.16924   0.06177   0.90702   0.00000  Uiso   1.00
H210   H     0.21786   0.16293   0.62397   0.00000  Uiso   1.00
H211   H     0.11741   0.21065   0.90963   0.00000  Uiso   1.00
H212   H     0.15763   0.96497   0.98594   0.00000  Uiso   1.00
H213   H     0.26015   0.17829   0.38913   0.00000  Uiso   1.00
H214   H     0.04834   0.27892   0.99149   0.00000  Uiso   1.00
H215   H     0.03572   0.09970   0.55859   0.00000  Uiso   1.00
H216   H     0.03325   0.01514   0.64524   0.00000  Uiso   1.00
H217   H     0.08188   0.11630   0.36220   0.00000  Uiso   1.00
H218   H     0.98143   0.16402   0.64786   0.00000  Uiso   1.00
H219   H     0.04726   0.92712   0.77347   0.00000  Uiso   1.00
H220   H     0.14979   0.14044   0.17666   0.00000  Uiso   1.00
H221   H     0.93797   0.24108   0.77903   0.00000  Uiso   1.00
O222   O     0.10316   0.89121   0.94116   0.00000  Uiso   1.00
O223   O     0.23766   0.17109   0.15817   0.00000  Uiso   1.00
O224   O     0.95977   0.30312   0.94846   0.00000  Uiso   1.00
N225   N     0.13198   0.96767   0.92406   0.00000  Uiso   1.00
N226   N     0.22784   0.16710   0.36608   0.00000  Uiso   1.00
N227   N     0.02982   0.26120   0.92922   0.00000  Uiso   1.00
N228   N     0.07260   0.94730   0.80973   0.00000  Uiso   1.00
N229   N     0.16845   0.14674   0.25175   0.00000  Uiso   1.00
N230   N     0.97043   0.24083   0.81489   0.00000  Uiso   1.00
C231   C     0.63510   0.63377   0.24990   0.00000  Uiso   1.00
C232   C     0.61972   0.58302   0.26998   0.00000  Uiso   1.00
C233   C     0.63988   0.55169   0.35052   0.00000  Uiso   1.00
C234   C     0.62074   0.50683   0.35547   0.00000  Uiso   1.00
C235   C     0.60265   0.43000   0.39770   0.00000  Uiso   1.00
C236   C     0.64614   0.63798   0.11619   0.00000  Uiso   1.00
C237   C     0.68851   0.65286   0.06744   0.00000  Uiso   1.00
C238   C     0.69161   0.65427   0.94292   0.00000  Uiso   1.00
C239   C     0.71454   0.66280   0.74639   0.00000  Uiso   1.00
C240   C     0.59157   0.66390   0.27140   0.00000  Uiso   1.00
C241   C     0.58805   0.70060   0.35313   0.00000  Uiso   1.00
C242   C     0.54520   0.72385   0.35928   0.00000  Uiso   1.00
C243   C     0.48339   0.77262   0.40375   0.00000  Uiso   1.00
C244   C     0.56526   0.60982   0.11545   0.00000  Uiso   1.00
C245   C     0.58179   0.57001   0.19694   0.00000  Uiso   1.00
C246   C     0.56261   0.52519   0.20177   0.00000  Uiso   1.00
C247   C     0.58273   0.49380   0.28231   0.00000  Uiso   1.00
C248   C     0.60821   0.62497   0.04316   0.00000  Uiso   1.00
C249   C     0.61125   0.62637   0.91868   0.00000  Uiso   1.00
C250   C     0.65361   0.64125   0.86976   0.00000  Uiso   1.00
C251   C     0.55363   0.65090   0.19838   0.00000  Uiso   1.00
C252   C     0.51078   0.67410   0.20438   0.00000  Uiso   1.00
C253   C     0.50720   0.71082   0.28611   0.00000  Uiso   1.00
H254   H     0.66463   0.64390   0.30675   0.00000  Uiso   1.00
H255   H     0.66924   0.56177   0.40702   0.00000  Uiso   1.00
H256   H     0.71786   0.66293   0.12397   0.00000  Uiso   1.00
H257   H     0.61741   0.71065   0.40963   0.00000  Uiso   1.00
H258   H     0.65763   0.46497   0.48594   0.00000  Uiso   1.00
H259   H     0.76015   0.67829   0.88913   0.00000  Uiso   1.00
H260   H     0.54834   0.77892   0.49149   0.00000  Uiso   1.00
H261   H     0.53572   0.59970   0.05859   0.00000  Uiso   1.00
H262   H     0.53325   0.51514   0.14524   0.00000  Uiso   1.00
H263   H     0.58188   0.61630   0.86220   0.00000  Uiso   1.00
H264   H     0.48143   0.66402   0.14786   0.00000  Uiso   1.00
H265   H     0.54726   0.42712   0.27347   0.00000  Uiso   1.00
H266   H     0.64979   0.64044   0.67666   0.00000  Uiso   1.00
H267   H     0.43797   0.74108   0.27903   0.00000  Uiso   1.00
O268   O     0.60316   0.39121   0.44116   0.00000  Uiso   1.00
O269   O     0.73766   0.67109   0.65817   0.00000  Uiso   1.00
O270   O     0.45977   0.80312   0.44846   0.00000  Uiso   1.00
N271   N     0.63198   0.46767   0.42406   0.00000  Uiso   1.00
N272   N     0.72784   0.66710   0.86608   0.00000  Uiso   1.00
N273   N     0.52982   0.76120   0.42922   0.00000  Uiso   1.00
N274   N     0.57260   0.44730   0.30973   0.00000  Uiso   1.00
N275   N     0.66845   0.64674   0.75175   0.00000  Uiso   1.00
N276   N     0.47043   0.74083   0.31489   0.00000  Uiso   1.00
C277   C     0.36490   0.36623   0.24990   0.00000  Uiso   1.00
C278   C     0.38028   0.41698   0.26998   0.00000  Uiso   1.00
C279   C     0.36012   0.44831   0.35052   0.00000  Uiso   1.00
C280   C     0.37926   0.49317   0.35547   0.00000  Uiso   1.00
C281   C     0.39735   0.57000   0.39770   0.00000  Uiso   1.00
C282   C     0.35386   0.36202   0.11619   0.00000  Uiso   1.00
C283   C     0.31149   0.34714   0.06744   0.00000  Uiso   1.00
C284   C     0.30839   0.34573   0.94292   0.00000  Uiso   1.00
C285   C     0.28546   0.33720   0.74639   0.00000  Uiso   1.00
C286   C     0.40843   0.33610   0.27140   0.00000  Uiso   1.00
C287   C     0.41195   0.29940   0.35313   0.00000  Uiso   1.00
C288   C     0.45480   0.27615   0.35928   0.00000  Uiso   1.00
C289   C     0.51661   0.22738   0.40375   0.00000  Uiso   1.00
C290   C     0.43474   0.39018   0.11545   0.00000  Uiso   1.00
C291   C     0.41821   0.42999   0.19694   0.00000  Uiso   1.00
C292   C     0.43739   0.47481   0.20177   0.00000  Uiso   1.00
C293   C     0.41727   0.50620   0.28231   0.00000  Uiso   1.00
C294   C     0.39179   0.37503   0.04316   0.00000  Uiso   1.00
C295   C     0.38875   0.37363   0.91868   0.00000  Uiso   1.00
C296   C     0.34639   0.35875   0.86976   0.00000  Uiso   1.00
C297   C     0.44637   0.34910   0.19838   0.00000  Uiso   1.00
C298   C     0.48922   0.32590   0.20438   0.00000  Uiso   1.00
C299   C     0.49280   0.28918   0.28611   0.00000  Uiso   1.00
H300   H     0.33537   0.35610   0.30675   0.00000  Uiso   1.00
H301   H     0.33076   0.43823   0.40702   0.00000  Uiso   1.00
H302   H     0.28214   0.33707   0.12397   0.00000  Uiso   1.00
H303   H     0.38259   0.28935   0.40963   0.00000  Uiso   1.00
H304   H     0.34237   0.53503   0.48594   0.00000  Uiso   1.00
H305   H     0.23985   0.32171   0.88913   0.00000  Uiso   1.00
H306   H     0.45166   0.22108   0.49149   0.00000  Uiso   1.00
H307   H     0.46428   0.40030   0.05859   0.00000  Uiso   1.00
H308   H     0.46675   0.48486   0.14524   0.00000  Uiso   1.00
H309   H     0.41812   0.38370   0.86220   0.00000  Uiso   1.00
H310   H     0.51857   0.33598   0.14786   0.00000  Uiso   1.00
H311   H     0.45274   0.57288   0.27347   0.00000  Uiso   1.00
H312   H     0.35021   0.35956   0.67666   0.00000  Uiso   1.00
H313   H     0.56203   0.25892   0.27903   0.00000  Uiso   1.00
O314   O     0.39684   0.60879   0.44116   0.00000  Uiso   1.00
O315   O     0.26234   0.32891   0.65817   0.00000  Uiso   1.00
O316   O     0.54023   0.19688   0.44846   0.00000  Uiso   1.00
N317   N     0.36802   0.53233   0.42406   0.00000  Uiso   1.00
N318   N     0.27216   0.33290   0.86608   0.00000  Uiso   1.00
N319   N     0.47018   0.23880   0.42922   0.00000  Uiso   1.00
N320   N     0.42740   0.55270   0.30973   0.00000  Uiso   1.00
N321   N     0.33155   0.35326   0.75175   0.00000  Uiso   1.00
N322   N     0.52957   0.25917   0.31489   0.00000  Uiso   1.00
C323   C     0.86490   0.86623   0.74990   0.00000  Uiso   1.00
C324   C     0.88028   0.91698   0.76998   0.00000  Uiso   1.00
C325   C     0.86012   0.94831   0.85052   0.00000  Uiso   1.00
C326   C     0.87926   0.99317   0.85547   0.00000  Uiso   1.00
C327   C     0.89735   0.07000   0.89770   0.00000  Uiso   1.00
C328   C     0.85386   0.86202   0.61619   0.00000  Uiso   1.00
C329   C     0.81149   0.84714   0.56744   0.00000  Uiso   1.00
C330   C     0.80839   0.84573   0.44292   0.00000  Uiso   1.00
C331   C     0.78546   0.83720   0.24639   0.00000  Uiso   1.00
C332   C     0.90843   0.83610   0.77140   0.00000  Uiso   1.00
C333   C     0.91195   0.79940   0.85313   0.00000  Uiso   1.00
C334   C     0.95480   0.77615   0.85928   0.00000  Uiso   1.00
C335   C     0.01661   0.72738   0.90375   0.00000  Uiso   1.00
C336   C     0.93474   0.89018   0.61545   0.00000  Uiso   1.00
C337   C     0.91821   0.92999   0.69694   0.00000  Uiso   1.00
C338   C     0.93739   0.97481   0.70177   0.00000  Uiso   1.00
C339   C     0.91727   0.00620   0.78231   0.00000  Uiso   1.00
C340   C     0.89179   0.87503   0.54316   0.00000  Uiso   1.00
C341   C     0.88875   0.87363   0.41868   0.00000  Uiso   1.00
C342   C     0.84639   0.85875   0.36976   0.00000  Uiso   1.00
C343   C     0.94637   0.84910   0.69838   0.00000  Uiso   1.00
C344   C     0.98922   0.82590   0.70438   0.00000  Uiso   1.00
C345   C     0.99280   0.78918   0.78611   0.00000  Uiso   1.00
H346   H     0.83537   0.85610   0.80675   0.00000  Uiso   1.00
H347   H     0.83076   0.93823   0.90702   0.00000  Uiso   1.00
H348   H     0.78214   0.83707   0.62397   0.00000  Uiso   1.00
H349   H     0.88259   0.78935   0.90963   0.00000  Uiso   1.00
H350   H     0.84237   0.03503   0.98594   0.00000  Uiso   1.00
H351   H     0.73985   0.82171   0.38913   0.00000  Uiso   1.00
H352   H     0.95166   0.72108   0.99149   0.00000  Uiso   1.00
H353   H     0.96428   0.90030   0.55859   0.00000  Uiso   1.00
H354   H     0.96675   0.98486   0.64524   0.00000  Uiso   1.00
H355   H     0.91812   0.88370   0.36220   0.00000  Uiso   1.00
H356   H     0.01857   0.83598   0.64786   0.00000  Uiso   1.00
H357   H     0.95274   0.07288   0.77347   0.00000  Uiso   1.00
H358   H     0.85021   0.85956   0.17666   0.00000  Uiso   1.00
H359   H     0.06203   0.75892   0.77903   0.00000  Uiso   1.00
O360   O     0.89684   0.10879   0.94116   0.00000  Uiso   1.00
O361   O     0.76234   0.82891   0.15817   0.00000  Uiso   1.00
O362   O     0.04023   0.69688   0.94846   0.00000  Uiso   1.00
N363   N     0.86802   0.03233   0.92406   0.00000  Uiso   1.00
N364   N     0.77216   0.83290   0.36608   0.00000  Uiso   1.00
N365   N     0.97018   0.73880   0.92922   0.00000  Uiso   1.00
N366   N     0.92740   0.05270   0.80973   0.00000  Uiso   1.00
N367   N     0.83155   0.85326   0.25175   0.00000  Uiso   1.00
N368   N     0.02957   0.75917   0.81489   0.00000  Uiso   1.00
C369   C     0.36623   0.63510   0.75010   0.00000  Uiso   1.00
C370   C     0.41698   0.61972   0.73002   0.00000  Uiso   1.00
C371   C     0.44831   0.63988   0.64948   0.00000  Uiso   1.00
C372   C     0.49317   0.62074   0.64453   0.00000  Uiso   1.00
C373   C     0.57000   0.60265   0.60230   0.00000  Uiso   1.00
C374   C     0.36202   0.64614   0.88381   0.00000  Uiso   1.00
C375   C     0.34714   0.68851   0.93256   0.00000  Uiso   1.00
C376   C     0.34573   0.69161   0.05708   0.00000  Uiso   1.00
C377   C     0.33720   0.71454   0.25361   0.00000  Uiso   1.00
C378   C     0.33610   0.59157   0.72860   0.00000  Uiso   1.00
C379   C     0.29940   0.58805   0.64687   0.00000  Uiso   1.00
C380   C     0.27615   0.54520   0.64072   0.00000  Uiso   1.00
C381   C     0.22738   0.48339   0.59625   0.00000  Uiso   1.00
C382   C     0.39018   0.56526   0.88455   0.00000  Uiso   1.00
C383   C     0.42999   0.58179   0.80306   0.00000  Uiso   1.00
C384   C     0.47481   0.56261   0.79823   0.00000  Uiso   1.00
C385   C     0.50620   0.58273   0.71769   0.00000  Uiso   1.00
C386   C     0.37503   0.60821   0.95684   0.00000  Uiso   1.00
C387   C     0.37363   0.61125   0.08132   0.00000  Uiso   1.00
C388   C     0.35875   0.65361   0.13024   0.00000  Uiso   1.00
C389   C     0.34910   0.55363   0.80162   0.00000  Uiso   1.00
C390   C     0.32590   0.51078   0.79562   0.00000  Uiso   1.00
C391   C     0.28918   0.50720   0.71389   0.00000  Uiso   1.00
H392   H     0.35610   0.66463   0.69325   0.00000  Uiso   1.00
H393   H     0.43823   0.66924   0.59298   0.00000  Uiso   1.00
H394   H     0.33707   0.71786   0.87603   0.00000  Uiso   1.00
H395   H     0.28935   0.61741   0.59037   0.00000  Uiso   1.00
H396   H     0.53503   0.65763   0.51406   0.00000  Uiso   1.00
H397   H     0.32171   0.76015   0.11087   0.00000  Uiso   1.00
H398   H     0.22108   0.54834   0.50851   0.00000  Uiso   1.00
H399   H     0.40030   0.53572   0.94141   0.00000  Uiso   1.00
H400   H     0.48486   0.53325   0.85476   0.00000  Uiso   1.00
H401   H     0.38370   0.58188   0.13780   0.00000  Uiso   1.00
H402   H     0.33598   0.48143   0.85214   0.00000  Uiso   1.00
H403   H     0.57288   0.54726   0.72653   0.00000  Uiso   1.00
H404   H     0.35956   0.64979   0.32334   0.00000  Uiso   1.00
H405   H     0.25892   0.43797   0.72097   0.00000  Uiso   1.00
O406   O     0.60879   0.60316   0.55884   0.00000  Uiso   1.00
O407   O     0.32891   0.73766   0.34183   0.00000  Uiso   1.00
O408   O     0.19688   0.45977   0.55154   0.00000  Uiso   1.00
N409   N     0.53233   0.63198   0.57594   0.00000  Uiso   1.00
N410   N     0.33290   0.72784   0.13392   0.00000  Uiso   1.00
N411   N     0.23880   0.52982   0.57078   0.00000  Uiso   1.00
N412   N     0.55270   0.57260   0.69027   0.00000  Uiso   1.00
N413   N     0.35326   0.66845   0.24825   0.00000  Uiso   1.00
N414   N     0.25917   0.47043   0.68511   0.00000  Uiso   1.00
C415   C     0.86623   0.13510   0.25010   0.00000  Uiso   1.00
C416   C     0.91698   0.11972   0.23002   0.00000  Uiso   1.00
C417   C     0.94831   0.13988   0.14948   0.00000  Uiso   1.00
C418   C     0.99317   0.12074   0.14453   0.00000  Uiso   1.00
C419   C     0.07000   0.10265   0.10230   0.00000  Uiso   1.00
C420   C     0.86202   0.14614   0.38381   0.00000  Uiso   1.00
C421   C     0.84714   0.18851   0.43256   0.00000  Uiso   1.00
C422   C     0.84573   0.19161   0.55708   0.00000  Uiso   1.00
C423   C     0.83720   0.21454   0.75361   0.00000  Uiso   1.00
C424   C     0.83610   0.09157   0.22860   0.00000  Uiso   1.00
C425   C     0.79940   0.08805   0.14687   0.00000  Uiso   1.00
C426   C     0.77615   0.04520   0.14072   0.00000  Uiso   1.00
C427   C     0.72738   0.98339   0.09625   0.00000  Uiso   1.00
C428   C     0.89018   0.06526   0.38455   0.00000  Uiso   1.00
C429   C     0.92999   0.08179   0.30306   0.00000  Uiso   1.00
C430   C     0.97481   0.06261   0.29823   0.00000  Uiso   1.00
C431   C     0.00620   0.08273   0.21769   0.00000  Uiso   1.00
C432   C     0.87503   0.10821   0.45684   0.00000  Uiso   1.00
C433   C     0.87363   0.11125   0.58132   0.00000  Uiso   1.00
C434   C     0.85875   0.15361   0.63024   0.00000  Uiso   1.00
C435   C     0.84910   0.05363   0.30162   0.00000  Uiso   1.00
C436   C     0.82590   0.01078   0.29562   0.00000  Uiso   1.00
C437   C     0.78918   0.00720   0.21389   0.00000  Uiso   1.00
H438   H     0.85610   0.16463   0.19325   0.00000  Uiso   1.00
H439   H     0.93823   0.16924   0.09298   0.00000  Uiso   1.00
H440   H     0.83707   0.21786   0.37603   0.00000  Uiso   1.00
H441   H     0.78935   0.11741   0.09037   0.00000  Uiso   1.00
H442   H     0.03503   0.15763   0.01406   0.00000  Uiso   1.00
H443   H     0.82171   0.26015   0.61087   0.00000  Uiso   1.00
H444   H     0.72108   0.04834   0.00851   0.00000  Uiso   1.00
H445   H     0.90030   0.03572   0.44141   0.00000  Uiso   1.00
H446   H     0.98486   0.03325   0.35476   0.00000  Uiso   1.00
H447   H     0.88370   0.08188   0.63780   0.00000  Uiso   1.00
H448   H     0.83598   0.98143   0.35214   0.00000  Uiso   1.00
H449   H     0.07288   0.04726   0.22653   0.00000  Uiso   1.00
H450   H     0.85956   0.14979   0.82334   0.00000  Uiso   1.00
H451   H     0.75892   0.93797   0.22097   0.00000  Uiso   1.00
O452   O     0.10879   0.10316   0.05884   0.00000  Uiso   1.00
O453   O     0.82891   0.23766   0.84183   0.00000  Uiso   1.00
O454   O     0.69688   0.95977   0.05154   0.00000  Uiso   1.00
N455   N     0.03233   0.13198   0.07594   0.00000  Uiso   1.00
N456   N     0.83290   0.22784   0.63392   0.00000  Uiso   1.00
N457   N     0.73880   0.02982   0.07078   0.00000  Uiso   1.00
N458   N     0.05270   0.07260   0.19027   0.00000  Uiso   1.00
N459   N     0.85326   0.16845   0.74825   0.00000  Uiso   1.00
N460   N     0.75917   0.97043   0.18511   0.00000  Uiso   1.00
C461   C     0.13377   0.86490   0.25010   0.00000  Uiso   1.00
C462   C     0.08302   0.88028   0.23002   0.00000  Uiso   1.00
C463   C     0.05169   0.86012   0.14948   0.00000  Uiso   1.00
C464   C     0.00683   0.87926   0.14453   0.00000  Uiso   1.00
C465   C     0.93000   0.89735   0.10230   0.00000  Uiso   1.00
C466   C     0.13798   0.85386   0.38381   0.00000  Uiso   1.00
C467   C     0.15286   0.81149   0.43256   0.00000  Uiso   1.00
C468   C     0.15427   0.80839   0.55708   0.00000  Uiso   1.00
C469   C     0.16280   0.78546   0.75361   0.00000  Uiso   1.00
C470   C     0.16390   0.90843   0.22860   0.00000  Uiso   1.00
C471   C     0.20060   0.91195   0.14687   0.00000  Uiso   1.00
C472   C     0.22385   0.95480   0.14072   0.00000  Uiso   1.00
C473   C     0.27262   0.01661   0.09625   0.00000  Uiso   1.00
C474   C     0.10982   0.93474   0.38455   0.00000  Uiso   1.00
C475   C     0.07001   0.91821   0.30306   0.00000  Uiso   1.00
C476   C     0.02519   0.93739   0.29823   0.00000  Uiso   1.00
C477   C     0.99380   0.91727   0.21769   0.00000  Uiso   1.00
C478   C     0.12497   0.89179   0.45684   0.00000  Uiso   1.00
C479   C     0.12637   0.88875   0.58132   0.00000  Uiso   1.00
C480   C     0.14125   0.84639   0.63024   0.00000  Uiso   1.00
C481   C     0.15090   0.94637   0.30162   0.00000  Uiso   1.00
C482   C     0.17410   0.98922   0.29562   0.00000  Uiso   1.00
C483   C     0.21082   0.99280   0.21389   0.00000  Uiso   1.00
H484   H     0.14390   0.83537   0.19325   0.00000  Uiso   1.00
H485   H     0.06177   0.83076   0.09298   0.00000  Uiso   1.00
H486   H     0.16293   0.78214   0.37603   0.00000  Uiso   1.00
H487   H     0.21065   0.88259   0.09037   0.00000  Uiso   1.00
H488   H     0.96497   0.84237   0.01406   0.00000  Uiso   1.00
H489   H     0.17829   0.73985   0.61087   0.00000  Uiso   1.00
H490   H     0.27892   0.95166   0.00851   0.00000  Uiso   1.00
H491   H     0.09970   0.96428   0.44141   0.00000  Uiso   1.00
H492   H     0.01514   0.96675   0.35476   0.00000  Uiso   1.00
H493   H     0.11630   0.91812   0.63780   0.00000  Uiso   1.00
H494   H     0.16402   0.01857   0.35214   0.00000  Uiso   1.00
H495   H     0.92712   0.95274   0.22653   0.00000  Uiso   1.00
H496   H     0.14044   0.85021   0.82334   0.00000  Uiso   1.00
H497   H     0.24108   0.06203   0.22097   0.00000  Uiso   1.00
O498   O     0.89121   0.89684   0.05884   0.00000  Uiso   1.00
O499   O     0.17109   0.76234   0.84183   0.00000  Uiso   1.00
O500   O     0.30312   0.04023   0.05154   0.00000  Uiso   1.00
N501   N     0.96767   0.86802   0.07594   0.00000  Uiso   1.00
N502   N     0.16710   0.77216   0.63392   0.00000  Uiso   1.00
N503   N     0.26120   0.97018   0.07078   0.00000  Uiso   1.00
N504   N     0.94730   0.92740   0.19027   0.00000  Uiso   1.00
N505   N     0.14674   0.83155   0.74825   0.00000  Uiso   1.00
N506   N     0.24083   0.02957   0.18511   0.00000  Uiso   1.00
C507   C     0.63377   0.36490   0.75010   0.00000  Uiso   1.00
C508   C     0.58302   0.38028   0.73002   0.00000  Uiso   1.00
C509   C     0.55169   0.36012   0.64948   0.00000  Uiso   1.00
C510   C     0.50683   0.37926   0.64453   0.00000  Uiso   1.00
C511   C     0.43000   0.39735   0.60230   0.00000  Uiso   1.00
C512   C     0.63798   0.35386   0.88381   0.00000  Uiso   1.00
C513   C     0.65286   0.31149   0.93256   0.00000  Uiso   1.00
C514   C     0.65427   0.30839   0.05708   0.00000  Uiso   1.00
C515   C     0.66280   0.28546   0.25361   0.00000  Uiso   1.00
C516   C     0.66390   0.40843   0.72860   0.00000  Uiso   1.00
C517   C     0.70060   0.41195   0.64687   0.00000  Uiso   1.00
C518   C     0.72385   0.45480   0.64072   0.00000  Uiso   1.00
C519   C     0.77262   0.51661   0.59625   0.00000  Uiso   1.00
C520   C     0.60982   0.43474   0.88455   0.00000  Uiso   1.00
C521   C     0.57001   0.41821   0.80306   0.00000  Uiso   1.00
C522   C     0.52519   0.43739   0.79823   0.00000  Uiso   1.00
C523   C     0.49380   0.41727   0.71769   0.00000  Uiso   1.00
C524   C     0.62497   0.39179   0.95684   0.00000  Uiso   1.00
C525   C     0.62637   0.38875   0.08132   0.00000  Uiso   1.00
C526   C     0.64125   0.34639   0.13024   0.00000  Uiso   1.00
C527   C     0.65090   0.44637   0.80162   0.00000  Uiso   1.00
C528   C     0.67410   0.48922   0.79562   0.00000  Uiso   1.00
C529   C     0.71082   0.49280   0.71389   0.00000  Uiso   1.00
H530   H     0.64390   0.33537   0.69325   0.00000  Uiso   1.00
H531   H     0.56177   0.33076   0.59298   0.00000  Uiso   1.00
H532   H     0.66293   0.28214   0.87603   0.00000  Uiso   1.00
H533   H     0.71065   0.38259   0.59037   0.00000  Uiso   1.00
H534   H     0.46497   0.34237   0.51406   0.00000  Uiso   1.00
H535   H     0.67829   0.23985   0.11087   0.00000  Uiso   1.00
H536   H     0.77892   0.45166   0.50851   0.00000  Uiso   1.00
H537   H     0.59970   0.46428   0.94141   0.00000  Uiso   1.00
H538   H     0.51514   0.46675   0.85476   0.00000  Uiso   1.00
H539   H     0.61630   0.41812   0.13780   0.00000  Uiso   1.00
H540   H     0.66402   0.51857   0.85214   0.00000  Uiso   1.00
H541   H     0.42712   0.45274   0.72653   0.00000  Uiso   1.00
H542   H     0.64044   0.35021   0.32334   0.00000  Uiso   1.00
H543   H     0.74108   0.56203   0.72097   0.00000  Uiso   1.00
O544   O     0.39121   0.39684   0.55884   0.00000  Uiso   1.00
O545   O     0.67109   0.26234   0.34183   0.00000  Uiso   1.00
O546   O     0.80312   0.54023   0.55154   0.00000  Uiso   1.00
N547   N     0.46767   0.36802   0.57594   0.00000  Uiso   1.00
N548   N     0.66710   0.27216   0.13392   0.00000  Uiso   1.00
N549   N     0.76120   0.47018   0.57078   0.00000  Uiso   1.00
N550   N     0.44730   0.42740   0.69027   0.00000  Uiso   1.00
N551   N     0.64674   0.33155   0.24825   0.00000  Uiso   1.00
N552   N     0.74083   0.52957   0.68511   0.00000  Uiso   1.00
C553   C     0.86490   0.36623   0.50010   0.00000  Uiso   1.00
C554   C     0.88028   0.41698   0.48002   0.00000  Uiso   1.00
C555   C     0.86012   0.44831   0.39948   0.00000  Uiso   1.00
C556   C     0.87926   0.49317   0.39453   0.00000  Uiso   1.00
C557   C     0.89735   0.57000   0.35230   0.00000  Uiso   1.00
C558   C     0.85386   0.36202   0.63381   0.00000  Uiso   1.00
C559   C     0.81149   0.34714   0.68256   0.00000  Uiso   1.00
C560   C     0.80839   0.34573   0.80708   0.00000  Uiso   1.00
C561   C     0.78546   0.33720   0.00361   0.00000  Uiso   1.00
C562   C     0.90843   0.33610   0.47860   0.00000  Uiso   1.00
C563   C     0.91195   0.29940   0.39687   0.00000  Uiso   1.00
C564   C     0.95480   0.27615   0.39072   0.00000  Uiso   1.00
C565   C     0.01661   0.22738   0.34625   0.00000  Uiso   1.00
C566   C     0.93474   0.39018   0.63455   0.00000  Uiso   1.00
C567   C     0.91821   0.42999   0.55306   0.00000  Uiso   1.00
C568   C     0.93739   0.47481   0.54823   0.00000  Uiso   1.00
C569   C     0.91727   0.50620   0.46769   0.00000  Uiso   1.00
C570   C     0.89179   0.37503   0.70684   0.00000  Uiso   1.00
C571   C     0.88875   0.37363   0.83132   0.00000  Uiso   1.00
C572   C     0.84639   0.35875   0.88024   0.00000  Uiso   1.00
C573   C     0.94637   0.34910   0.55162   0.00000  Uiso   1.00
C574   C     0.98922   0.32590   0.54562   0.00000  Uiso   1.00
C575   C     0.99280   0.28918   0.46389   0.00000  Uiso   1.00
H576   H     0.83537   0.35610   0.44325   0.00000  Uiso   1.00
H577   H     0.83076   0.43823   0.34298   0.00000  Uiso   1.00
H578   H     0.78214   0.33707   0.62603   0.00000  Uiso   1.00
H579   H     0.88259   0.28935   0.34037   0.00000  Uiso   1.00
H580   H     0.84237   0.53503   0.26406   0.00000  Uiso   1.00
H581   H     0.73985   0.32171   0.86087   0.00000  Uiso   1.00
H582   H     0.95166   0.22108   0.25851   0.00000  Uiso   1.00
H583   H     0.96428   0.40030   0.69141   0.00000  Uiso   1.00
H584   H     0.96675   0.48486   0.60476   0.00000  Uiso   1.00
H585   H     0.91812   0.38370   0.88780   0.00000  Uiso   1.00
H586   H     0.01857   0.33598   0.60214   0.00000  Uiso   1.00
H587   H     0.95274   0.57288   0.47653   0.00000  Uiso   1.00
H588   H     0.85021   0.35956   0.07334   0.00000  Uiso   1.00
H589   H     0.06203   0.25892   0.47097   0.00000  Uiso   1.00
O590   O     0.89684   0.60879   0.30884   0.00000  Uiso   1.00
O591   O     0.76234   0.32891   0.09183   0.00000  Uiso   1.00
O592   O     0.04023   0.19688   0.30154   0.00000  Uiso   1.00
N593   N     0.86802   0.53233   0.32594   0.00000  Uiso   1.00
N594   N     0.77216   0.33290   0.88392   0.00000  Uiso   1.00
N595   N     0.97018   0.23880   0.32078   0.00000  Uiso   1.00
N596   N     0.92740   0.55270   0.44027   0.00000  Uiso   1.00
N597   N     0.83155   0.35326   0.99825   0.00000  Uiso   1.00
N598   N     0.02957   0.25917   0.43511   0.00000  Uiso   1.00
C599   C     0.36490   0.86623   0.00010   0.00000  Uiso   1.00
C600   C     0.38028   0.91698   0.98002   0.00000  Uiso   1.00
C601   C     0.36012   0.94831   0.89948   0.00000  Uiso   1.00
C602   C     0.37926   0.99317   0.89453   0.00000  Uiso   1.00
C603   C     0.39735   0.07000   0.85230   0.00000  Uiso   1.00
C604   C     0.35386   0.86202   0.13381   0.00000  Uiso   1.00
C605   C     0.31149   0.84714   0.18256   0.00000  Uiso   1.00
C606   C     0.30839   0.84573   0.30708   0.00000  Uiso   1.00
C607   C     0.28546   0.83720   0.50361   0.00000  Uiso   1.00
C608   C     0.40843   0.83610   0.97860   0.00000  Uiso   1.00
C609   C     0.41195   0.79940   0.89687   0.00000  Uiso   1.00
C610   C     0.45480   0.77615   0.89072   0.00000  Uiso   1.00
C611   C     0.51661   0.72738   0.84625   0.00000  Uiso   1.00
C612   C     0.43474   0.89018   0.13455   0.00000  Uiso   1.00
C613   C     0.41821   0.92999   0.05306   0.00000  Uiso   1.00
C614   C     0.43739   0.97481   0.04823   0.00000  Uiso   1.00
C615   C     0.41727   0.00620   0.96769   0.00000  Uiso   1.00
C616   C     0.39179   0.87503   0.20684   0.00000  Uiso   1.00
C617   C     0.38875   0.87363   0.33132   0.00000  Uiso   1.00
C618   C     0.34639   0.85875   0.38024   0.00000  Uiso   1.00
C619   C     0.44637   0.84910   0.05162   0.00000  Uiso   1.00
C620   C     0.48922   0.82590   0.04562   0.00000  Uiso   1.00
C621   C     0.49280   0.78918   0.96389   0.00000  Uiso   1.00
H622   H     0.33537   0.85610   0.94325   0.00000  Uiso   1.00
H623   H     0.33076   0.93823   0.84298   0.00000  Uiso   1.00
H624   H     0.28214   0.83707   0.12603   0.00000  Uiso   1.00
H625   H     0.38259   0.78935   0.84037   0.00000  Uiso   1.00
H626   H     0.34237   0.03503   0.76406   0.00000  Uiso   1.00
H627   H     0.23985   0.82171   0.36087   0.00000  Uiso   1.00
H628   H     0.45166   0.72108   0.75851   0.00000  Uiso   1.00
H629   H     0.46428   0.90030   0.19141   0.00000  Uiso   1.00
H630   H     0.46675   0.98486   0.10476   0.00000  Uiso   1.00
H631   H     0.41812   0.88370   0.38780   0.00000  Uiso   1.00
H632   H     0.51857   0.83598   0.10214   0.00000  Uiso   1.00
H633   H     0.45274   0.07288   0.97653   0.00000  Uiso   1.00
H634   H     0.35021   0.85956   0.57334   0.00000  Uiso   1.00
H635   H     0.56203   0.75892   0.97097   0.00000  Uiso   1.00
O636   O     0.39684   0.10879   0.80884   0.00000  Uiso   1.00
O637   O     0.26234   0.82891   0.59183   0.00000  Uiso   1.00
O638   O     0.54023   0.69688   0.80154   0.00000  Uiso   1.00
N639   N     0.36802   0.03233   0.82594   0.00000  Uiso   1.00
N640   N     0.27216   0.83290   0.38392   0.00000  Uiso   1.00
N641   N     0.47018   0.73880   0.82078   0.00000  Uiso   1.00
N642   N     0.42740   0.05270   0.94027   0.00000  Uiso   1.00
N643   N     0.33155   0.85326   0.49825   0.00000  Uiso   1.00
N644   N     0.52957   0.75917   0.93511   0.00000  Uiso   1.00
C645   C     0.63510   0.13377   0.00010   0.00000  Uiso   1.00
C646   C     0.61972   0.08302   0.98002   0.00000  Uiso   1.00
C647   C     0.63988   0.05169   0.89948   0.00000  Uiso   1.00
C648   C     0.62074   0.00683   0.89453   0.00000  Uiso   1.00
C649   C     0.60265   0.93000   0.85230   0.00000  Uiso   1.00
C650   C     0.64614   0.13798   0.13381   0.00000  Uiso   1.00
C651   C     0.68851   0.15286   0.18256   0.00000  Uiso   1.00
C652   C     0.69161   0.15427   0.30708   0.00000  Uiso   1.00
C653   C     0.71454   0.16280   0.50361   0.00000  Uiso   1.00
C654   C     0.59157   0.16390   0.97860   0.00000  Uiso   1.00
C655   C     0.58805   0.20060   0.89687   0.00000  Uiso   1.00
C656   C     0.54520   0.22385   0.89072   0.00000  Uiso   1.00
C657   C     0.48339   0.27262   0.84625   0.00000  Uiso   1.00
C658   C     0.56526   0.10982   0.13455   0.00000  Uiso   1.00
C659   C     0.58179   0.07001   0.05306   0.00000  Uiso   1.00
C660   C     0.56261   0.02519   0.04823   0.00000  Uiso   1.00
C661   C     0.58273   0.99380   0.96769   0.00000  Uiso   1.00
C662   C     0.60821   0.12497   0.20684   0.00000  Uiso   1.00
C663   C     0.61125   0.12637   0.33132   0.00000  Uiso   1.00
C664   C     0.65361   0.14125   0.38024   0.00000  Uiso   1.00
C665   C     0.55363   0.15090   0.05162   0.00000  Uiso   1.00
C666   C     0.51078   0.17410   0.04562   0.00000  Uiso   1.00
C667   C     0.50720   0.21082   0.96389   0.00000  Uiso   1.00
H668   H     0.66463   0.14390   0.94325   0.00000  Uiso   1.00
H669   H     0.66924   0.06177   0.84298   0.00000  Uiso   1.00
H670   H     0.71786   0.16293   0.12603   0.00000  Uiso   1.00
H671   H     0.61741   0.21065   0.84037   0.00000  Uiso   1.00
H672   H     0.65763   0.96497   0.76406   0.00000  Uiso   1.00
H673   H     0.76015   0.17829   0.36087   0.00000  Uiso   1.00
H674   H     0.54834   0.27892   0.75851   0.00000  Uiso   1.00
H675   H     0.53572   0.09970   0.19141   0.00000  Uiso   1.00
H676   H     0.53325   0.01514   0.10476   0.00000  Uiso   1.00
H677   H     0.58188   0.11630   0.38780   0.00000  Uiso   1.00
H678   H     0.48143   0.16402   0.10214   0.00000  Uiso   1.00
H679   H     0.54726   0.92712   0.97653   0.00000  Uiso   1.00
H680   H     0.64979   0.14044   0.57334   0.00000  Uiso   1.00
H681   H     0.43797   0.24108   0.97097   0.00000  Uiso   1.00
O682   O     0.60316   0.89121   0.80884   0.00000  Uiso   1.00
O683   O     0.73766   0.17109   0.59183   0.00000  Uiso   1.00
O684   O     0.45977   0.30312   0.80154   0.00000  Uiso   1.00
N685   N     0.63198   0.96767   0.82594   0.00000  Uiso   1.00
N686   N     0.72784   0.16710   0.38392   0.00000  Uiso   1.00
N687   N     0.52982   0.26120   0.82078   0.00000  Uiso   1.00
N688   N     0.57260   0.94730   0.94027   0.00000  Uiso   1.00
N689   N     0.66845   0.14674   0.49825   0.00000  Uiso   1.00
N690   N     0.47043   0.24083   0.93511   0.00000  Uiso   1.00
C691   C     0.13510   0.63377   0.50010   0.00000  Uiso   1.00
C692   C     0.11972   0.58302   0.48002   0.00000  Uiso   1.00
C693   C     0.13988   0.55169   0.39948   0.00000  Uiso   1.00
C694   C     0.12074   0.50683   0.39453   0.00000  Uiso   1.00
C695   C     0.10265   0.43000   0.35230   0.00000  Uiso   1.00
C696   C     0.14614   0.63798   0.63381   0.00000  Uiso   1.00
C697   C     0.18851   0.65286   0.68256   0.00000  Uiso   1.00
C698   C     0.19161   0.65427   0.80708   0.00000  Uiso   1.00
C699   C     0.21454   0.66280   0.00361   0.00000  Uiso   1.00
C700   C     0.09157   0.66390   0.47860   0.00000  Uiso   1.00
C701   C     0.08805   0.70060   0.39687   0.00000  Uiso   1.00
C702   C     0.04520   0.72385   0.39072   0.00000  Uiso   1.00
C703   C     0.98339   0.77262   0.34625   0.00000  Uiso   1.00
C704   C     0.06526   0.60982   0.63455   0.00000  Uiso   1.00
C705   C     0.08179   0.57001   0.55306   0.00000  Uiso   1.00
C706   C     0.06261   0.52519   0.54823   0.00000  Uiso   1.00
C707   C     0.08273   0.49380   0.46769   0.00000  Uiso   1.00
C708   C     0.10821   0.62497   0.70684   0.00000  Uiso   1.00
C709   C     0.11125   0.62637   0.83132   0.00000  Uiso   1.00
C710   C     0.15361   0.64125   0.88024   0.00000  Uiso   1.00
C711   C     0.05363   0.65090   0.55162   0.00000  Uiso   1.00
C712   C     0.01078   0.67410   0.54562   0.00000  Uiso   1.00
C713   C     0.00720   0.71082   0.46389   0.00000  Uiso   1.00
H714   H     0.16463   0.64390   0.44325   0.00000  Uiso   1.00
H715   H     0.16924   0.56177   0.34298   0.00000  Uiso   1.00
H716   H     0.21786   0.66293   0.62603   0.00000  Uiso   1.00
H717   H     0.11741   0.71065   0.34037   0.00000  Uiso   1.00
H718   H     0.15763   0.46497   0.26406   0.00000  Uiso   1.00
H719   H     0.26015   0.67829   0.86087   0.00000  Uiso   1.00
H720   H     0.04834   0.77892   0.25851   0.00000  Uiso   1.00
H721   H     0.03572   0.59970   0.69141   0.00000  Uiso   1.00
H722   H     0.03325   0.51514   0.60476   0.00000  Uiso   1.00
H723   H     0.08188   0.61630   0.88780   0.00000  Uiso   1.00
H724   H     0.98143   0.66402   0.60214   0.00000  Uiso   1.00
H725   H     0.04726   0.42712   0.47653   0.00000  Uiso   1.00
H726   H     0.14979   0.64044   0.07334   0.00000  Uiso   1.00
H727   H     0.93797   0.74108   0.47097   0.00000  Uiso   1.00
O728   O     0.10316   0.39121   0.30884   0.00000  Uiso   1.00
O729   O     0.23766   0.67109   0.09183   0.00000  Uiso   1.00
O730   O     0.95977   0.80312   0.30154   0.00000  Uiso   1.00
N731   N     0.13198   0.46767   0.32594   0.00000  Uiso   1.00
N732   N     0.22784   0.66710   0.88392   0.00000  Uiso   1.00
N733   N     0.02982   0.76120   0.32078   0.00000  Uiso   1.00
N734   N     0.07260   0.44730   0.44027   0.00000  Uiso   1.00
N735   N     0.16845   0.64674   0.99825   0.00000  Uiso   1.00
N736   N     0.97043   0.74083   0.43511   0.00000  Uiso   1.00
