data_job_03560
_audit_creation_date              2018-12-19
_audit_creation_method            'Materials Studio'
_symmetry_space_group_name_H-M    'P1'
_symmetry_Int_Tables_number       1
_symmetry_cell_setting            triclinic
loop_
_symmetry_equiv_pos_as_xyz
  x,y,z
_cell_length_a                    38.3799
_cell_length_b                    11.6911
_cell_length_c                    24.5760
_cell_angle_alpha                 90.0000
_cell_angle_beta                  90.0000
_cell_angle_gamma                 90.0000
loop_
_atom_site_label
_atom_site_type_symbol
_atom_site_fract_x
_atom_site_fract_y
_atom_site_fract_z
_atom_site_U_iso_or_equiv
_atom_site_adp_type
_atom_site_occupancy
C1     C     0.46421   0.62508   0.71769   0.00000  Uiso   1.00
C2     C     0.43169   0.55034   0.72035   0.00000  Uiso   1.00
C3     C     0.43007   0.43492   0.70740   0.00000  Uiso   1.00
C4     C     0.39787   0.38186   0.71248   0.00000  Uiso   1.00
C5     C     0.35186   0.25665   0.71394   0.00000  Uiso   1.00
C6     C     0.45509   0.72481   0.68031   0.00000  Uiso   1.00
C7     C     0.47315   0.75609   0.63371   0.00000  Uiso   1.00
C8     C     0.46065   0.84990   0.60509   0.00000  Uiso   1.00
C9     C     0.45099   0.99560   0.54441   0.00000  Uiso   1.00
C10    C     0.46863   0.67617   0.77436   0.00000  Uiso   1.00
C11    C     0.49807   0.66659   0.80682   0.00000  Uiso   1.00
C12    C     0.49697   0.71949   0.85738   0.00000  Uiso   1.00
C13    C     0.50833   0.78967   0.94272   0.00000  Uiso   1.00
C14    C     0.40991   0.73609   0.74974   0.00000  Uiso   1.00
C15    C     0.40220   0.61064   0.73776   0.00000  Uiso   1.00
C16    C     0.36999   0.55773   0.74286   0.00000  Uiso   1.00
C17    C     0.36832   0.44226   0.72992   0.00000  Uiso   1.00
C18    C     0.42560   0.78510   0.69772   0.00000  Uiso   1.00
C19    C     0.41307   0.87890   0.66916   0.00000  Uiso   1.00
C20    C     0.43111   0.91030   0.62252   0.00000  Uiso   1.00
C21    C     0.43913   0.73647   0.79177   0.00000  Uiso   1.00
C22    C     0.43799   0.78940   0.84228   0.00000  Uiso   1.00
C23    C     0.46743   0.77989   0.87482   0.00000  Uiso   1.00
H24    H     0.48717   0.57815   0.70413   0.00000  Uiso   1.00
H25    H     0.45290   0.38830   0.69393   0.00000  Uiso   1.00
H26    H     0.49597   0.70942   0.62025   0.00000  Uiso   1.00
H27    H     0.52089   0.61993   0.79334   0.00000  Uiso   1.00
H28    H     0.40189   0.20441   0.69027   0.00000  Uiso   1.00
H29    H     0.49273   0.88153   0.53492   0.00000  Uiso   1.00
H30    H     0.54527   0.69283   0.89991   0.00000  Uiso   1.00
H31    H     0.38694   0.78303   0.76329   0.00000  Uiso   1.00
H32    H     0.34717   0.60442   0.75633   0.00000  Uiso   1.00
H33    H     0.39025   0.92554   0.68265   0.00000  Uiso   1.00
H34    H     0.41516   0.83605   0.85574   0.00000  Uiso   1.00
H35    H     0.31608   0.37982   0.74092   0.00000  Uiso   1.00
H36    H     0.40692   0.05695   0.58557   0.00000  Uiso   1.00
H37    H     0.45946   0.86824   0.95056   0.00000  Uiso   1.00
O38    O     0.33463   0.17093   0.70993   0.00000  Uiso   1.00
O39    O     0.45381   0.05930   0.50612   0.00000  Uiso   1.00
O40    O     0.52274   0.81172   0.98499   0.00000  Uiso   1.00
N41    N     0.38715   0.27020   0.70316   0.00000  Uiso   1.00
N42    N     0.47208   0.90326   0.55791   0.00000  Uiso   1.00
N43    N     0.52121   0.72686   0.89914   0.00000  Uiso   1.00
N44    N     0.34098   0.36459   0.73041   0.00000  Uiso   1.00
N45    N     0.42591   0.99765   0.58516   0.00000  Uiso   1.00
N46    N     0.47503   0.82125   0.92639   0.00000  Uiso   1.00
C47    C     0.46421   0.12508   0.21769   0.00000  Uiso   1.00
C48    C     0.43169   0.05034   0.22035   0.00000  Uiso   1.00
C49    C     0.43007   0.93492   0.20740   0.00000  Uiso   1.00
C50    C     0.39787   0.88186   0.21248   0.00000  Uiso   1.00
C51    C     0.35186   0.75665   0.21394   0.00000  Uiso   1.00
C52    C     0.45509   0.22481   0.18031   0.00000  Uiso   1.00
C53    C     0.47315   0.25609   0.13371   0.00000  Uiso   1.00
C54    C     0.46065   0.34990   0.10509   0.00000  Uiso   1.00
C55    C     0.45099   0.49560   0.04441   0.00000  Uiso   1.00
C56    C     0.46863   0.17617   0.27436   0.00000  Uiso   1.00
C57    C     0.49807   0.16659   0.30682   0.00000  Uiso   1.00
C58    C     0.49697   0.21949   0.35738   0.00000  Uiso   1.00
C59    C     0.50833   0.28967   0.44272   0.00000  Uiso   1.00
C60    C     0.40991   0.23609   0.24974   0.00000  Uiso   1.00
C61    C     0.40220   0.11064   0.23776   0.00000  Uiso   1.00
C62    C     0.36999   0.05773   0.24286   0.00000  Uiso   1.00
C63    C     0.36832   0.94226   0.22992   0.00000  Uiso   1.00
C64    C     0.42560   0.28510   0.19772   0.00000  Uiso   1.00
C65    C     0.41307   0.37890   0.16916   0.00000  Uiso   1.00
C66    C     0.43111   0.41030   0.12252   0.00000  Uiso   1.00
C67    C     0.43913   0.23647   0.29177   0.00000  Uiso   1.00
C68    C     0.43799   0.28940   0.34228   0.00000  Uiso   1.00
C69    C     0.46743   0.27989   0.37482   0.00000  Uiso   1.00
H70    H     0.48717   0.07815   0.20413   0.00000  Uiso   1.00
H71    H     0.45290   0.88830   0.19393   0.00000  Uiso   1.00
H72    H     0.49597   0.20942   0.12025   0.00000  Uiso   1.00
H73    H     0.52089   0.11993   0.29334   0.00000  Uiso   1.00
H74    H     0.40189   0.70441   0.19027   0.00000  Uiso   1.00
H75    H     0.49273   0.38153   0.03492   0.00000  Uiso   1.00
H76    H     0.54527   0.19283   0.39991   0.00000  Uiso   1.00
H77    H     0.38694   0.28303   0.26329   0.00000  Uiso   1.00
H78    H     0.34717   0.10442   0.25633   0.00000  Uiso   1.00
H79    H     0.39025   0.42554   0.18265   0.00000  Uiso   1.00
H80    H     0.41516   0.33605   0.35574   0.00000  Uiso   1.00
H81    H     0.31608   0.87982   0.24092   0.00000  Uiso   1.00
H82    H     0.40692   0.55695   0.08557   0.00000  Uiso   1.00
H83    H     0.45946   0.36824   0.45056   0.00000  Uiso   1.00
O84    O     0.33463   0.67093   0.20993   0.00000  Uiso   1.00
O85    O     0.45381   0.55930   0.00612   0.00000  Uiso   1.00
O86    O     0.52274   0.31172   0.48499   0.00000  Uiso   1.00
N87    N     0.38715   0.77020   0.20316   0.00000  Uiso   1.00
N88    N     0.47208   0.40326   0.05791   0.00000  Uiso   1.00
N89    N     0.52121   0.22686   0.39914   0.00000  Uiso   1.00
N90    N     0.34098   0.86459   0.23041   0.00000  Uiso   1.00
N91    N     0.42591   0.49765   0.08516   0.00000  Uiso   1.00
N92    N     0.47503   0.32125   0.42639   0.00000  Uiso   1.00
C93    C     0.96421   0.62508   0.21769   0.00000  Uiso   1.00
C94    C     0.93169   0.55034   0.22035   0.00000  Uiso   1.00
C95    C     0.93007   0.43492   0.20740   0.00000  Uiso   1.00
C96    C     0.89787   0.38186   0.21248   0.00000  Uiso   1.00
C97    C     0.85186   0.25665   0.21394   0.00000  Uiso   1.00
C98    C     0.95509   0.72481   0.18031   0.00000  Uiso   1.00
C99    C     0.97315   0.75609   0.13371   0.00000  Uiso   1.00
C100   C     0.96065   0.84990   0.10509   0.00000  Uiso   1.00
C101   C     0.95099   0.99560   0.04441   0.00000  Uiso   1.00
C102   C     0.96863   0.67617   0.27436   0.00000  Uiso   1.00
C103   C     0.99807   0.66659   0.30682   0.00000  Uiso   1.00
C104   C     0.99697   0.71949   0.35738   0.00000  Uiso   1.00
C105   C     0.00833   0.78967   0.44272   0.00000  Uiso   1.00
C106   C     0.90991   0.73609   0.24974   0.00000  Uiso   1.00
C107   C     0.90220   0.61064   0.23776   0.00000  Uiso   1.00
C108   C     0.86999   0.55773   0.24286   0.00000  Uiso   1.00
C109   C     0.86832   0.44226   0.22992   0.00000  Uiso   1.00
C110   C     0.92560   0.78510   0.19772   0.00000  Uiso   1.00
C111   C     0.91307   0.87890   0.16916   0.00000  Uiso   1.00
C112   C     0.93111   0.91030   0.12252   0.00000  Uiso   1.00
C113   C     0.93913   0.73647   0.29177   0.00000  Uiso   1.00
C114   C     0.93799   0.78940   0.34228   0.00000  Uiso   1.00
C115   C     0.96743   0.77989   0.37482   0.00000  Uiso   1.00
H116   H     0.98717   0.57815   0.20413   0.00000  Uiso   1.00
H117   H     0.95290   0.38830   0.19393   0.00000  Uiso   1.00
H118   H     0.99597   0.70942   0.12025   0.00000  Uiso   1.00
H119   H     0.02089   0.61993   0.29334   0.00000  Uiso   1.00
H120   H     0.90189   0.20441   0.19027   0.00000  Uiso   1.00
H121   H     0.99273   0.88153   0.03492   0.00000  Uiso   1.00
H122   H     0.04527   0.69283   0.39991   0.00000  Uiso   1.00
H123   H     0.88694   0.78303   0.26329   0.00000  Uiso   1.00
H124   H     0.84717   0.60442   0.25633   0.00000  Uiso   1.00
H125   H     0.89025   0.92554   0.18265   0.00000  Uiso   1.00
H126   H     0.91516   0.83605   0.35574   0.00000  Uiso   1.00
H127   H     0.81608   0.37982   0.24092   0.00000  Uiso   1.00
H128   H     0.90692   0.05695   0.08557   0.00000  Uiso   1.00
H129   H     0.95946   0.86824   0.45056   0.00000  Uiso   1.00
O130   O     0.83463   0.17093   0.20993   0.00000  Uiso   1.00
O131   O     0.95381   0.05930   0.00612   0.00000  Uiso   1.00
O132   O     0.02274   0.81172   0.48499   0.00000  Uiso   1.00
N133   N     0.88715   0.27020   0.20316   0.00000  Uiso   1.00
N134   N     0.97208   0.90326   0.05791   0.00000  Uiso   1.00
N135   N     0.02121   0.72686   0.39914   0.00000  Uiso   1.00
N136   N     0.84098   0.36459   0.23041   0.00000  Uiso   1.00
N137   N     0.92591   0.99765   0.08516   0.00000  Uiso   1.00
N138   N     0.97503   0.82125   0.42639   0.00000  Uiso   1.00
C139   C     0.96421   0.12508   0.71769   0.00000  Uiso   1.00
C140   C     0.93169   0.05034   0.72035   0.00000  Uiso   1.00
C141   C     0.93007   0.93492   0.70740   0.00000  Uiso   1.00
C142   C     0.89787   0.88186   0.71248   0.00000  Uiso   1.00
C143   C     0.85186   0.75665   0.71394   0.00000  Uiso   1.00
C144   C     0.95509   0.22481   0.68031   0.00000  Uiso   1.00
C145   C     0.97315   0.25609   0.63371   0.00000  Uiso   1.00
C146   C     0.96065   0.34990   0.60509   0.00000  Uiso   1.00
C147   C     0.95099   0.49560   0.54441   0.00000  Uiso   1.00
C148   C     0.96863   0.17617   0.77436   0.00000  Uiso   1.00
C149   C     0.99807   0.16659   0.80682   0.00000  Uiso   1.00
C150   C     0.99697   0.21949   0.85738   0.00000  Uiso   1.00
C151   C     0.00833   0.28967   0.94272   0.00000  Uiso   1.00
C152   C     0.90991   0.23609   0.74974   0.00000  Uiso   1.00
C153   C     0.90220   0.11064   0.73776   0.00000  Uiso   1.00
C154   C     0.86999   0.05773   0.74286   0.00000  Uiso   1.00
C155   C     0.86832   0.94226   0.72992   0.00000  Uiso   1.00
C156   C     0.92560   0.28510   0.69772   0.00000  Uiso   1.00
C157   C     0.91307   0.37890   0.66916   0.00000  Uiso   1.00
C158   C     0.93111   0.41030   0.62252   0.00000  Uiso   1.00
C159   C     0.93913   0.23647   0.79177   0.00000  Uiso   1.00
C160   C     0.93799   0.28940   0.84228   0.00000  Uiso   1.00
C161   C     0.96743   0.27989   0.87482   0.00000  Uiso   1.00
H162   H     0.98717   0.07815   0.70413   0.00000  Uiso   1.00
H163   H     0.95290   0.88830   0.69393   0.00000  Uiso   1.00
H164   H     0.99597   0.20942   0.62025   0.00000  Uiso   1.00
H165   H     0.02089   0.11993   0.79334   0.00000  Uiso   1.00
H166   H     0.90189   0.70441   0.69027   0.00000  Uiso   1.00
H167   H     0.99273   0.38153   0.53492   0.00000  Uiso   1.00
H168   H     0.04527   0.19283   0.89991   0.00000  Uiso   1.00
H169   H     0.88694   0.28303   0.76329   0.00000  Uiso   1.00
H170   H     0.84717   0.10442   0.75633   0.00000  Uiso   1.00
H171   H     0.89025   0.42554   0.68265   0.00000  Uiso   1.00
H172   H     0.91516   0.33605   0.85574   0.00000  Uiso   1.00
H173   H     0.81608   0.87982   0.74092   0.00000  Uiso   1.00
H174   H     0.90692   0.55695   0.58557   0.00000  Uiso   1.00
H175   H     0.95946   0.36824   0.95056   0.00000  Uiso   1.00
O176   O     0.83463   0.67093   0.70993   0.00000  Uiso   1.00
O177   O     0.95381   0.55930   0.50612   0.00000  Uiso   1.00
O178   O     0.02274   0.31172   0.98499   0.00000  Uiso   1.00
N179   N     0.88715   0.77020   0.70316   0.00000  Uiso   1.00
N180   N     0.97208   0.40326   0.55791   0.00000  Uiso   1.00
N181   N     0.02121   0.22686   0.89914   0.00000  Uiso   1.00
N182   N     0.84098   0.86459   0.73041   0.00000  Uiso   1.00
N183   N     0.92591   0.49765   0.58516   0.00000  Uiso   1.00
N184   N     0.97503   0.32125   0.92639   0.00000  Uiso   1.00
C185   C     0.53579   0.37492   0.71769   0.00000  Uiso   1.00
C186   C     0.56831   0.44966   0.72035   0.00000  Uiso   1.00
C187   C     0.56993   0.56508   0.70740   0.00000  Uiso   1.00
C188   C     0.60213   0.61814   0.71248   0.00000  Uiso   1.00
C189   C     0.64814   0.74335   0.71394   0.00000  Uiso   1.00
C190   C     0.54491   0.27519   0.68031   0.00000  Uiso   1.00
C191   C     0.52685   0.24391   0.63371   0.00000  Uiso   1.00
C192   C     0.53935   0.15010   0.60509   0.00000  Uiso   1.00
C193   C     0.54901   0.00440   0.54441   0.00000  Uiso   1.00
C194   C     0.53137   0.32383   0.77436   0.00000  Uiso   1.00
C195   C     0.50193   0.33341   0.80682   0.00000  Uiso   1.00
C196   C     0.50303   0.28051   0.85738   0.00000  Uiso   1.00
C197   C     0.49167   0.21033   0.94272   0.00000  Uiso   1.00
C198   C     0.59009   0.26391   0.74974   0.00000  Uiso   1.00
C199   C     0.59780   0.38936   0.73776   0.00000  Uiso   1.00
C200   C     0.63001   0.44227   0.74286   0.00000  Uiso   1.00
C201   C     0.63168   0.55774   0.72992   0.00000  Uiso   1.00
C202   C     0.57440   0.21490   0.69772   0.00000  Uiso   1.00
C203   C     0.58693   0.12110   0.66916   0.00000  Uiso   1.00
C204   C     0.56889   0.08970   0.62252   0.00000  Uiso   1.00
C205   C     0.56087   0.26353   0.79177   0.00000  Uiso   1.00
C206   C     0.56201   0.21060   0.84228   0.00000  Uiso   1.00
C207   C     0.53257   0.22011   0.87482   0.00000  Uiso   1.00
H208   H     0.51283   0.42185   0.70413   0.00000  Uiso   1.00
H209   H     0.54710   0.61170   0.69393   0.00000  Uiso   1.00
H210   H     0.50403   0.29058   0.62025   0.00000  Uiso   1.00
H211   H     0.47911   0.38007   0.79334   0.00000  Uiso   1.00
H212   H     0.59811   0.79559   0.69027   0.00000  Uiso   1.00
H213   H     0.50727   0.11847   0.53492   0.00000  Uiso   1.00
H214   H     0.45473   0.30717   0.89991   0.00000  Uiso   1.00
H215   H     0.61306   0.21697   0.76329   0.00000  Uiso   1.00
H216   H     0.65283   0.39558   0.75633   0.00000  Uiso   1.00
H217   H     0.60975   0.07446   0.68265   0.00000  Uiso   1.00
H218   H     0.58484   0.16395   0.85574   0.00000  Uiso   1.00
H219   H     0.68392   0.62018   0.74092   0.00000  Uiso   1.00
H220   H     0.59308   0.94305   0.58557   0.00000  Uiso   1.00
H221   H     0.54054   0.13176   0.95056   0.00000  Uiso   1.00
O222   O     0.66537   0.82907   0.70993   0.00000  Uiso   1.00
O223   O     0.54619   0.94070   0.50612   0.00000  Uiso   1.00
O224   O     0.47726   0.18828   0.98499   0.00000  Uiso   1.00
N225   N     0.61285   0.72980   0.70316   0.00000  Uiso   1.00
N226   N     0.52792   0.09674   0.55791   0.00000  Uiso   1.00
N227   N     0.47879   0.27314   0.89914   0.00000  Uiso   1.00
N228   N     0.65902   0.63541   0.73041   0.00000  Uiso   1.00
N229   N     0.57409   0.00235   0.58516   0.00000  Uiso   1.00
N230   N     0.52497   0.17875   0.92639   0.00000  Uiso   1.00
C231   C     0.53579   0.87492   0.21769   0.00000  Uiso   1.00
C232   C     0.56831   0.94966   0.22035   0.00000  Uiso   1.00
C233   C     0.56993   0.06508   0.20740   0.00000  Uiso   1.00
C234   C     0.60213   0.11814   0.21248   0.00000  Uiso   1.00
C235   C     0.64814   0.24335   0.21394   0.00000  Uiso   1.00
C236   C     0.54491   0.77519   0.18031   0.00000  Uiso   1.00
C237   C     0.52685   0.74391   0.13371   0.00000  Uiso   1.00
C238   C     0.53935   0.65010   0.10509   0.00000  Uiso   1.00
C239   C     0.54901   0.50440   0.04441   0.00000  Uiso   1.00
C240   C     0.53137   0.82383   0.27436   0.00000  Uiso   1.00
C241   C     0.50193   0.83341   0.30682   0.00000  Uiso   1.00
C242   C     0.50303   0.78051   0.35738   0.00000  Uiso   1.00
C243   C     0.49167   0.71033   0.44272   0.00000  Uiso   1.00
C244   C     0.59009   0.76391   0.24974   0.00000  Uiso   1.00
C245   C     0.59780   0.88936   0.23776   0.00000  Uiso   1.00
C246   C     0.63001   0.94227   0.24286   0.00000  Uiso   1.00
C247   C     0.63168   0.05774   0.22992   0.00000  Uiso   1.00
C248   C     0.57440   0.71490   0.19772   0.00000  Uiso   1.00
C249   C     0.58693   0.62110   0.16916   0.00000  Uiso   1.00
C250   C     0.56889   0.58970   0.12252   0.00000  Uiso   1.00
C251   C     0.56087   0.76353   0.29177   0.00000  Uiso   1.00
C252   C     0.56201   0.71060   0.34228   0.00000  Uiso   1.00
C253   C     0.53257   0.72011   0.37482   0.00000  Uiso   1.00
H254   H     0.51283   0.92185   0.20413   0.00000  Uiso   1.00
H255   H     0.54710   0.11170   0.19393   0.00000  Uiso   1.00
H256   H     0.50403   0.79058   0.12025   0.00000  Uiso   1.00
H257   H     0.47911   0.88007   0.29334   0.00000  Uiso   1.00
H258   H     0.59811   0.29559   0.19027   0.00000  Uiso   1.00
H259   H     0.50727   0.61847   0.03492   0.00000  Uiso   1.00
H260   H     0.45473   0.80717   0.39991   0.00000  Uiso   1.00
H261   H     0.61306   0.71697   0.26329   0.00000  Uiso   1.00
H262   H     0.65283   0.89558   0.25633   0.00000  Uiso   1.00
H263   H     0.60975   0.57446   0.18265   0.00000  Uiso   1.00
H264   H     0.58484   0.66395   0.35574   0.00000  Uiso   1.00
H265   H     0.68392   0.12018   0.24092   0.00000  Uiso   1.00
H266   H     0.59308   0.44305   0.08557   0.00000  Uiso   1.00
H267   H     0.54054   0.63176   0.45056   0.00000  Uiso   1.00
O268   O     0.66537   0.32907   0.20993   0.00000  Uiso   1.00
O269   O     0.54619   0.44070   0.00612   0.00000  Uiso   1.00
O270   O     0.47726   0.68828   0.48499   0.00000  Uiso   1.00
N271   N     0.61285   0.22980   0.20316   0.00000  Uiso   1.00
N272   N     0.52792   0.59674   0.05791   0.00000  Uiso   1.00
N273   N     0.47879   0.77314   0.39914   0.00000  Uiso   1.00
N274   N     0.65902   0.13541   0.23041   0.00000  Uiso   1.00
N275   N     0.57409   0.50235   0.08516   0.00000  Uiso   1.00
N276   N     0.52497   0.67875   0.42639   0.00000  Uiso   1.00
C277   C     0.03579   0.37492   0.21769   0.00000  Uiso   1.00
C278   C     0.06831   0.44966   0.22035   0.00000  Uiso   1.00
C279   C     0.06993   0.56508   0.20740   0.00000  Uiso   1.00
C280   C     0.10213   0.61814   0.21248   0.00000  Uiso   1.00
C281   C     0.14814   0.74335   0.21394   0.00000  Uiso   1.00
C282   C     0.04491   0.27519   0.18031   0.00000  Uiso   1.00
C283   C     0.02685   0.24391   0.13371   0.00000  Uiso   1.00
C284   C     0.03935   0.15010   0.10509   0.00000  Uiso   1.00
C285   C     0.04901   0.00440   0.04441   0.00000  Uiso   1.00
C286   C     0.03137   0.32383   0.27436   0.00000  Uiso   1.00
C287   C     0.00193   0.33341   0.30682   0.00000  Uiso   1.00
C288   C     0.00303   0.28051   0.35738   0.00000  Uiso   1.00
C289   C     0.99167   0.21033   0.44272   0.00000  Uiso   1.00
C290   C     0.09009   0.26391   0.24974   0.00000  Uiso   1.00
C291   C     0.09780   0.38936   0.23776   0.00000  Uiso   1.00
C292   C     0.13001   0.44227   0.24286   0.00000  Uiso   1.00
C293   C     0.13168   0.55774   0.22992   0.00000  Uiso   1.00
C294   C     0.07440   0.21490   0.19772   0.00000  Uiso   1.00
C295   C     0.08693   0.12110   0.16916   0.00000  Uiso   1.00
C296   C     0.06889   0.08970   0.12252   0.00000  Uiso   1.00
C297   C     0.06087   0.26353   0.29177   0.00000  Uiso   1.00
C298   C     0.06201   0.21060   0.34228   0.00000  Uiso   1.00
C299   C     0.03257   0.22011   0.37482   0.00000  Uiso   1.00
H300   H     0.01283   0.42185   0.20413   0.00000  Uiso   1.00
H301   H     0.04710   0.61170   0.19393   0.00000  Uiso   1.00
H302   H     0.00403   0.29058   0.12025   0.00000  Uiso   1.00
H303   H     0.97911   0.38007   0.29334   0.00000  Uiso   1.00
H304   H     0.09811   0.79559   0.19027   0.00000  Uiso   1.00
H305   H     0.00727   0.11847   0.03492   0.00000  Uiso   1.00
H306   H     0.95473   0.30717   0.39991   0.00000  Uiso   1.00
H307   H     0.11306   0.21697   0.26329   0.00000  Uiso   1.00
H308   H     0.15283   0.39558   0.25633   0.00000  Uiso   1.00
H309   H     0.10975   0.07446   0.18265   0.00000  Uiso   1.00
H310   H     0.08484   0.16395   0.35574   0.00000  Uiso   1.00
H311   H     0.18392   0.62018   0.24092   0.00000  Uiso   1.00
H312   H     0.09308   0.94305   0.08557   0.00000  Uiso   1.00
H313   H     0.04054   0.13176   0.45056   0.00000  Uiso   1.00
O314   O     0.16537   0.82907   0.20993   0.00000  Uiso   1.00
O315   O     0.04619   0.94070   0.00612   0.00000  Uiso   1.00
O316   O     0.97726   0.18828   0.48499   0.00000  Uiso   1.00
N317   N     0.11285   0.72980   0.20316   0.00000  Uiso   1.00
N318   N     0.02792   0.09674   0.05791   0.00000  Uiso   1.00
N319   N     0.97879   0.27314   0.39914   0.00000  Uiso   1.00
N320   N     0.15902   0.63541   0.23041   0.00000  Uiso   1.00
N321   N     0.07409   0.00235   0.08516   0.00000  Uiso   1.00
N322   N     0.02497   0.17875   0.42639   0.00000  Uiso   1.00
C323   C     0.03579   0.87492   0.71769   0.00000  Uiso   1.00
C324   C     0.06831   0.94966   0.72035   0.00000  Uiso   1.00
C325   C     0.06993   0.06508   0.70740   0.00000  Uiso   1.00
C326   C     0.10213   0.11814   0.71248   0.00000  Uiso   1.00
C327   C     0.14814   0.24335   0.71394   0.00000  Uiso   1.00
C328   C     0.04491   0.77519   0.68031   0.00000  Uiso   1.00
C329   C     0.02685   0.74391   0.63371   0.00000  Uiso   1.00
C330   C     0.03935   0.65010   0.60509   0.00000  Uiso   1.00
C331   C     0.04901   0.50440   0.54441   0.00000  Uiso   1.00
C332   C     0.03137   0.82383   0.77436   0.00000  Uiso   1.00
C333   C     0.00193   0.83341   0.80682   0.00000  Uiso   1.00
C334   C     0.00303   0.78051   0.85738   0.00000  Uiso   1.00
C335   C     0.99167   0.71033   0.94272   0.00000  Uiso   1.00
C336   C     0.09009   0.76391   0.74974   0.00000  Uiso   1.00
C337   C     0.09780   0.88936   0.73776   0.00000  Uiso   1.00
C338   C     0.13001   0.94227   0.74286   0.00000  Uiso   1.00
C339   C     0.13168   0.05774   0.72992   0.00000  Uiso   1.00
C340   C     0.07440   0.71490   0.69772   0.00000  Uiso   1.00
C341   C     0.08693   0.62110   0.66916   0.00000  Uiso   1.00
C342   C     0.06889   0.58970   0.62252   0.00000  Uiso   1.00
C343   C     0.06087   0.76353   0.79177   0.00000  Uiso   1.00
C344   C     0.06201   0.71060   0.84228   0.00000  Uiso   1.00
C345   C     0.03257   0.72011   0.87482   0.00000  Uiso   1.00
H346   H     0.01283   0.92185   0.70413   0.00000  Uiso   1.00
H347   H     0.04710   0.11170   0.69393   0.00000  Uiso   1.00
H348   H     0.00403   0.79058   0.62025   0.00000  Uiso   1.00
H349   H     0.97911   0.88007   0.79334   0.00000  Uiso   1.00
H350   H     0.09811   0.29559   0.69027   0.00000  Uiso   1.00
H351   H     0.00727   0.61847   0.53492   0.00000  Uiso   1.00
H352   H     0.95473   0.80717   0.89991   0.00000  Uiso   1.00
H353   H     0.11306   0.71697   0.76329   0.00000  Uiso   1.00
H354   H     0.15283   0.89558   0.75633   0.00000  Uiso   1.00
H355   H     0.10975   0.57446   0.68265   0.00000  Uiso   1.00
H356   H     0.08484   0.66395   0.85574   0.00000  Uiso   1.00
H357   H     0.18392   0.12018   0.74092   0.00000  Uiso   1.00
H358   H     0.09308   0.44305   0.58557   0.00000  Uiso   1.00
H359   H     0.04054   0.63176   0.95056   0.00000  Uiso   1.00
O360   O     0.16537   0.32907   0.70993   0.00000  Uiso   1.00
O361   O     0.04619   0.44070   0.50612   0.00000  Uiso   1.00
O362   O     0.97726   0.68828   0.98499   0.00000  Uiso   1.00
N363   N     0.11285   0.22980   0.70316   0.00000  Uiso   1.00
N364   N     0.02792   0.59674   0.55791   0.00000  Uiso   1.00
N365   N     0.97879   0.77314   0.89914   0.00000  Uiso   1.00
N366   N     0.15902   0.13541   0.73041   0.00000  Uiso   1.00
N367   N     0.07409   0.50235   0.58516   0.00000  Uiso   1.00
N368   N     0.02497   0.67875   0.92639   0.00000  Uiso   1.00
C369   C     0.71421   0.62492   0.96769   0.00000  Uiso   1.00
C370   C     0.68169   0.69966   0.97035   0.00000  Uiso   1.00
C371   C     0.68007   0.81508   0.95740   0.00000  Uiso   1.00
C372   C     0.64787   0.86814   0.96248   0.00000  Uiso   1.00
C373   C     0.60186   0.99335   0.96394   0.00000  Uiso   1.00
C374   C     0.70509   0.52519   0.93031   0.00000  Uiso   1.00
C375   C     0.72315   0.49391   0.88371   0.00000  Uiso   1.00
C376   C     0.71065   0.40010   0.85509   0.00000  Uiso   1.00
C377   C     0.70099   0.25440   0.79441   0.00000  Uiso   1.00
C378   C     0.71863   0.57383   0.02436   0.00000  Uiso   1.00
C379   C     0.74807   0.58341   0.05682   0.00000  Uiso   1.00
C380   C     0.74697   0.53051   0.10738   0.00000  Uiso   1.00
C381   C     0.75833   0.46033   0.19272   0.00000  Uiso   1.00
C382   C     0.65991   0.51391   0.99974   0.00000  Uiso   1.00
C383   C     0.65220   0.63936   0.98776   0.00000  Uiso   1.00
C384   C     0.61999   0.69227   0.99286   0.00000  Uiso   1.00
C385   C     0.61832   0.80774   0.97992   0.00000  Uiso   1.00
C386   C     0.67560   0.46490   0.94772   0.00000  Uiso   1.00
C387   C     0.66307   0.37110   0.91916   0.00000  Uiso   1.00
C388   C     0.68111   0.33970   0.87252   0.00000  Uiso   1.00
C389   C     0.68913   0.51353   0.04177   0.00000  Uiso   1.00
C390   C     0.68799   0.46060   0.09228   0.00000  Uiso   1.00
C391   C     0.71743   0.47011   0.12482   0.00000  Uiso   1.00
H392   H     0.73717   0.67185   0.95413   0.00000  Uiso   1.00
H393   H     0.70290   0.86170   0.94393   0.00000  Uiso   1.00
H394   H     0.74597   0.54058   0.87025   0.00000  Uiso   1.00
H395   H     0.77089   0.63007   0.04334   0.00000  Uiso   1.00
H396   H     0.65189   0.04559   0.94027   0.00000  Uiso   1.00
H397   H     0.74273   0.36847   0.78492   0.00000  Uiso   1.00
H398   H     0.79527   0.55717   0.14991   0.00000  Uiso   1.00
H399   H     0.63694   0.46697   0.01329   0.00000  Uiso   1.00
H400   H     0.59717   0.64558   0.00633   0.00000  Uiso   1.00
H401   H     0.64025   0.32446   0.93265   0.00000  Uiso   1.00
H402   H     0.66516   0.41395   0.10574   0.00000  Uiso   1.00
H403   H     0.56608   0.87018   0.99092   0.00000  Uiso   1.00
H404   H     0.65692   0.19305   0.83557   0.00000  Uiso   1.00
H405   H     0.70946   0.38176   0.20056   0.00000  Uiso   1.00
O406   O     0.58463   0.07907   0.95993   0.00000  Uiso   1.00
O407   O     0.70381   0.19070   0.75612   0.00000  Uiso   1.00
O408   O     0.77274   0.43828   0.23499   0.00000  Uiso   1.00
N409   N     0.63715   0.97980   0.95316   0.00000  Uiso   1.00
N410   N     0.72208   0.34674   0.80791   0.00000  Uiso   1.00
N411   N     0.77121   0.52314   0.14914   0.00000  Uiso   1.00
N412   N     0.59098   0.88541   0.98041   0.00000  Uiso   1.00
N413   N     0.67591   0.25235   0.83516   0.00000  Uiso   1.00
N414   N     0.72503   0.42875   0.17639   0.00000  Uiso   1.00
C415   C     0.71421   0.12492   0.46769   0.00000  Uiso   1.00
C416   C     0.68169   0.19966   0.47035   0.00000  Uiso   1.00
C417   C     0.68007   0.31508   0.45740   0.00000  Uiso   1.00
C418   C     0.64787   0.36814   0.46248   0.00000  Uiso   1.00
C419   C     0.60186   0.49335   0.46394   0.00000  Uiso   1.00
C420   C     0.70509   0.02519   0.43031   0.00000  Uiso   1.00
C421   C     0.72315   0.99391   0.38371   0.00000  Uiso   1.00
C422   C     0.71065   0.90010   0.35509   0.00000  Uiso   1.00
C423   C     0.70099   0.75440   0.29441   0.00000  Uiso   1.00
C424   C     0.71863   0.07383   0.52436   0.00000  Uiso   1.00
C425   C     0.74807   0.08341   0.55682   0.00000  Uiso   1.00
C426   C     0.74697   0.03051   0.60738   0.00000  Uiso   1.00
C427   C     0.75833   0.96033   0.69272   0.00000  Uiso   1.00
C428   C     0.65991   0.01391   0.49974   0.00000  Uiso   1.00
C429   C     0.65220   0.13936   0.48776   0.00000  Uiso   1.00
C430   C     0.61999   0.19227   0.49286   0.00000  Uiso   1.00
C431   C     0.61832   0.30774   0.47992   0.00000  Uiso   1.00
C432   C     0.67560   0.96490   0.44772   0.00000  Uiso   1.00
C433   C     0.66307   0.87110   0.41916   0.00000  Uiso   1.00
C434   C     0.68111   0.83970   0.37252   0.00000  Uiso   1.00
C435   C     0.68913   0.01353   0.54177   0.00000  Uiso   1.00
C436   C     0.68799   0.96060   0.59228   0.00000  Uiso   1.00
C437   C     0.71743   0.97011   0.62482   0.00000  Uiso   1.00
H438   H     0.73717   0.17185   0.45413   0.00000  Uiso   1.00
H439   H     0.70290   0.36170   0.44393   0.00000  Uiso   1.00
H440   H     0.74597   0.04058   0.37025   0.00000  Uiso   1.00
H441   H     0.77089   0.13007   0.54334   0.00000  Uiso   1.00
H442   H     0.65189   0.54559   0.44027   0.00000  Uiso   1.00
H443   H     0.74273   0.86847   0.28492   0.00000  Uiso   1.00
H444   H     0.79527   0.05717   0.64991   0.00000  Uiso   1.00
H445   H     0.63694   0.96697   0.51329   0.00000  Uiso   1.00
H446   H     0.59717   0.14558   0.50633   0.00000  Uiso   1.00
H447   H     0.64025   0.82446   0.43265   0.00000  Uiso   1.00
H448   H     0.66516   0.91395   0.60574   0.00000  Uiso   1.00
H449   H     0.56608   0.37018   0.49092   0.00000  Uiso   1.00
H450   H     0.65692   0.69305   0.33557   0.00000  Uiso   1.00
H451   H     0.70946   0.88176   0.70056   0.00000  Uiso   1.00
O452   O     0.58463   0.57907   0.45993   0.00000  Uiso   1.00
O453   O     0.70381   0.69070   0.25612   0.00000  Uiso   1.00
O454   O     0.77274   0.93828   0.73499   0.00000  Uiso   1.00
N455   N     0.63715   0.47980   0.45316   0.00000  Uiso   1.00
N456   N     0.72208   0.84674   0.30791   0.00000  Uiso   1.00
N457   N     0.77121   0.02314   0.64914   0.00000  Uiso   1.00
N458   N     0.59098   0.38541   0.48041   0.00000  Uiso   1.00
N459   N     0.67591   0.75235   0.33516   0.00000  Uiso   1.00
N460   N     0.72503   0.92875   0.67639   0.00000  Uiso   1.00
C461   C     0.21421   0.62492   0.46769   0.00000  Uiso   1.00
C462   C     0.18169   0.69966   0.47035   0.00000  Uiso   1.00
C463   C     0.18007   0.81508   0.45740   0.00000  Uiso   1.00
C464   C     0.14787   0.86814   0.46248   0.00000  Uiso   1.00
C465   C     0.10186   0.99335   0.46394   0.00000  Uiso   1.00
C466   C     0.20509   0.52519   0.43031   0.00000  Uiso   1.00
C467   C     0.22315   0.49391   0.38371   0.00000  Uiso   1.00
C468   C     0.21065   0.40010   0.35509   0.00000  Uiso   1.00
C469   C     0.20099   0.25440   0.29441   0.00000  Uiso   1.00
C470   C     0.21863   0.57383   0.52436   0.00000  Uiso   1.00
C471   C     0.24807   0.58341   0.55682   0.00000  Uiso   1.00
C472   C     0.24697   0.53051   0.60738   0.00000  Uiso   1.00
C473   C     0.25833   0.46033   0.69272   0.00000  Uiso   1.00
C474   C     0.15991   0.51391   0.49974   0.00000  Uiso   1.00
C475   C     0.15220   0.63936   0.48776   0.00000  Uiso   1.00
C476   C     0.11999   0.69227   0.49286   0.00000  Uiso   1.00
C477   C     0.11832   0.80774   0.47992   0.00000  Uiso   1.00
C478   C     0.17560   0.46490   0.44772   0.00000  Uiso   1.00
C479   C     0.16307   0.37110   0.41916   0.00000  Uiso   1.00
C480   C     0.18111   0.33970   0.37252   0.00000  Uiso   1.00
C481   C     0.18913   0.51353   0.54177   0.00000  Uiso   1.00
C482   C     0.18799   0.46060   0.59228   0.00000  Uiso   1.00
C483   C     0.21743   0.47011   0.62482   0.00000  Uiso   1.00
H484   H     0.23717   0.67185   0.45413   0.00000  Uiso   1.00
H485   H     0.20290   0.86170   0.44393   0.00000  Uiso   1.00
H486   H     0.24597   0.54058   0.37025   0.00000  Uiso   1.00
H487   H     0.27089   0.63007   0.54334   0.00000  Uiso   1.00
H488   H     0.15189   0.04559   0.44027   0.00000  Uiso   1.00
H489   H     0.24273   0.36847   0.28492   0.00000  Uiso   1.00
H490   H     0.29527   0.55717   0.64991   0.00000  Uiso   1.00
H491   H     0.13694   0.46697   0.51329   0.00000  Uiso   1.00
H492   H     0.09717   0.64558   0.50633   0.00000  Uiso   1.00
H493   H     0.14025   0.32446   0.43265   0.00000  Uiso   1.00
H494   H     0.16516   0.41395   0.60574   0.00000  Uiso   1.00
H495   H     0.06608   0.87018   0.49092   0.00000  Uiso   1.00
H496   H     0.15692   0.19305   0.33557   0.00000  Uiso   1.00
H497   H     0.20946   0.38176   0.70056   0.00000  Uiso   1.00
O498   O     0.08463   0.07907   0.45993   0.00000  Uiso   1.00
O499   O     0.20381   0.19070   0.25612   0.00000  Uiso   1.00
O500   O     0.27274   0.43828   0.73499   0.00000  Uiso   1.00
N501   N     0.13715   0.97980   0.45316   0.00000  Uiso   1.00
N502   N     0.22208   0.34674   0.30791   0.00000  Uiso   1.00
N503   N     0.27121   0.52314   0.64914   0.00000  Uiso   1.00
N504   N     0.09098   0.88541   0.48041   0.00000  Uiso   1.00
N505   N     0.17591   0.25235   0.33516   0.00000  Uiso   1.00
N506   N     0.22503   0.42875   0.67639   0.00000  Uiso   1.00
C507   C     0.21421   0.12492   0.96769   0.00000  Uiso   1.00
C508   C     0.18169   0.19966   0.97035   0.00000  Uiso   1.00
C509   C     0.18007   0.31508   0.95740   0.00000  Uiso   1.00
C510   C     0.14787   0.36814   0.96248   0.00000  Uiso   1.00
C511   C     0.10186   0.49335   0.96394   0.00000  Uiso   1.00
C512   C     0.20509   0.02519   0.93031   0.00000  Uiso   1.00
C513   C     0.22315   0.99391   0.88371   0.00000  Uiso   1.00
C514   C     0.21065   0.90010   0.85509   0.00000  Uiso   1.00
C515   C     0.20099   0.75440   0.79441   0.00000  Uiso   1.00
C516   C     0.21863   0.07383   0.02436   0.00000  Uiso   1.00
C517   C     0.24807   0.08341   0.05682   0.00000  Uiso   1.00
C518   C     0.24697   0.03051   0.10738   0.00000  Uiso   1.00
C519   C     0.25833   0.96033   0.19272   0.00000  Uiso   1.00
C520   C     0.15991   0.01391   0.99974   0.00000  Uiso   1.00
C521   C     0.15220   0.13936   0.98776   0.00000  Uiso   1.00
C522   C     0.11999   0.19227   0.99286   0.00000  Uiso   1.00
C523   C     0.11832   0.30774   0.97992   0.00000  Uiso   1.00
C524   C     0.17560   0.96490   0.94772   0.00000  Uiso   1.00
C525   C     0.16307   0.87110   0.91916   0.00000  Uiso   1.00
C526   C     0.18111   0.83970   0.87252   0.00000  Uiso   1.00
C527   C     0.18913   0.01353   0.04177   0.00000  Uiso   1.00
C528   C     0.18799   0.96060   0.09228   0.00000  Uiso   1.00
C529   C     0.21743   0.97011   0.12482   0.00000  Uiso   1.00
H530   H     0.23717   0.17185   0.95413   0.00000  Uiso   1.00
H531   H     0.20290   0.36170   0.94393   0.00000  Uiso   1.00
H532   H     0.24597   0.04058   0.87025   0.00000  Uiso   1.00
H533   H     0.27089   0.13007   0.04334   0.00000  Uiso   1.00
H534   H     0.15189   0.54559   0.94027   0.00000  Uiso   1.00
H535   H     0.24273   0.86847   0.78492   0.00000  Uiso   1.00
H536   H     0.29527   0.05717   0.14991   0.00000  Uiso   1.00
H537   H     0.13694   0.96697   0.01329   0.00000  Uiso   1.00
H538   H     0.09717   0.14558   0.00633   0.00000  Uiso   1.00
H539   H     0.14025   0.82446   0.93265   0.00000  Uiso   1.00
H540   H     0.16516   0.91395   0.10574   0.00000  Uiso   1.00
H541   H     0.06608   0.37018   0.99092   0.00000  Uiso   1.00
H542   H     0.15692   0.69305   0.83557   0.00000  Uiso   1.00
H543   H     0.20946   0.88176   0.20056   0.00000  Uiso   1.00
O544   O     0.08463   0.57907   0.95993   0.00000  Uiso   1.00
O545   O     0.20381   0.69070   0.75612   0.00000  Uiso   1.00
O546   O     0.27274   0.93828   0.23499   0.00000  Uiso   1.00
N547   N     0.13715   0.47980   0.95316   0.00000  Uiso   1.00
N548   N     0.22208   0.84674   0.80791   0.00000  Uiso   1.00
N549   N     0.27121   0.02314   0.14914   0.00000  Uiso   1.00
N550   N     0.09098   0.38541   0.98041   0.00000  Uiso   1.00
N551   N     0.17591   0.75235   0.83516   0.00000  Uiso   1.00
N552   N     0.22503   0.92875   0.17639   0.00000  Uiso   1.00
C553   C     0.78579   0.87508   0.96769   0.00000  Uiso   1.00
C554   C     0.81831   0.80034   0.97035   0.00000  Uiso   1.00
C555   C     0.81993   0.68492   0.95740   0.00000  Uiso   1.00
C556   C     0.85213   0.63186   0.96248   0.00000  Uiso   1.00
C557   C     0.89814   0.50665   0.96394   0.00000  Uiso   1.00
C558   C     0.79491   0.97481   0.93031   0.00000  Uiso   1.00
C559   C     0.77685   0.00609   0.88371   0.00000  Uiso   1.00
C560   C     0.78935   0.09990   0.85509   0.00000  Uiso   1.00
C561   C     0.79901   0.24560   0.79441   0.00000  Uiso   1.00
C562   C     0.78137   0.92617   0.02436   0.00000  Uiso   1.00
C563   C     0.75193   0.91659   0.05682   0.00000  Uiso   1.00
C564   C     0.75303   0.96949   0.10738   0.00000  Uiso   1.00
C565   C     0.74167   0.03967   0.19272   0.00000  Uiso   1.00
C566   C     0.84009   0.98609   0.99974   0.00000  Uiso   1.00
C567   C     0.84780   0.86064   0.98776   0.00000  Uiso   1.00
C568   C     0.88001   0.80773   0.99286   0.00000  Uiso   1.00
C569   C     0.88168   0.69226   0.97992   0.00000  Uiso   1.00
C570   C     0.82440   0.03510   0.94772   0.00000  Uiso   1.00
C571   C     0.83693   0.12890   0.91916   0.00000  Uiso   1.00
C572   C     0.81889   0.16030   0.87252   0.00000  Uiso   1.00
C573   C     0.81087   0.98647   0.04177   0.00000  Uiso   1.00
C574   C     0.81201   0.03940   0.09228   0.00000  Uiso   1.00
C575   C     0.78257   0.02989   0.12482   0.00000  Uiso   1.00
H576   H     0.76283   0.82815   0.95413   0.00000  Uiso   1.00
H577   H     0.79710   0.63830   0.94393   0.00000  Uiso   1.00
H578   H     0.75403   0.95942   0.87025   0.00000  Uiso   1.00
H579   H     0.72911   0.86993   0.04334   0.00000  Uiso   1.00
H580   H     0.84811   0.45441   0.94027   0.00000  Uiso   1.00
H581   H     0.75727   0.13153   0.78492   0.00000  Uiso   1.00
H582   H     0.70473   0.94283   0.14991   0.00000  Uiso   1.00
H583   H     0.86306   0.03303   0.01329   0.00000  Uiso   1.00
H584   H     0.90283   0.85442   0.00633   0.00000  Uiso   1.00
H585   H     0.85975   0.17554   0.93265   0.00000  Uiso   1.00
H586   H     0.83484   0.08605   0.10574   0.00000  Uiso   1.00
H587   H     0.93392   0.62982   0.99092   0.00000  Uiso   1.00
H588   H     0.84308   0.30695   0.83557   0.00000  Uiso   1.00
H589   H     0.79054   0.11824   0.20056   0.00000  Uiso   1.00
O590   O     0.91537   0.42093   0.95993   0.00000  Uiso   1.00
O591   O     0.79619   0.30930   0.75612   0.00000  Uiso   1.00
O592   O     0.72726   0.06172   0.23499   0.00000  Uiso   1.00
N593   N     0.86285   0.52020   0.95316   0.00000  Uiso   1.00
N594   N     0.77792   0.15326   0.80791   0.00000  Uiso   1.00
N595   N     0.72879   0.97686   0.14914   0.00000  Uiso   1.00
N596   N     0.90902   0.61459   0.98041   0.00000  Uiso   1.00
N597   N     0.82409   0.24765   0.83516   0.00000  Uiso   1.00
N598   N     0.77497   0.07125   0.17639   0.00000  Uiso   1.00
C599   C     0.78579   0.37508   0.46769   0.00000  Uiso   1.00
C600   C     0.81831   0.30034   0.47035   0.00000  Uiso   1.00
C601   C     0.81993   0.18492   0.45740   0.00000  Uiso   1.00
C602   C     0.85213   0.13186   0.46248   0.00000  Uiso   1.00
C603   C     0.89814   0.00665   0.46394   0.00000  Uiso   1.00
C604   C     0.79491   0.47481   0.43031   0.00000  Uiso   1.00
C605   C     0.77685   0.50609   0.38371   0.00000  Uiso   1.00
C606   C     0.78935   0.59990   0.35509   0.00000  Uiso   1.00
C607   C     0.79901   0.74560   0.29441   0.00000  Uiso   1.00
C608   C     0.78137   0.42617   0.52436   0.00000  Uiso   1.00
C609   C     0.75193   0.41659   0.55682   0.00000  Uiso   1.00
C610   C     0.75303   0.46949   0.60738   0.00000  Uiso   1.00
C611   C     0.74167   0.53967   0.69272   0.00000  Uiso   1.00
C612   C     0.84009   0.48609   0.49974   0.00000  Uiso   1.00
C613   C     0.84780   0.36064   0.48776   0.00000  Uiso   1.00
C614   C     0.88001   0.30773   0.49286   0.00000  Uiso   1.00
C615   C     0.88168   0.19226   0.47992   0.00000  Uiso   1.00
C616   C     0.82440   0.53510   0.44772   0.00000  Uiso   1.00
C617   C     0.83693   0.62890   0.41916   0.00000  Uiso   1.00
C618   C     0.81889   0.66030   0.37252   0.00000  Uiso   1.00
C619   C     0.81087   0.48647   0.54177   0.00000  Uiso   1.00
C620   C     0.81201   0.53940   0.59228   0.00000  Uiso   1.00
C621   C     0.78257   0.52989   0.62482   0.00000  Uiso   1.00
H622   H     0.76283   0.32815   0.45413   0.00000  Uiso   1.00
H623   H     0.79710   0.13830   0.44393   0.00000  Uiso   1.00
H624   H     0.75403   0.45942   0.37025   0.00000  Uiso   1.00
H625   H     0.72911   0.36993   0.54334   0.00000  Uiso   1.00
H626   H     0.84811   0.95441   0.44027   0.00000  Uiso   1.00
H627   H     0.75727   0.63153   0.28492   0.00000  Uiso   1.00
H628   H     0.70473   0.44283   0.64991   0.00000  Uiso   1.00
H629   H     0.86306   0.53303   0.51329   0.00000  Uiso   1.00
H630   H     0.90283   0.35442   0.50633   0.00000  Uiso   1.00
H631   H     0.85975   0.67554   0.43265   0.00000  Uiso   1.00
H632   H     0.83484   0.58605   0.60574   0.00000  Uiso   1.00
H633   H     0.93392   0.12982   0.49092   0.00000  Uiso   1.00
H634   H     0.84308   0.80695   0.33557   0.00000  Uiso   1.00
H635   H     0.79054   0.61824   0.70056   0.00000  Uiso   1.00
O636   O     0.91537   0.92093   0.45993   0.00000  Uiso   1.00
O637   O     0.79619   0.80930   0.25612   0.00000  Uiso   1.00
O638   O     0.72726   0.56172   0.73499   0.00000  Uiso   1.00
N639   N     0.86285   0.02020   0.45316   0.00000  Uiso   1.00
N640   N     0.77792   0.65326   0.30791   0.00000  Uiso   1.00
N641   N     0.72879   0.47686   0.64914   0.00000  Uiso   1.00
N642   N     0.90902   0.11459   0.48041   0.00000  Uiso   1.00
N643   N     0.82409   0.74765   0.33516   0.00000  Uiso   1.00
N644   N     0.77497   0.57125   0.67639   0.00000  Uiso   1.00
C645   C     0.28579   0.87508   0.46769   0.00000  Uiso   1.00
C646   C     0.31831   0.80034   0.47035   0.00000  Uiso   1.00
C647   C     0.31993   0.68492   0.45740   0.00000  Uiso   1.00
C648   C     0.35213   0.63186   0.46248   0.00000  Uiso   1.00
C649   C     0.39814   0.50665   0.46394   0.00000  Uiso   1.00
C650   C     0.29491   0.97481   0.43031   0.00000  Uiso   1.00
C651   C     0.27685   0.00609   0.38371   0.00000  Uiso   1.00
C652   C     0.28935   0.09990   0.35509   0.00000  Uiso   1.00
C653   C     0.29901   0.24560   0.29441   0.00000  Uiso   1.00
C654   C     0.28137   0.92617   0.52436   0.00000  Uiso   1.00
C655   C     0.25193   0.91659   0.55682   0.00000  Uiso   1.00
C656   C     0.25303   0.96949   0.60738   0.00000  Uiso   1.00
C657   C     0.24167   0.03967   0.69272   0.00000  Uiso   1.00
C658   C     0.34009   0.98609   0.49974   0.00000  Uiso   1.00
C659   C     0.34780   0.86064   0.48776   0.00000  Uiso   1.00
C660   C     0.38001   0.80773   0.49286   0.00000  Uiso   1.00
C661   C     0.38168   0.69226   0.47992   0.00000  Uiso   1.00
C662   C     0.32440   0.03510   0.44772   0.00000  Uiso   1.00
C663   C     0.33693   0.12890   0.41916   0.00000  Uiso   1.00
C664   C     0.31889   0.16030   0.37252   0.00000  Uiso   1.00
C665   C     0.31087   0.98647   0.54177   0.00000  Uiso   1.00
C666   C     0.31201   0.03940   0.59228   0.00000  Uiso   1.00
C667   C     0.28257   0.02989   0.62482   0.00000  Uiso   1.00
H668   H     0.26283   0.82815   0.45413   0.00000  Uiso   1.00
H669   H     0.29710   0.63830   0.44393   0.00000  Uiso   1.00
H670   H     0.25403   0.95942   0.37025   0.00000  Uiso   1.00
H671   H     0.22911   0.86993   0.54334   0.00000  Uiso   1.00
H672   H     0.34811   0.45441   0.44027   0.00000  Uiso   1.00
H673   H     0.25727   0.13153   0.28492   0.00000  Uiso   1.00
H674   H     0.20473   0.94283   0.64991   0.00000  Uiso   1.00
H675   H     0.36306   0.03303   0.51329   0.00000  Uiso   1.00
H676   H     0.40283   0.85442   0.50633   0.00000  Uiso   1.00
H677   H     0.35975   0.17554   0.43265   0.00000  Uiso   1.00
H678   H     0.33484   0.08605   0.60574   0.00000  Uiso   1.00
H679   H     0.43392   0.62982   0.49092   0.00000  Uiso   1.00
H680   H     0.34308   0.30695   0.33557   0.00000  Uiso   1.00
H681   H     0.29054   0.11824   0.70056   0.00000  Uiso   1.00
O682   O     0.41537   0.42093   0.45993   0.00000  Uiso   1.00
O683   O     0.29619   0.30930   0.25612   0.00000  Uiso   1.00
O684   O     0.22726   0.06172   0.73499   0.00000  Uiso   1.00
N685   N     0.36285   0.52020   0.45316   0.00000  Uiso   1.00
N686   N     0.27792   0.15326   0.30791   0.00000  Uiso   1.00
N687   N     0.22879   0.97686   0.64914   0.00000  Uiso   1.00
N688   N     0.40902   0.61459   0.48041   0.00000  Uiso   1.00
N689   N     0.32409   0.24765   0.33516   0.00000  Uiso   1.00
N690   N     0.27497   0.07125   0.67639   0.00000  Uiso   1.00
C691   C     0.28579   0.37508   0.96769   0.00000  Uiso   1.00
C692   C     0.31831   0.30034   0.97035   0.00000  Uiso   1.00
C693   C     0.31993   0.18492   0.95740   0.00000  Uiso   1.00
C694   C     0.35213   0.13186   0.96248   0.00000  Uiso   1.00
C695   C     0.39814   0.00665   0.96394   0.00000  Uiso   1.00
C696   C     0.29491   0.47481   0.93031   0.00000  Uiso   1.00
C697   C     0.27685   0.50609   0.88371   0.00000  Uiso   1.00
C698   C     0.28935   0.59990   0.85509   0.00000  Uiso   1.00
C699   C     0.29901   0.74560   0.79441   0.00000  Uiso   1.00
C700   C     0.28137   0.42617   0.02436   0.00000  Uiso   1.00
C701   C     0.25193   0.41659   0.05682   0.00000  Uiso   1.00
C702   C     0.25303   0.46949   0.10738   0.00000  Uiso   1.00
C703   C     0.24167   0.53967   0.19272   0.00000  Uiso   1.00
C704   C     0.34009   0.48609   0.99974   0.00000  Uiso   1.00
C705   C     0.34780   0.36064   0.98776   0.00000  Uiso   1.00
C706   C     0.38001   0.30773   0.99286   0.00000  Uiso   1.00
C707   C     0.38168   0.19226   0.97992   0.00000  Uiso   1.00
C708   C     0.32440   0.53510   0.94772   0.00000  Uiso   1.00
C709   C     0.33693   0.62890   0.91916   0.00000  Uiso   1.00
C710   C     0.31889   0.66030   0.87252   0.00000  Uiso   1.00
C711   C     0.31087   0.48647   0.04177   0.00000  Uiso   1.00
C712   C     0.31201   0.53940   0.09228   0.00000  Uiso   1.00
C713   C     0.28257   0.52989   0.12482   0.00000  Uiso   1.00
H714   H     0.26283   0.32815   0.95413   0.00000  Uiso   1.00
H715   H     0.29710   0.13830   0.94393   0.00000  Uiso   1.00
H716   H     0.25403   0.45942   0.87025   0.00000  Uiso   1.00
H717   H     0.22911   0.36993   0.04334   0.00000  Uiso   1.00
H718   H     0.34811   0.95441   0.94027   0.00000  Uiso   1.00
H719   H     0.25727   0.63153   0.78492   0.00000  Uiso   1.00
H720   H     0.20473   0.44283   0.14991   0.00000  Uiso   1.00
H721   H     0.36306   0.53303   0.01329   0.00000  Uiso   1.00
H722   H     0.40283   0.35442   0.00633   0.00000  Uiso   1.00
H723   H     0.35975   0.67554   0.93265   0.00000  Uiso   1.00
H724   H     0.33484   0.58605   0.10574   0.00000  Uiso   1.00
H725   H     0.43392   0.12982   0.99092   0.00000  Uiso   1.00
H726   H     0.34308   0.80695   0.83557   0.00000  Uiso   1.00
H727   H     0.29054   0.61824   0.20056   0.00000  Uiso   1.00
O728   O     0.41537   0.92093   0.95993   0.00000  Uiso   1.00
O729   O     0.29619   0.80930   0.75612   0.00000  Uiso   1.00
O730   O     0.22726   0.56172   0.23499   0.00000  Uiso   1.00
N731   N     0.36285   0.02020   0.95316   0.00000  Uiso   1.00
N732   N     0.27792   0.65326   0.80791   0.00000  Uiso   1.00
N733   N     0.22879   0.47686   0.14914   0.00000  Uiso   1.00
N734   N     0.40902   0.11459   0.98041   0.00000  Uiso   1.00
N735   N     0.32409   0.74765   0.83516   0.00000  Uiso   1.00
N736   N     0.27497   0.57125   0.17639   0.00000  Uiso   1.00
