data_job_05685
_audit_creation_date              2018-12-19
_audit_creation_method            'Materials Studio'
_symmetry_space_group_name_H-M    'P1'
_symmetry_Int_Tables_number       1
_symmetry_cell_setting            triclinic
loop_
_symmetry_equiv_pos_as_xyz
  x,y,z
_cell_length_a                    17.4951
_cell_length_b                    46.1318
_cell_length_c                    12.1450
_cell_angle_alpha                 90.0000
_cell_angle_beta                  90.0000
_cell_angle_gamma                 90.0000
loop_
_atom_site_label
_atom_site_type_symbol
_atom_site_fract_x
_atom_site_fract_y
_atom_site_fract_z
_atom_site_U_iso_or_equiv
_atom_site_adp_type
_atom_site_occupancy
C1     C     0.81700   0.92009   0.77247   0.00000  Uiso   1.00
C2     C     0.80306   0.90294   0.66703   0.00000  Uiso   1.00
C3     C     0.78105   0.87408   0.66134   0.00000  Uiso   1.00
C4     C     0.77125   0.86235   0.55702   0.00000  Uiso   1.00
C5     C     0.74783   0.83319   0.40777   0.00000  Uiso   1.00
C6     C     0.89832   0.93179   0.76399   0.00000  Uiso   1.00
C7     C     0.95640   0.92719   0.83983   0.00000  Uiso   1.00
C8     C     0.02678   0.93974   0.81714   0.00000  Uiso   1.00
C9     C     0.15124   0.95540   0.81846   0.00000  Uiso   1.00
C10    C     0.76454   0.94644   0.76635   0.00000  Uiso   1.00
C11    C     0.71015   0.95416   0.84420   0.00000  Uiso   1.00
C12    C     0.66791   0.97905   0.82351   0.00000  Uiso   1.00
C13    C     0.58466   0.01744   0.82851   0.00000  Uiso   1.00
C14    C     0.83873   0.95058   0.59731   0.00000  Uiso   1.00
C15    C     0.81486   0.91950   0.57189   0.00000  Uiso   1.00
C16    C     0.80508   0.90781   0.46755   0.00000  Uiso   1.00
C17    C     0.78306   0.87894   0.46171   0.00000  Uiso   1.00
C18    C     0.91011   0.94835   0.66886   0.00000  Uiso   1.00
C19    C     0.98043   0.96092   0.64605   0.00000  Uiso   1.00
C20    C     0.03860   0.95633   0.72183   0.00000  Uiso   1.00
C21    C     0.77633   0.96300   0.67122   0.00000  Uiso   1.00
C22    C     0.73418   0.98789   0.65041   0.00000  Uiso   1.00
C23    C     0.67973   0.99564   0.72821   0.00000  Uiso   1.00
H24    H     0.80783   0.90720   0.84653   0.00000  Uiso   1.00
H25    H     0.77193   0.86127   0.73498   0.00000  Uiso   1.00
H26    H     0.94725   0.91437   0.91345   0.00000  Uiso   1.00
H27    H     0.70104   0.94134   0.91781   0.00000  Uiso   1.00
H28    H     0.73737   0.81765   0.56935   0.00000  Uiso   1.00
H29    H     0.10702   0.92963   0.94568   0.00000  Uiso   1.00
H30    H     0.58784   0.98648   0.95488   0.00000  Uiso   1.00
H31    H     0.84791   0.96348   0.52324   0.00000  Uiso   1.00
H32    H     0.81422   0.92063   0.39395   0.00000  Uiso   1.00
H33    H     0.98953   0.97373   0.57242   0.00000  Uiso   1.00
H34    H     0.74332   0.00070   0.57678   0.00000  Uiso   1.00
H35    H     0.77169   0.86583   0.29255   0.00000  Uiso   1.00
H36    H     0.14135   0.97781   0.66889   0.00000  Uiso   1.00
H37    H     0.62216   0.03466   0.67809   0.00000  Uiso   1.00
O38    O     0.73167   0.81253   0.35173   0.00000  Uiso   1.00
O39    O     0.21663   0.95945   0.84547   0.00000  Uiso   1.00
O40    O     0.53547   0.03405   0.85754   0.00000  Uiso   1.00
N41    N     0.75006   0.83487   0.52195   0.00000  Uiso   1.00
N42    N     0.09567   0.93956   0.87379   0.00000  Uiso   1.00
N43    N     0.61028   0.99272   0.88241   0.00000  Uiso   1.00
N44    N     0.76852   0.86079   0.37301   0.00000  Uiso   1.00
N45    N     0.11413   0.96548   0.72485   0.00000  Uiso   1.00
N46    N     0.62875   0.01864   0.73346   0.00000  Uiso   1.00
C47    C     0.81700   0.42009   0.27247   0.00000  Uiso   1.00
C48    C     0.80306   0.40294   0.16703   0.00000  Uiso   1.00
C49    C     0.78105   0.37408   0.16134   0.00000  Uiso   1.00
C50    C     0.77125   0.36235   0.05702   0.00000  Uiso   1.00
C51    C     0.74783   0.33319   0.90777   0.00000  Uiso   1.00
C52    C     0.89832   0.43179   0.26399   0.00000  Uiso   1.00
C53    C     0.95640   0.42719   0.33983   0.00000  Uiso   1.00
C54    C     0.02678   0.43974   0.31714   0.00000  Uiso   1.00
C55    C     0.15124   0.45540   0.31846   0.00000  Uiso   1.00
C56    C     0.76454   0.44644   0.26635   0.00000  Uiso   1.00
C57    C     0.71015   0.45416   0.34420   0.00000  Uiso   1.00
C58    C     0.66791   0.47905   0.32351   0.00000  Uiso   1.00
C59    C     0.58466   0.51744   0.32851   0.00000  Uiso   1.00
C60    C     0.83873   0.45058   0.09731   0.00000  Uiso   1.00
C61    C     0.81486   0.41950   0.07189   0.00000  Uiso   1.00
C62    C     0.80508   0.40781   0.96755   0.00000  Uiso   1.00
C63    C     0.78306   0.37894   0.96171   0.00000  Uiso   1.00
C64    C     0.91011   0.44835   0.16886   0.00000  Uiso   1.00
C65    C     0.98043   0.46092   0.14605   0.00000  Uiso   1.00
C66    C     0.03860   0.45633   0.22183   0.00000  Uiso   1.00
C67    C     0.77633   0.46300   0.17122   0.00000  Uiso   1.00
C68    C     0.73418   0.48789   0.15041   0.00000  Uiso   1.00
C69    C     0.67973   0.49564   0.22821   0.00000  Uiso   1.00
H70    H     0.80783   0.40720   0.34653   0.00000  Uiso   1.00
H71    H     0.77193   0.36127   0.23498   0.00000  Uiso   1.00
H72    H     0.94725   0.41437   0.41345   0.00000  Uiso   1.00
H73    H     0.70104   0.44134   0.41781   0.00000  Uiso   1.00
H74    H     0.73737   0.31765   0.06935   0.00000  Uiso   1.00
H75    H     0.10702   0.42963   0.44568   0.00000  Uiso   1.00
H76    H     0.58784   0.48648   0.45488   0.00000  Uiso   1.00
H77    H     0.84791   0.46348   0.02324   0.00000  Uiso   1.00
H78    H     0.81422   0.42063   0.89395   0.00000  Uiso   1.00
H79    H     0.98953   0.47373   0.07242   0.00000  Uiso   1.00
H80    H     0.74332   0.50070   0.07678   0.00000  Uiso   1.00
H81    H     0.77169   0.36583   0.79255   0.00000  Uiso   1.00
H82    H     0.14135   0.47781   0.16889   0.00000  Uiso   1.00
H83    H     0.62216   0.53466   0.17809   0.00000  Uiso   1.00
O84    O     0.73167   0.31253   0.85173   0.00000  Uiso   1.00
O85    O     0.21663   0.45945   0.34547   0.00000  Uiso   1.00
O86    O     0.53547   0.53405   0.35754   0.00000  Uiso   1.00
N87    N     0.75006   0.33487   0.02195   0.00000  Uiso   1.00
N88    N     0.09567   0.43956   0.37379   0.00000  Uiso   1.00
N89    N     0.61028   0.49272   0.38241   0.00000  Uiso   1.00
N90    N     0.76852   0.36079   0.87301   0.00000  Uiso   1.00
N91    N     0.11413   0.46548   0.22485   0.00000  Uiso   1.00
N92    N     0.62875   0.51864   0.23346   0.00000  Uiso   1.00
C93    C     0.31700   0.92009   0.27247   0.00000  Uiso   1.00
C94    C     0.30306   0.90294   0.16703   0.00000  Uiso   1.00
C95    C     0.28105   0.87408   0.16134   0.00000  Uiso   1.00
C96    C     0.27125   0.86235   0.05702   0.00000  Uiso   1.00
C97    C     0.24783   0.83319   0.90777   0.00000  Uiso   1.00
C98    C     0.39832   0.93179   0.26399   0.00000  Uiso   1.00
C99    C     0.45640   0.92719   0.33983   0.00000  Uiso   1.00
C100   C     0.52678   0.93974   0.31714   0.00000  Uiso   1.00
C101   C     0.65124   0.95540   0.31846   0.00000  Uiso   1.00
C102   C     0.26454   0.94644   0.26635   0.00000  Uiso   1.00
C103   C     0.21015   0.95416   0.34420   0.00000  Uiso   1.00
C104   C     0.16791   0.97905   0.32351   0.00000  Uiso   1.00
C105   C     0.08466   0.01744   0.32851   0.00000  Uiso   1.00
C106   C     0.33873   0.95058   0.09731   0.00000  Uiso   1.00
C107   C     0.31486   0.91950   0.07189   0.00000  Uiso   1.00
C108   C     0.30508   0.90781   0.96755   0.00000  Uiso   1.00
C109   C     0.28306   0.87894   0.96171   0.00000  Uiso   1.00
C110   C     0.41011   0.94835   0.16886   0.00000  Uiso   1.00
C111   C     0.48043   0.96092   0.14605   0.00000  Uiso   1.00
C112   C     0.53860   0.95633   0.22183   0.00000  Uiso   1.00
C113   C     0.27633   0.96300   0.17122   0.00000  Uiso   1.00
C114   C     0.23418   0.98789   0.15041   0.00000  Uiso   1.00
C115   C     0.17973   0.99564   0.22821   0.00000  Uiso   1.00
H116   H     0.30783   0.90720   0.34653   0.00000  Uiso   1.00
H117   H     0.27193   0.86127   0.23498   0.00000  Uiso   1.00
H118   H     0.44725   0.91437   0.41345   0.00000  Uiso   1.00
H119   H     0.20104   0.94134   0.41781   0.00000  Uiso   1.00
H120   H     0.23737   0.81765   0.06935   0.00000  Uiso   1.00
H121   H     0.60702   0.92963   0.44568   0.00000  Uiso   1.00
H122   H     0.08784   0.98648   0.45488   0.00000  Uiso   1.00
H123   H     0.34791   0.96348   0.02324   0.00000  Uiso   1.00
H124   H     0.31422   0.92063   0.89395   0.00000  Uiso   1.00
H125   H     0.48953   0.97373   0.07242   0.00000  Uiso   1.00
H126   H     0.24332   0.00070   0.07678   0.00000  Uiso   1.00
H127   H     0.27169   0.86583   0.79255   0.00000  Uiso   1.00
H128   H     0.64135   0.97781   0.16889   0.00000  Uiso   1.00
H129   H     0.12216   0.03466   0.17809   0.00000  Uiso   1.00
O130   O     0.23167   0.81253   0.85173   0.00000  Uiso   1.00
O131   O     0.71663   0.95945   0.34547   0.00000  Uiso   1.00
O132   O     0.03547   0.03405   0.35754   0.00000  Uiso   1.00
N133   N     0.25006   0.83487   0.02195   0.00000  Uiso   1.00
N134   N     0.59567   0.93956   0.37379   0.00000  Uiso   1.00
N135   N     0.11028   0.99272   0.38241   0.00000  Uiso   1.00
N136   N     0.26852   0.86079   0.87301   0.00000  Uiso   1.00
N137   N     0.61413   0.96548   0.22485   0.00000  Uiso   1.00
N138   N     0.12875   0.01864   0.23346   0.00000  Uiso   1.00
C139   C     0.31700   0.42009   0.77247   0.00000  Uiso   1.00
C140   C     0.30306   0.40294   0.66703   0.00000  Uiso   1.00
C141   C     0.28105   0.37408   0.66134   0.00000  Uiso   1.00
C142   C     0.27125   0.36235   0.55702   0.00000  Uiso   1.00
C143   C     0.24783   0.33319   0.40777   0.00000  Uiso   1.00
C144   C     0.39832   0.43179   0.76399   0.00000  Uiso   1.00
C145   C     0.45640   0.42719   0.83983   0.00000  Uiso   1.00
C146   C     0.52678   0.43974   0.81714   0.00000  Uiso   1.00
C147   C     0.65124   0.45540   0.81846   0.00000  Uiso   1.00
C148   C     0.26454   0.44644   0.76635   0.00000  Uiso   1.00
C149   C     0.21015   0.45416   0.84420   0.00000  Uiso   1.00
C150   C     0.16791   0.47905   0.82351   0.00000  Uiso   1.00
C151   C     0.08466   0.51744   0.82851   0.00000  Uiso   1.00
C152   C     0.33873   0.45058   0.59731   0.00000  Uiso   1.00
C153   C     0.31486   0.41950   0.57189   0.00000  Uiso   1.00
C154   C     0.30508   0.40781   0.46755   0.00000  Uiso   1.00
C155   C     0.28306   0.37894   0.46171   0.00000  Uiso   1.00
C156   C     0.41011   0.44835   0.66886   0.00000  Uiso   1.00
C157   C     0.48043   0.46092   0.64605   0.00000  Uiso   1.00
C158   C     0.53860   0.45633   0.72183   0.00000  Uiso   1.00
C159   C     0.27633   0.46300   0.67122   0.00000  Uiso   1.00
C160   C     0.23418   0.48789   0.65041   0.00000  Uiso   1.00
C161   C     0.17973   0.49564   0.72821   0.00000  Uiso   1.00
H162   H     0.30783   0.40720   0.84653   0.00000  Uiso   1.00
H163   H     0.27193   0.36127   0.73498   0.00000  Uiso   1.00
H164   H     0.44725   0.41437   0.91345   0.00000  Uiso   1.00
H165   H     0.20104   0.44134   0.91781   0.00000  Uiso   1.00
H166   H     0.23737   0.31765   0.56935   0.00000  Uiso   1.00
H167   H     0.60702   0.42963   0.94568   0.00000  Uiso   1.00
H168   H     0.08784   0.48648   0.95488   0.00000  Uiso   1.00
H169   H     0.34791   0.46348   0.52324   0.00000  Uiso   1.00
H170   H     0.31422   0.42063   0.39395   0.00000  Uiso   1.00
H171   H     0.48953   0.47373   0.57242   0.00000  Uiso   1.00
H172   H     0.24332   0.50070   0.57678   0.00000  Uiso   1.00
H173   H     0.27169   0.36583   0.29255   0.00000  Uiso   1.00
H174   H     0.64135   0.47781   0.66889   0.00000  Uiso   1.00
H175   H     0.12216   0.53466   0.67809   0.00000  Uiso   1.00
O176   O     0.23167   0.31253   0.35173   0.00000  Uiso   1.00
O177   O     0.71663   0.45945   0.84547   0.00000  Uiso   1.00
O178   O     0.03547   0.53405   0.85754   0.00000  Uiso   1.00
N179   N     0.25006   0.33487   0.52195   0.00000  Uiso   1.00
N180   N     0.59567   0.43956   0.87379   0.00000  Uiso   1.00
N181   N     0.11028   0.49272   0.88241   0.00000  Uiso   1.00
N182   N     0.26852   0.36079   0.37301   0.00000  Uiso   1.00
N183   N     0.61413   0.46548   0.72485   0.00000  Uiso   1.00
N184   N     0.12875   0.51864   0.73346   0.00000  Uiso   1.00
C185   C     0.18300   0.07991   0.77247   0.00000  Uiso   1.00
C186   C     0.19694   0.09706   0.66703   0.00000  Uiso   1.00
C187   C     0.21895   0.12592   0.66134   0.00000  Uiso   1.00
C188   C     0.22875   0.13765   0.55702   0.00000  Uiso   1.00
C189   C     0.25217   0.16681   0.40777   0.00000  Uiso   1.00
C190   C     0.10168   0.06821   0.76399   0.00000  Uiso   1.00
C191   C     0.04360   0.07281   0.83983   0.00000  Uiso   1.00
C192   C     0.97322   0.06026   0.81714   0.00000  Uiso   1.00
C193   C     0.84876   0.04460   0.81846   0.00000  Uiso   1.00
C194   C     0.23546   0.05356   0.76635   0.00000  Uiso   1.00
C195   C     0.28985   0.04584   0.84420   0.00000  Uiso   1.00
C196   C     0.33209   0.02095   0.82351   0.00000  Uiso   1.00
C197   C     0.41534   0.98256   0.82851   0.00000  Uiso   1.00
C198   C     0.16127   0.04942   0.59731   0.00000  Uiso   1.00
C199   C     0.18514   0.08050   0.57189   0.00000  Uiso   1.00
C200   C     0.19492   0.09219   0.46755   0.00000  Uiso   1.00
C201   C     0.21694   0.12106   0.46171   0.00000  Uiso   1.00
C202   C     0.08989   0.05165   0.66886   0.00000  Uiso   1.00
C203   C     0.01957   0.03908   0.64605   0.00000  Uiso   1.00
C204   C     0.96140   0.04367   0.72183   0.00000  Uiso   1.00
C205   C     0.22367   0.03700   0.67122   0.00000  Uiso   1.00
C206   C     0.26582   0.01211   0.65041   0.00000  Uiso   1.00
C207   C     0.32027   0.00436   0.72821   0.00000  Uiso   1.00
H208   H     0.19217   0.09280   0.84653   0.00000  Uiso   1.00
H209   H     0.22807   0.13873   0.73498   0.00000  Uiso   1.00
H210   H     0.05275   0.08563   0.91345   0.00000  Uiso   1.00
H211   H     0.29896   0.05866   0.91781   0.00000  Uiso   1.00
H212   H     0.26263   0.18235   0.56935   0.00000  Uiso   1.00
H213   H     0.89298   0.07037   0.94568   0.00000  Uiso   1.00
H214   H     0.41216   0.01352   0.95488   0.00000  Uiso   1.00
H215   H     0.15209   0.03652   0.52324   0.00000  Uiso   1.00
H216   H     0.18578   0.07937   0.39395   0.00000  Uiso   1.00
H217   H     0.01047   0.02627   0.57242   0.00000  Uiso   1.00
H218   H     0.25668   0.99930   0.57678   0.00000  Uiso   1.00
H219   H     0.22831   0.13417   0.29255   0.00000  Uiso   1.00
H220   H     0.85865   0.02219   0.66889   0.00000  Uiso   1.00
H221   H     0.37784   0.96534   0.67809   0.00000  Uiso   1.00
O222   O     0.26833   0.18747   0.35173   0.00000  Uiso   1.00
O223   O     0.78337   0.04055   0.84547   0.00000  Uiso   1.00
O224   O     0.46453   0.96595   0.85754   0.00000  Uiso   1.00
N225   N     0.24994   0.16513   0.52195   0.00000  Uiso   1.00
N226   N     0.90433   0.06044   0.87379   0.00000  Uiso   1.00
N227   N     0.38972   0.00728   0.88241   0.00000  Uiso   1.00
N228   N     0.23148   0.13921   0.37301   0.00000  Uiso   1.00
N229   N     0.88587   0.03452   0.72485   0.00000  Uiso   1.00
N230   N     0.37125   0.98136   0.73346   0.00000  Uiso   1.00
C231   C     0.18300   0.57991   0.27247   0.00000  Uiso   1.00
C232   C     0.19694   0.59706   0.16703   0.00000  Uiso   1.00
C233   C     0.21895   0.62592   0.16134   0.00000  Uiso   1.00
C234   C     0.22875   0.63765   0.05702   0.00000  Uiso   1.00
C235   C     0.25217   0.66681   0.90777   0.00000  Uiso   1.00
C236   C     0.10168   0.56821   0.26399   0.00000  Uiso   1.00
C237   C     0.04360   0.57281   0.33983   0.00000  Uiso   1.00
C238   C     0.97322   0.56026   0.31714   0.00000  Uiso   1.00
C239   C     0.84876   0.54460   0.31846   0.00000  Uiso   1.00
C240   C     0.23546   0.55356   0.26635   0.00000  Uiso   1.00
C241   C     0.28985   0.54584   0.34420   0.00000  Uiso   1.00
C242   C     0.33209   0.52095   0.32351   0.00000  Uiso   1.00
C243   C     0.41534   0.48256   0.32851   0.00000  Uiso   1.00
C244   C     0.16127   0.54942   0.09731   0.00000  Uiso   1.00
C245   C     0.18514   0.58050   0.07189   0.00000  Uiso   1.00
C246   C     0.19492   0.59219   0.96755   0.00000  Uiso   1.00
C247   C     0.21694   0.62106   0.96171   0.00000  Uiso   1.00
C248   C     0.08989   0.55165   0.16886   0.00000  Uiso   1.00
C249   C     0.01957   0.53908   0.14605   0.00000  Uiso   1.00
C250   C     0.96140   0.54367   0.22183   0.00000  Uiso   1.00
C251   C     0.22367   0.53700   0.17122   0.00000  Uiso   1.00
C252   C     0.26582   0.51211   0.15041   0.00000  Uiso   1.00
C253   C     0.32027   0.50436   0.22821   0.00000  Uiso   1.00
H254   H     0.19217   0.59280   0.34653   0.00000  Uiso   1.00
H255   H     0.22807   0.63873   0.23498   0.00000  Uiso   1.00
H256   H     0.05275   0.58563   0.41345   0.00000  Uiso   1.00
H257   H     0.29896   0.55866   0.41781   0.00000  Uiso   1.00
H258   H     0.26263   0.68235   0.06935   0.00000  Uiso   1.00
H259   H     0.89298   0.57037   0.44568   0.00000  Uiso   1.00
H260   H     0.41216   0.51352   0.45488   0.00000  Uiso   1.00
H261   H     0.15209   0.53652   0.02324   0.00000  Uiso   1.00
H262   H     0.18578   0.57937   0.89395   0.00000  Uiso   1.00
H263   H     0.01047   0.52627   0.07242   0.00000  Uiso   1.00
H264   H     0.25668   0.49930   0.07678   0.00000  Uiso   1.00
H265   H     0.22831   0.63417   0.79255   0.00000  Uiso   1.00
H266   H     0.85865   0.52219   0.16889   0.00000  Uiso   1.00
H267   H     0.37784   0.46534   0.17809   0.00000  Uiso   1.00
O268   O     0.26833   0.68747   0.85173   0.00000  Uiso   1.00
O269   O     0.78337   0.54055   0.34547   0.00000  Uiso   1.00
O270   O     0.46453   0.46595   0.35754   0.00000  Uiso   1.00
N271   N     0.24994   0.66513   0.02195   0.00000  Uiso   1.00
N272   N     0.90433   0.56044   0.37379   0.00000  Uiso   1.00
N273   N     0.38972   0.50728   0.38241   0.00000  Uiso   1.00
N274   N     0.23148   0.63921   0.87301   0.00000  Uiso   1.00
N275   N     0.88587   0.53452   0.22485   0.00000  Uiso   1.00
N276   N     0.37125   0.48136   0.23346   0.00000  Uiso   1.00
C277   C     0.68300   0.07991   0.27247   0.00000  Uiso   1.00
C278   C     0.69694   0.09706   0.16703   0.00000  Uiso   1.00
C279   C     0.71895   0.12592   0.16134   0.00000  Uiso   1.00
C280   C     0.72875   0.13765   0.05702   0.00000  Uiso   1.00
C281   C     0.75217   0.16681   0.90777   0.00000  Uiso   1.00
C282   C     0.60168   0.06821   0.26399   0.00000  Uiso   1.00
C283   C     0.54360   0.07281   0.33983   0.00000  Uiso   1.00
C284   C     0.47322   0.06026   0.31714   0.00000  Uiso   1.00
C285   C     0.34876   0.04460   0.31846   0.00000  Uiso   1.00
C286   C     0.73546   0.05356   0.26635   0.00000  Uiso   1.00
C287   C     0.78985   0.04584   0.34420   0.00000  Uiso   1.00
C288   C     0.83209   0.02095   0.32351   0.00000  Uiso   1.00
C289   C     0.91534   0.98256   0.32851   0.00000  Uiso   1.00
C290   C     0.66127   0.04942   0.09731   0.00000  Uiso   1.00
C291   C     0.68514   0.08050   0.07189   0.00000  Uiso   1.00
C292   C     0.69492   0.09219   0.96755   0.00000  Uiso   1.00
C293   C     0.71694   0.12106   0.96171   0.00000  Uiso   1.00
C294   C     0.58989   0.05165   0.16886   0.00000  Uiso   1.00
C295   C     0.51957   0.03908   0.14605   0.00000  Uiso   1.00
C296   C     0.46140   0.04367   0.22183   0.00000  Uiso   1.00
C297   C     0.72367   0.03700   0.17122   0.00000  Uiso   1.00
C298   C     0.76582   0.01211   0.15041   0.00000  Uiso   1.00
C299   C     0.82027   0.00436   0.22821   0.00000  Uiso   1.00
H300   H     0.69217   0.09280   0.34653   0.00000  Uiso   1.00
H301   H     0.72807   0.13873   0.23498   0.00000  Uiso   1.00
H302   H     0.55275   0.08563   0.41345   0.00000  Uiso   1.00
H303   H     0.79896   0.05866   0.41781   0.00000  Uiso   1.00
H304   H     0.76263   0.18235   0.06935   0.00000  Uiso   1.00
H305   H     0.39298   0.07037   0.44568   0.00000  Uiso   1.00
H306   H     0.91216   0.01352   0.45488   0.00000  Uiso   1.00
H307   H     0.65209   0.03652   0.02324   0.00000  Uiso   1.00
H308   H     0.68578   0.07937   0.89395   0.00000  Uiso   1.00
H309   H     0.51047   0.02627   0.07242   0.00000  Uiso   1.00
H310   H     0.75668   0.99930   0.07678   0.00000  Uiso   1.00
H311   H     0.72831   0.13417   0.79255   0.00000  Uiso   1.00
H312   H     0.35865   0.02219   0.16889   0.00000  Uiso   1.00
H313   H     0.87784   0.96534   0.17809   0.00000  Uiso   1.00
O314   O     0.76833   0.18747   0.85173   0.00000  Uiso   1.00
O315   O     0.28337   0.04055   0.34547   0.00000  Uiso   1.00
O316   O     0.96453   0.96595   0.35754   0.00000  Uiso   1.00
N317   N     0.74994   0.16513   0.02195   0.00000  Uiso   1.00
N318   N     0.40433   0.06044   0.37379   0.00000  Uiso   1.00
N319   N     0.88972   0.00728   0.38241   0.00000  Uiso   1.00
N320   N     0.73148   0.13921   0.87301   0.00000  Uiso   1.00
N321   N     0.38587   0.03452   0.22485   0.00000  Uiso   1.00
N322   N     0.87125   0.98136   0.23346   0.00000  Uiso   1.00
C323   C     0.68300   0.57991   0.77247   0.00000  Uiso   1.00
C324   C     0.69694   0.59706   0.66703   0.00000  Uiso   1.00
C325   C     0.71895   0.62592   0.66134   0.00000  Uiso   1.00
C326   C     0.72875   0.63765   0.55702   0.00000  Uiso   1.00
C327   C     0.75217   0.66681   0.40777   0.00000  Uiso   1.00
C328   C     0.60168   0.56821   0.76399   0.00000  Uiso   1.00
C329   C     0.54360   0.57281   0.83983   0.00000  Uiso   1.00
C330   C     0.47322   0.56026   0.81714   0.00000  Uiso   1.00
C331   C     0.34876   0.54460   0.81846   0.00000  Uiso   1.00
C332   C     0.73546   0.55356   0.76635   0.00000  Uiso   1.00
C333   C     0.78985   0.54584   0.84420   0.00000  Uiso   1.00
C334   C     0.83209   0.52095   0.82351   0.00000  Uiso   1.00
C335   C     0.91534   0.48256   0.82851   0.00000  Uiso   1.00
C336   C     0.66127   0.54942   0.59731   0.00000  Uiso   1.00
C337   C     0.68514   0.58050   0.57189   0.00000  Uiso   1.00
C338   C     0.69492   0.59219   0.46755   0.00000  Uiso   1.00
C339   C     0.71694   0.62106   0.46171   0.00000  Uiso   1.00
C340   C     0.58989   0.55165   0.66886   0.00000  Uiso   1.00
C341   C     0.51957   0.53908   0.64605   0.00000  Uiso   1.00
C342   C     0.46140   0.54367   0.72183   0.00000  Uiso   1.00
C343   C     0.72367   0.53700   0.67122   0.00000  Uiso   1.00
C344   C     0.76582   0.51211   0.65041   0.00000  Uiso   1.00
C345   C     0.82027   0.50436   0.72821   0.00000  Uiso   1.00
H346   H     0.69217   0.59280   0.84653   0.00000  Uiso   1.00
H347   H     0.72807   0.63873   0.73498   0.00000  Uiso   1.00
H348   H     0.55275   0.58563   0.91345   0.00000  Uiso   1.00
H349   H     0.79896   0.55866   0.91781   0.00000  Uiso   1.00
H350   H     0.76263   0.68235   0.56935   0.00000  Uiso   1.00
H351   H     0.39298   0.57037   0.94568   0.00000  Uiso   1.00
H352   H     0.91216   0.51352   0.95488   0.00000  Uiso   1.00
H353   H     0.65209   0.53652   0.52324   0.00000  Uiso   1.00
H354   H     0.68578   0.57937   0.39395   0.00000  Uiso   1.00
H355   H     0.51047   0.52627   0.57242   0.00000  Uiso   1.00
H356   H     0.75668   0.49930   0.57678   0.00000  Uiso   1.00
H357   H     0.72831   0.63417   0.29255   0.00000  Uiso   1.00
H358   H     0.35865   0.52219   0.66889   0.00000  Uiso   1.00
H359   H     0.87784   0.46534   0.67809   0.00000  Uiso   1.00
O360   O     0.76833   0.68747   0.35173   0.00000  Uiso   1.00
O361   O     0.28337   0.54055   0.84547   0.00000  Uiso   1.00
O362   O     0.96453   0.46595   0.85754   0.00000  Uiso   1.00
N363   N     0.74994   0.66513   0.52195   0.00000  Uiso   1.00
N364   N     0.40433   0.56044   0.87379   0.00000  Uiso   1.00
N365   N     0.88972   0.50728   0.88241   0.00000  Uiso   1.00
N366   N     0.73148   0.63921   0.37301   0.00000  Uiso   1.00
N367   N     0.38587   0.53452   0.72485   0.00000  Uiso   1.00
N368   N     0.87125   0.48136   0.73346   0.00000  Uiso   1.00
C369   C     0.06700   0.32991   0.02247   0.00000  Uiso   1.00
C370   C     0.05306   0.34706   0.91703   0.00000  Uiso   1.00
C371   C     0.03105   0.37592   0.91134   0.00000  Uiso   1.00
C372   C     0.02125   0.38765   0.80702   0.00000  Uiso   1.00
C373   C     0.99783   0.41681   0.65777   0.00000  Uiso   1.00
C374   C     0.14832   0.31821   0.01399   0.00000  Uiso   1.00
C375   C     0.20640   0.32281   0.08983   0.00000  Uiso   1.00
C376   C     0.27678   0.31026   0.06714   0.00000  Uiso   1.00
C377   C     0.40124   0.29460   0.06846   0.00000  Uiso   1.00
C378   C     0.01454   0.30356   0.01635   0.00000  Uiso   1.00
C379   C     0.96015   0.29584   0.09420   0.00000  Uiso   1.00
C380   C     0.91791   0.27095   0.07351   0.00000  Uiso   1.00
C381   C     0.83466   0.23256   0.07851   0.00000  Uiso   1.00
C382   C     0.08873   0.29942   0.84731   0.00000  Uiso   1.00
C383   C     0.06486   0.33050   0.82189   0.00000  Uiso   1.00
C384   C     0.05508   0.34219   0.71755   0.00000  Uiso   1.00
C385   C     0.03306   0.37106   0.71171   0.00000  Uiso   1.00
C386   C     0.16011   0.30165   0.91886   0.00000  Uiso   1.00
C387   C     0.23043   0.28908   0.89605   0.00000  Uiso   1.00
C388   C     0.28860   0.29367   0.97183   0.00000  Uiso   1.00
C389   C     0.02633   0.28700   0.92122   0.00000  Uiso   1.00
C390   C     0.98418   0.26211   0.90041   0.00000  Uiso   1.00
C391   C     0.92973   0.25436   0.97821   0.00000  Uiso   1.00
H392   H     0.05783   0.34280   0.09653   0.00000  Uiso   1.00
H393   H     0.02193   0.38873   0.98498   0.00000  Uiso   1.00
H394   H     0.19725   0.33563   0.16345   0.00000  Uiso   1.00
H395   H     0.95104   0.30866   0.16781   0.00000  Uiso   1.00
H396   H     0.98737   0.43235   0.81935   0.00000  Uiso   1.00
H397   H     0.35702   0.32037   0.19568   0.00000  Uiso   1.00
H398   H     0.83784   0.26352   0.20488   0.00000  Uiso   1.00
H399   H     0.09791   0.28652   0.77324   0.00000  Uiso   1.00
H400   H     0.06422   0.32937   0.64395   0.00000  Uiso   1.00
H401   H     0.23953   0.27627   0.82242   0.00000  Uiso   1.00
H402   H     0.99332   0.24930   0.82678   0.00000  Uiso   1.00
H403   H     0.02169   0.38417   0.54255   0.00000  Uiso   1.00
H404   H     0.39135   0.27219   0.91889   0.00000  Uiso   1.00
H405   H     0.87216   0.21534   0.92809   0.00000  Uiso   1.00
O406   O     0.98167   0.43747   0.60173   0.00000  Uiso   1.00
O407   O     0.46663   0.29055   0.09547   0.00000  Uiso   1.00
O408   O     0.78547   0.21595   0.10754   0.00000  Uiso   1.00
N409   N     0.00006   0.41513   0.77195   0.00000  Uiso   1.00
N410   N     0.34567   0.31044   0.12379   0.00000  Uiso   1.00
N411   N     0.86028   0.25728   0.13241   0.00000  Uiso   1.00
N412   N     0.01852   0.38921   0.62301   0.00000  Uiso   1.00
N413   N     0.36413   0.28452   0.97485   0.00000  Uiso   1.00
N414   N     0.87875   0.23136   0.98346   0.00000  Uiso   1.00
C415   C     0.06700   0.82991   0.52247   0.00000  Uiso   1.00
C416   C     0.05306   0.84706   0.41703   0.00000  Uiso   1.00
C417   C     0.03105   0.87592   0.41134   0.00000  Uiso   1.00
C418   C     0.02125   0.88765   0.30702   0.00000  Uiso   1.00
C419   C     0.99783   0.91681   0.15777   0.00000  Uiso   1.00
C420   C     0.14832   0.81821   0.51399   0.00000  Uiso   1.00
C421   C     0.20640   0.82281   0.58983   0.00000  Uiso   1.00
C422   C     0.27678   0.81026   0.56714   0.00000  Uiso   1.00
C423   C     0.40124   0.79460   0.56846   0.00000  Uiso   1.00
C424   C     0.01454   0.80356   0.51635   0.00000  Uiso   1.00
C425   C     0.96015   0.79584   0.59420   0.00000  Uiso   1.00
C426   C     0.91791   0.77095   0.57351   0.00000  Uiso   1.00
C427   C     0.83466   0.73256   0.57851   0.00000  Uiso   1.00
C428   C     0.08873   0.79942   0.34731   0.00000  Uiso   1.00
C429   C     0.06486   0.83050   0.32189   0.00000  Uiso   1.00
C430   C     0.05508   0.84219   0.21755   0.00000  Uiso   1.00
C431   C     0.03306   0.87106   0.21171   0.00000  Uiso   1.00
C432   C     0.16011   0.80165   0.41886   0.00000  Uiso   1.00
C433   C     0.23043   0.78908   0.39605   0.00000  Uiso   1.00
C434   C     0.28860   0.79367   0.47183   0.00000  Uiso   1.00
C435   C     0.02633   0.78700   0.42122   0.00000  Uiso   1.00
C436   C     0.98418   0.76211   0.40041   0.00000  Uiso   1.00
C437   C     0.92973   0.75436   0.47821   0.00000  Uiso   1.00
H438   H     0.05783   0.84280   0.59653   0.00000  Uiso   1.00
H439   H     0.02193   0.88873   0.48498   0.00000  Uiso   1.00
H440   H     0.19725   0.83563   0.66345   0.00000  Uiso   1.00
H441   H     0.95104   0.80866   0.66781   0.00000  Uiso   1.00
H442   H     0.98737   0.93235   0.31935   0.00000  Uiso   1.00
H443   H     0.35702   0.82037   0.69568   0.00000  Uiso   1.00
H444   H     0.83784   0.76352   0.70488   0.00000  Uiso   1.00
H445   H     0.09791   0.78652   0.27324   0.00000  Uiso   1.00
H446   H     0.06422   0.82937   0.14395   0.00000  Uiso   1.00
H447   H     0.23953   0.77627   0.32242   0.00000  Uiso   1.00
H448   H     0.99332   0.74930   0.32678   0.00000  Uiso   1.00
H449   H     0.02169   0.88417   0.04255   0.00000  Uiso   1.00
H450   H     0.39135   0.77219   0.41889   0.00000  Uiso   1.00
H451   H     0.87216   0.71534   0.42809   0.00000  Uiso   1.00
O452   O     0.98167   0.93747   0.10173   0.00000  Uiso   1.00
O453   O     0.46663   0.79055   0.59547   0.00000  Uiso   1.00
O454   O     0.78547   0.71595   0.60754   0.00000  Uiso   1.00
N455   N     0.00006   0.91513   0.27195   0.00000  Uiso   1.00
N456   N     0.34567   0.81044   0.62379   0.00000  Uiso   1.00
N457   N     0.86028   0.75728   0.63241   0.00000  Uiso   1.00
N458   N     0.01852   0.88921   0.12301   0.00000  Uiso   1.00
N459   N     0.36413   0.78452   0.47485   0.00000  Uiso   1.00
N460   N     0.87875   0.73136   0.48346   0.00000  Uiso   1.00
C461   C     0.56700   0.32991   0.52247   0.00000  Uiso   1.00
C462   C     0.55306   0.34706   0.41703   0.00000  Uiso   1.00
C463   C     0.53105   0.37592   0.41134   0.00000  Uiso   1.00
C464   C     0.52125   0.38765   0.30702   0.00000  Uiso   1.00
C465   C     0.49783   0.41681   0.15777   0.00000  Uiso   1.00
C466   C     0.64832   0.31821   0.51399   0.00000  Uiso   1.00
C467   C     0.70640   0.32281   0.58983   0.00000  Uiso   1.00
C468   C     0.77678   0.31026   0.56714   0.00000  Uiso   1.00
C469   C     0.90124   0.29460   0.56846   0.00000  Uiso   1.00
C470   C     0.51454   0.30356   0.51635   0.00000  Uiso   1.00
C471   C     0.46015   0.29584   0.59420   0.00000  Uiso   1.00
C472   C     0.41791   0.27095   0.57351   0.00000  Uiso   1.00
C473   C     0.33466   0.23256   0.57851   0.00000  Uiso   1.00
C474   C     0.58873   0.29942   0.34731   0.00000  Uiso   1.00
C475   C     0.56486   0.33050   0.32189   0.00000  Uiso   1.00
C476   C     0.55508   0.34219   0.21755   0.00000  Uiso   1.00
C477   C     0.53306   0.37106   0.21171   0.00000  Uiso   1.00
C478   C     0.66011   0.30165   0.41886   0.00000  Uiso   1.00
C479   C     0.73043   0.28908   0.39605   0.00000  Uiso   1.00
C480   C     0.78860   0.29367   0.47183   0.00000  Uiso   1.00
C481   C     0.52633   0.28700   0.42122   0.00000  Uiso   1.00
C482   C     0.48418   0.26211   0.40041   0.00000  Uiso   1.00
C483   C     0.42973   0.25436   0.47821   0.00000  Uiso   1.00
H484   H     0.55783   0.34280   0.59653   0.00000  Uiso   1.00
H485   H     0.52193   0.38873   0.48498   0.00000  Uiso   1.00
H486   H     0.69725   0.33563   0.66345   0.00000  Uiso   1.00
H487   H     0.45104   0.30866   0.66781   0.00000  Uiso   1.00
H488   H     0.48737   0.43235   0.31935   0.00000  Uiso   1.00
H489   H     0.85702   0.32037   0.69568   0.00000  Uiso   1.00
H490   H     0.33784   0.26352   0.70488   0.00000  Uiso   1.00
H491   H     0.59791   0.28652   0.27324   0.00000  Uiso   1.00
H492   H     0.56422   0.32937   0.14395   0.00000  Uiso   1.00
H493   H     0.73953   0.27627   0.32242   0.00000  Uiso   1.00
H494   H     0.49332   0.24930   0.32678   0.00000  Uiso   1.00
H495   H     0.52169   0.38417   0.04255   0.00000  Uiso   1.00
H496   H     0.89135   0.27219   0.41889   0.00000  Uiso   1.00
H497   H     0.37216   0.21534   0.42809   0.00000  Uiso   1.00
O498   O     0.48167   0.43747   0.10173   0.00000  Uiso   1.00
O499   O     0.96663   0.29055   0.59547   0.00000  Uiso   1.00
O500   O     0.28547   0.21595   0.60754   0.00000  Uiso   1.00
N501   N     0.50006   0.41513   0.27195   0.00000  Uiso   1.00
N502   N     0.84567   0.31044   0.62379   0.00000  Uiso   1.00
N503   N     0.36028   0.25728   0.63241   0.00000  Uiso   1.00
N504   N     0.51852   0.38921   0.12301   0.00000  Uiso   1.00
N505   N     0.86413   0.28452   0.47485   0.00000  Uiso   1.00
N506   N     0.37875   0.23136   0.48346   0.00000  Uiso   1.00
C507   C     0.56700   0.82991   0.02247   0.00000  Uiso   1.00
C508   C     0.55306   0.84706   0.91703   0.00000  Uiso   1.00
C509   C     0.53105   0.87592   0.91134   0.00000  Uiso   1.00
C510   C     0.52125   0.88765   0.80702   0.00000  Uiso   1.00
C511   C     0.49783   0.91681   0.65777   0.00000  Uiso   1.00
C512   C     0.64832   0.81821   0.01399   0.00000  Uiso   1.00
C513   C     0.70640   0.82281   0.08983   0.00000  Uiso   1.00
C514   C     0.77678   0.81026   0.06714   0.00000  Uiso   1.00
C515   C     0.90124   0.79460   0.06846   0.00000  Uiso   1.00
C516   C     0.51454   0.80356   0.01635   0.00000  Uiso   1.00
C517   C     0.46015   0.79584   0.09420   0.00000  Uiso   1.00
C518   C     0.41791   0.77095   0.07351   0.00000  Uiso   1.00
C519   C     0.33466   0.73256   0.07851   0.00000  Uiso   1.00
C520   C     0.58873   0.79942   0.84731   0.00000  Uiso   1.00
C521   C     0.56486   0.83050   0.82189   0.00000  Uiso   1.00
C522   C     0.55508   0.84219   0.71755   0.00000  Uiso   1.00
C523   C     0.53306   0.87106   0.71171   0.00000  Uiso   1.00
C524   C     0.66011   0.80165   0.91886   0.00000  Uiso   1.00
C525   C     0.73043   0.78908   0.89605   0.00000  Uiso   1.00
C526   C     0.78860   0.79367   0.97183   0.00000  Uiso   1.00
C527   C     0.52633   0.78700   0.92122   0.00000  Uiso   1.00
C528   C     0.48418   0.76211   0.90041   0.00000  Uiso   1.00
C529   C     0.42973   0.75436   0.97821   0.00000  Uiso   1.00
H530   H     0.55783   0.84280   0.09653   0.00000  Uiso   1.00
H531   H     0.52193   0.88873   0.98498   0.00000  Uiso   1.00
H532   H     0.69725   0.83563   0.16345   0.00000  Uiso   1.00
H533   H     0.45104   0.80866   0.16781   0.00000  Uiso   1.00
H534   H     0.48737   0.93235   0.81935   0.00000  Uiso   1.00
H535   H     0.85702   0.82037   0.19568   0.00000  Uiso   1.00
H536   H     0.33784   0.76352   0.20488   0.00000  Uiso   1.00
H537   H     0.59791   0.78652   0.77324   0.00000  Uiso   1.00
H538   H     0.56422   0.82937   0.64395   0.00000  Uiso   1.00
H539   H     0.73953   0.77627   0.82242   0.00000  Uiso   1.00
H540   H     0.49332   0.74930   0.82678   0.00000  Uiso   1.00
H541   H     0.52169   0.88417   0.54255   0.00000  Uiso   1.00
H542   H     0.89135   0.77219   0.91889   0.00000  Uiso   1.00
H543   H     0.37216   0.71534   0.92809   0.00000  Uiso   1.00
O544   O     0.48167   0.93747   0.60173   0.00000  Uiso   1.00
O545   O     0.96663   0.79055   0.09547   0.00000  Uiso   1.00
O546   O     0.28547   0.71595   0.10754   0.00000  Uiso   1.00
N547   N     0.50006   0.91513   0.77195   0.00000  Uiso   1.00
N548   N     0.84567   0.81044   0.12379   0.00000  Uiso   1.00
N549   N     0.36028   0.75728   0.13241   0.00000  Uiso   1.00
N550   N     0.51852   0.88921   0.62301   0.00000  Uiso   1.00
N551   N     0.86413   0.78452   0.97485   0.00000  Uiso   1.00
N552   N     0.37875   0.73136   0.98346   0.00000  Uiso   1.00
C553   C     0.43300   0.17009   0.02247   0.00000  Uiso   1.00
C554   C     0.44694   0.15294   0.91703   0.00000  Uiso   1.00
C555   C     0.46895   0.12408   0.91134   0.00000  Uiso   1.00
C556   C     0.47875   0.11235   0.80702   0.00000  Uiso   1.00
C557   C     0.50217   0.08319   0.65777   0.00000  Uiso   1.00
C558   C     0.35168   0.18179   0.01399   0.00000  Uiso   1.00
C559   C     0.29360   0.17719   0.08983   0.00000  Uiso   1.00
C560   C     0.22322   0.18974   0.06714   0.00000  Uiso   1.00
C561   C     0.09876   0.20540   0.06846   0.00000  Uiso   1.00
C562   C     0.48546   0.19644   0.01635   0.00000  Uiso   1.00
C563   C     0.53985   0.20416   0.09420   0.00000  Uiso   1.00
C564   C     0.58209   0.22905   0.07351   0.00000  Uiso   1.00
C565   C     0.66534   0.26744   0.07851   0.00000  Uiso   1.00
C566   C     0.41127   0.20058   0.84731   0.00000  Uiso   1.00
C567   C     0.43514   0.16950   0.82189   0.00000  Uiso   1.00
C568   C     0.44492   0.15781   0.71755   0.00000  Uiso   1.00
C569   C     0.46694   0.12894   0.71171   0.00000  Uiso   1.00
C570   C     0.33989   0.19835   0.91886   0.00000  Uiso   1.00
C571   C     0.26957   0.21092   0.89605   0.00000  Uiso   1.00
C572   C     0.21140   0.20633   0.97183   0.00000  Uiso   1.00
C573   C     0.47367   0.21300   0.92122   0.00000  Uiso   1.00
C574   C     0.51582   0.23789   0.90041   0.00000  Uiso   1.00
C575   C     0.57027   0.24564   0.97821   0.00000  Uiso   1.00
H576   H     0.44217   0.15720   0.09653   0.00000  Uiso   1.00
H577   H     0.47807   0.11127   0.98498   0.00000  Uiso   1.00
H578   H     0.30275   0.16437   0.16345   0.00000  Uiso   1.00
H579   H     0.54896   0.19134   0.16781   0.00000  Uiso   1.00
H580   H     0.51263   0.06765   0.81935   0.00000  Uiso   1.00
H581   H     0.14298   0.17963   0.19568   0.00000  Uiso   1.00
H582   H     0.66216   0.23648   0.20488   0.00000  Uiso   1.00
H583   H     0.40209   0.21348   0.77324   0.00000  Uiso   1.00
H584   H     0.43578   0.17063   0.64395   0.00000  Uiso   1.00
H585   H     0.26047   0.22373   0.82242   0.00000  Uiso   1.00
H586   H     0.50668   0.25070   0.82678   0.00000  Uiso   1.00
H587   H     0.47831   0.11583   0.54255   0.00000  Uiso   1.00
H588   H     0.10865   0.22781   0.91889   0.00000  Uiso   1.00
H589   H     0.62784   0.28466   0.92809   0.00000  Uiso   1.00
O590   O     0.51833   0.06253   0.60173   0.00000  Uiso   1.00
O591   O     0.03337   0.20945   0.09547   0.00000  Uiso   1.00
O592   O     0.71453   0.28405   0.10754   0.00000  Uiso   1.00
N593   N     0.49994   0.08487   0.77195   0.00000  Uiso   1.00
N594   N     0.15433   0.18956   0.12379   0.00000  Uiso   1.00
N595   N     0.63972   0.24272   0.13241   0.00000  Uiso   1.00
N596   N     0.48148   0.11079   0.62301   0.00000  Uiso   1.00
N597   N     0.13587   0.21548   0.97485   0.00000  Uiso   1.00
N598   N     0.62125   0.26864   0.98346   0.00000  Uiso   1.00
C599   C     0.43300   0.67009   0.52247   0.00000  Uiso   1.00
C600   C     0.44694   0.65294   0.41703   0.00000  Uiso   1.00
C601   C     0.46895   0.62408   0.41134   0.00000  Uiso   1.00
C602   C     0.47875   0.61235   0.30702   0.00000  Uiso   1.00
C603   C     0.50217   0.58319   0.15777   0.00000  Uiso   1.00
C604   C     0.35168   0.68179   0.51399   0.00000  Uiso   1.00
C605   C     0.29360   0.67719   0.58983   0.00000  Uiso   1.00
C606   C     0.22322   0.68974   0.56714   0.00000  Uiso   1.00
C607   C     0.09876   0.70540   0.56846   0.00000  Uiso   1.00
C608   C     0.48546   0.69644   0.51635   0.00000  Uiso   1.00
C609   C     0.53985   0.70416   0.59420   0.00000  Uiso   1.00
C610   C     0.58209   0.72905   0.57351   0.00000  Uiso   1.00
C611   C     0.66534   0.76744   0.57851   0.00000  Uiso   1.00
C612   C     0.41127   0.70058   0.34731   0.00000  Uiso   1.00
C613   C     0.43514   0.66950   0.32189   0.00000  Uiso   1.00
C614   C     0.44492   0.65781   0.21755   0.00000  Uiso   1.00
C615   C     0.46694   0.62894   0.21171   0.00000  Uiso   1.00
C616   C     0.33989   0.69835   0.41886   0.00000  Uiso   1.00
C617   C     0.26957   0.71092   0.39605   0.00000  Uiso   1.00
C618   C     0.21140   0.70633   0.47183   0.00000  Uiso   1.00
C619   C     0.47367   0.71300   0.42122   0.00000  Uiso   1.00
C620   C     0.51582   0.73789   0.40041   0.00000  Uiso   1.00
C621   C     0.57027   0.74564   0.47821   0.00000  Uiso   1.00
H622   H     0.44217   0.65720   0.59653   0.00000  Uiso   1.00
H623   H     0.47807   0.61127   0.48498   0.00000  Uiso   1.00
H624   H     0.30275   0.66437   0.66345   0.00000  Uiso   1.00
H625   H     0.54896   0.69134   0.66781   0.00000  Uiso   1.00
H626   H     0.51263   0.56765   0.31935   0.00000  Uiso   1.00
H627   H     0.14298   0.67963   0.69568   0.00000  Uiso   1.00
H628   H     0.66216   0.73648   0.70488   0.00000  Uiso   1.00
H629   H     0.40209   0.71348   0.27324   0.00000  Uiso   1.00
H630   H     0.43578   0.67063   0.14395   0.00000  Uiso   1.00
H631   H     0.26047   0.72373   0.32242   0.00000  Uiso   1.00
H632   H     0.50668   0.75070   0.32678   0.00000  Uiso   1.00
H633   H     0.47831   0.61583   0.04255   0.00000  Uiso   1.00
H634   H     0.10865   0.72781   0.41889   0.00000  Uiso   1.00
H635   H     0.62784   0.78466   0.42809   0.00000  Uiso   1.00
O636   O     0.51833   0.56253   0.10173   0.00000  Uiso   1.00
O637   O     0.03337   0.70945   0.59547   0.00000  Uiso   1.00
O638   O     0.71453   0.78405   0.60754   0.00000  Uiso   1.00
N639   N     0.49994   0.58487   0.27195   0.00000  Uiso   1.00
N640   N     0.15433   0.68956   0.62379   0.00000  Uiso   1.00
N641   N     0.63972   0.74272   0.63241   0.00000  Uiso   1.00
N642   N     0.48148   0.61079   0.12301   0.00000  Uiso   1.00
N643   N     0.13587   0.71548   0.47485   0.00000  Uiso   1.00
N644   N     0.62125   0.76864   0.48346   0.00000  Uiso   1.00
C645   C     0.93300   0.17009   0.52247   0.00000  Uiso   1.00
C646   C     0.94694   0.15294   0.41703   0.00000  Uiso   1.00
C647   C     0.96895   0.12408   0.41134   0.00000  Uiso   1.00
C648   C     0.97875   0.11235   0.30702   0.00000  Uiso   1.00
C649   C     0.00217   0.08319   0.15777   0.00000  Uiso   1.00
C650   C     0.85168   0.18179   0.51399   0.00000  Uiso   1.00
C651   C     0.79360   0.17719   0.58983   0.00000  Uiso   1.00
C652   C     0.72322   0.18974   0.56714   0.00000  Uiso   1.00
C653   C     0.59876   0.20540   0.56846   0.00000  Uiso   1.00
C654   C     0.98546   0.19644   0.51635   0.00000  Uiso   1.00
C655   C     0.03985   0.20416   0.59420   0.00000  Uiso   1.00
C656   C     0.08209   0.22905   0.57351   0.00000  Uiso   1.00
C657   C     0.16534   0.26744   0.57851   0.00000  Uiso   1.00
C658   C     0.91127   0.20058   0.34731   0.00000  Uiso   1.00
C659   C     0.93514   0.16950   0.32189   0.00000  Uiso   1.00
C660   C     0.94492   0.15781   0.21755   0.00000  Uiso   1.00
C661   C     0.96694   0.12894   0.21171   0.00000  Uiso   1.00
C662   C     0.83989   0.19835   0.41886   0.00000  Uiso   1.00
C663   C     0.76957   0.21092   0.39605   0.00000  Uiso   1.00
C664   C     0.71140   0.20633   0.47183   0.00000  Uiso   1.00
C665   C     0.97367   0.21300   0.42122   0.00000  Uiso   1.00
C666   C     0.01582   0.23789   0.40041   0.00000  Uiso   1.00
C667   C     0.07027   0.24564   0.47821   0.00000  Uiso   1.00
H668   H     0.94217   0.15720   0.59653   0.00000  Uiso   1.00
H669   H     0.97807   0.11127   0.48498   0.00000  Uiso   1.00
H670   H     0.80275   0.16437   0.66345   0.00000  Uiso   1.00
H671   H     0.04896   0.19134   0.66781   0.00000  Uiso   1.00
H672   H     0.01263   0.06765   0.31935   0.00000  Uiso   1.00
H673   H     0.64298   0.17963   0.69568   0.00000  Uiso   1.00
H674   H     0.16216   0.23648   0.70488   0.00000  Uiso   1.00
H675   H     0.90209   0.21348   0.27324   0.00000  Uiso   1.00
H676   H     0.93578   0.17063   0.14395   0.00000  Uiso   1.00
H677   H     0.76047   0.22373   0.32242   0.00000  Uiso   1.00
H678   H     0.00668   0.25070   0.32678   0.00000  Uiso   1.00
H679   H     0.97831   0.11583   0.04255   0.00000  Uiso   1.00
H680   H     0.60865   0.22781   0.41889   0.00000  Uiso   1.00
H681   H     0.12784   0.28466   0.42809   0.00000  Uiso   1.00
O682   O     0.01833   0.06253   0.10173   0.00000  Uiso   1.00
O683   O     0.53337   0.20945   0.59547   0.00000  Uiso   1.00
O684   O     0.21453   0.28405   0.60754   0.00000  Uiso   1.00
N685   N     0.99994   0.08487   0.27195   0.00000  Uiso   1.00
N686   N     0.65433   0.18956   0.62379   0.00000  Uiso   1.00
N687   N     0.13972   0.24272   0.63241   0.00000  Uiso   1.00
N688   N     0.98148   0.11079   0.12301   0.00000  Uiso   1.00
N689   N     0.63587   0.21548   0.47485   0.00000  Uiso   1.00
N690   N     0.12125   0.26864   0.48346   0.00000  Uiso   1.00
C691   C     0.93300   0.67009   0.02247   0.00000  Uiso   1.00
C692   C     0.94694   0.65294   0.91703   0.00000  Uiso   1.00
C693   C     0.96895   0.62408   0.91134   0.00000  Uiso   1.00
C694   C     0.97875   0.61235   0.80702   0.00000  Uiso   1.00
C695   C     0.00217   0.58319   0.65777   0.00000  Uiso   1.00
C696   C     0.85168   0.68179   0.01399   0.00000  Uiso   1.00
C697   C     0.79360   0.67719   0.08983   0.00000  Uiso   1.00
C698   C     0.72322   0.68974   0.06714   0.00000  Uiso   1.00
C699   C     0.59876   0.70540   0.06846   0.00000  Uiso   1.00
C700   C     0.98546   0.69644   0.01635   0.00000  Uiso   1.00
C701   C     0.03985   0.70416   0.09420   0.00000  Uiso   1.00
C702   C     0.08209   0.72905   0.07351   0.00000  Uiso   1.00
C703   C     0.16534   0.76744   0.07851   0.00000  Uiso   1.00
C704   C     0.91127   0.70058   0.84731   0.00000  Uiso   1.00
C705   C     0.93514   0.66950   0.82189   0.00000  Uiso   1.00
C706   C     0.94492   0.65781   0.71755   0.00000  Uiso   1.00
C707   C     0.96694   0.62894   0.71171   0.00000  Uiso   1.00
C708   C     0.83989   0.69835   0.91886   0.00000  Uiso   1.00
C709   C     0.76957   0.71092   0.89605   0.00000  Uiso   1.00
C710   C     0.71140   0.70633   0.97183   0.00000  Uiso   1.00
C711   C     0.97367   0.71300   0.92122   0.00000  Uiso   1.00
C712   C     0.01582   0.73789   0.90041   0.00000  Uiso   1.00
C713   C     0.07027   0.74564   0.97821   0.00000  Uiso   1.00
H714   H     0.94217   0.65720   0.09653   0.00000  Uiso   1.00
H715   H     0.97807   0.61127   0.98498   0.00000  Uiso   1.00
H716   H     0.80275   0.66437   0.16345   0.00000  Uiso   1.00
H717   H     0.04896   0.69134   0.16781   0.00000  Uiso   1.00
H718   H     0.01263   0.56765   0.81935   0.00000  Uiso   1.00
H719   H     0.64298   0.67963   0.19568   0.00000  Uiso   1.00
H720   H     0.16216   0.73648   0.20488   0.00000  Uiso   1.00
H721   H     0.90209   0.71348   0.77324   0.00000  Uiso   1.00
H722   H     0.93578   0.67063   0.64395   0.00000  Uiso   1.00
H723   H     0.76047   0.72373   0.82242   0.00000  Uiso   1.00
H724   H     0.00668   0.75070   0.82678   0.00000  Uiso   1.00
H725   H     0.97831   0.61583   0.54255   0.00000  Uiso   1.00
H726   H     0.60865   0.72781   0.91889   0.00000  Uiso   1.00
H727   H     0.12784   0.78466   0.92809   0.00000  Uiso   1.00
O728   O     0.01833   0.56253   0.60173   0.00000  Uiso   1.00
O729   O     0.53337   0.70945   0.09547   0.00000  Uiso   1.00
O730   O     0.21453   0.78405   0.10754   0.00000  Uiso   1.00
N731   N     0.99994   0.58487   0.77195   0.00000  Uiso   1.00
N732   N     0.65433   0.68956   0.12379   0.00000  Uiso   1.00
N733   N     0.13972   0.74272   0.13241   0.00000  Uiso   1.00
N734   N     0.98148   0.61079   0.62301   0.00000  Uiso   1.00
N735   N     0.63587   0.71548   0.97485   0.00000  Uiso   1.00
N736   N     0.12125   0.76864   0.98346   0.00000  Uiso   1.00
