data_job_03724
_audit_creation_date              2018-12-19
_audit_creation_method            'Materials Studio'
_symmetry_space_group_name_H-M    'P1'
_symmetry_Int_Tables_number       1
_symmetry_cell_setting            triclinic
loop_
_symmetry_equiv_pos_as_xyz
  x,y,z
_cell_length_a                    22.8686
_cell_length_b                    22.8686
_cell_length_c                    34.7247
_cell_angle_alpha                 90.0000
_cell_angle_beta                  90.0000
_cell_angle_gamma                 90.0000
loop_
_atom_site_label
_atom_site_type_symbol
_atom_site_fract_x
_atom_site_fract_y
_atom_site_fract_z
_atom_site_U_iso_or_equiv
_atom_site_adp_type
_atom_site_occupancy
C1     C     0.15878   0.71630   0.90858   0.00000  Uiso   1.00
C2     C     0.18055   0.65366   0.91321   0.00000  Uiso   1.00
C3     C     0.23132   0.63680   0.93208   0.00000  Uiso   1.00
C4     C     0.24357   0.57736   0.93317   0.00000  Uiso   1.00
C5     C     0.28305   0.48635   0.94296   0.00000  Uiso   1.00
C6     C     0.15159   0.72603   0.86539   0.00000  Uiso   1.00
C7     C     0.17800   0.77002   0.84405   0.00000  Uiso   1.00
C8     C     0.16585   0.77151   0.80488   0.00000  Uiso   1.00
C9     C     0.16033   0.79288   0.74044   0.00000  Uiso   1.00
C10    C     0.09724   0.71741   0.92547   0.00000  Uiso   1.00
C11    C     0.07795   0.75416   0.95463   0.00000  Uiso   1.00
C12    C     0.02005   0.74839   0.96604   0.00000  Uiso   1.00
C13    C     0.93015   0.75638   0.99487   0.00000  Uiso   1.00
C14    C     0.09024   0.64073   0.87698   0.00000  Uiso   1.00
C15    C     0.14332   0.61262   0.89605   0.00000  Uiso   1.00
C16    C     0.15549   0.55319   0.89712   0.00000  Uiso   1.00
C17    C     0.20627   0.53623   0.91598   0.00000  Uiso   1.00
C18    C     0.11436   0.68499   0.84823   0.00000  Uiso   1.00
C19    C     0.10217   0.68641   0.80909   0.00000  Uiso   1.00
C20    C     0.12856   0.73038   0.78769   0.00000  Uiso   1.00
C21    C     0.06001   0.67636   0.90830   0.00000  Uiso   1.00
C22    C     0.00212   0.67054   0.91967   0.00000  Uiso   1.00
C23    C     0.98275   0.70727   0.94884   0.00000  Uiso   1.00
H24    H     0.18777   0.74826   0.92194   0.00000  Uiso   1.00
H25    H     0.26013   0.66858   0.94535   0.00000  Uiso   1.00
H26    H     0.20680   0.80178   0.85734   0.00000  Uiso   1.00
H27    H     0.10678   0.78592   0.96790   0.00000  Uiso   1.00
H28    H     0.32394   0.56214   0.96373   0.00000  Uiso   1.00
H29    H     0.21150   0.84302   0.77815   0.00000  Uiso   1.00
H30    H     0.00057   0.80957   0.01130   0.00000  Uiso   1.00
H31    H     0.06125   0.60877   0.86362   0.00000  Uiso   1.00
H32    H     0.12667   0.52143   0.88383   0.00000  Uiso   1.00
H33    H     0.07335   0.65464   0.79582   0.00000  Uiso   1.00
H34    H     0.97332   0.63877   0.90638   0.00000  Uiso   1.00
H35    H     0.21563   0.44271   0.91380   0.00000  Uiso   1.00
H36    H     0.10318   0.72360   0.72822   0.00000  Uiso   1.00
H37    H     0.89225   0.69014   0.96136   0.00000  Uiso   1.00
O38    O     0.31511   0.44749   0.95310   0.00000  Uiso   1.00
O39    O     0.16758   0.81600   0.70963   0.00000  Uiso   1.00
O40    O     0.89085   0.77211   0.01551   0.00000  Uiso   1.00
N41    N     0.28947   0.54601   0.94921   0.00000  Uiso   1.00
N42    N     0.18434   0.80862   0.77570   0.00000  Uiso   1.00
N43    N     0.98714   0.77736   0.99367   0.00000  Uiso   1.00
N44    N     0.23118   0.48175   0.92234   0.00000  Uiso   1.00
N45    N     0.12606   0.74436   0.74883   0.00000  Uiso   1.00
N46    N     0.92886   0.71309   0.96680   0.00000  Uiso   1.00
C47    C     0.65878   0.21630   0.40858   0.00000  Uiso   1.00
C48    C     0.68055   0.15366   0.41321   0.00000  Uiso   1.00
C49    C     0.73132   0.13680   0.43208   0.00000  Uiso   1.00
C50    C     0.74357   0.07736   0.43317   0.00000  Uiso   1.00
C51    C     0.78305   0.98635   0.44296   0.00000  Uiso   1.00
C52    C     0.65159   0.22603   0.36539   0.00000  Uiso   1.00
C53    C     0.67800   0.27002   0.34405   0.00000  Uiso   1.00
C54    C     0.66585   0.27151   0.30488   0.00000  Uiso   1.00
C55    C     0.66033   0.29288   0.24044   0.00000  Uiso   1.00
C56    C     0.59724   0.21741   0.42547   0.00000  Uiso   1.00
C57    C     0.57795   0.25416   0.45463   0.00000  Uiso   1.00
C58    C     0.52005   0.24839   0.46604   0.00000  Uiso   1.00
C59    C     0.43015   0.25638   0.49487   0.00000  Uiso   1.00
C60    C     0.59024   0.14073   0.37698   0.00000  Uiso   1.00
C61    C     0.64332   0.11262   0.39605   0.00000  Uiso   1.00
C62    C     0.65549   0.05319   0.39712   0.00000  Uiso   1.00
C63    C     0.70627   0.03623   0.41598   0.00000  Uiso   1.00
C64    C     0.61436   0.18499   0.34823   0.00000  Uiso   1.00
C65    C     0.60217   0.18641   0.30909   0.00000  Uiso   1.00
C66    C     0.62856   0.23038   0.28769   0.00000  Uiso   1.00
C67    C     0.56001   0.17636   0.40830   0.00000  Uiso   1.00
C68    C     0.50212   0.17054   0.41967   0.00000  Uiso   1.00
C69    C     0.48275   0.20727   0.44884   0.00000  Uiso   1.00
H70    H     0.68777   0.24826   0.42194   0.00000  Uiso   1.00
H71    H     0.76013   0.16858   0.44535   0.00000  Uiso   1.00
H72    H     0.70680   0.30178   0.35734   0.00000  Uiso   1.00
H73    H     0.60678   0.28592   0.46790   0.00000  Uiso   1.00
H74    H     0.82394   0.06214   0.46373   0.00000  Uiso   1.00
H75    H     0.71150   0.34302   0.27815   0.00000  Uiso   1.00
H76    H     0.50057   0.30957   0.51130   0.00000  Uiso   1.00
H77    H     0.56125   0.10877   0.36362   0.00000  Uiso   1.00
H78    H     0.62667   0.02143   0.38383   0.00000  Uiso   1.00
H79    H     0.57335   0.15464   0.29582   0.00000  Uiso   1.00
H80    H     0.47332   0.13877   0.40638   0.00000  Uiso   1.00
H81    H     0.71563   0.94271   0.41380   0.00000  Uiso   1.00
H82    H     0.60318   0.22360   0.22822   0.00000  Uiso   1.00
H83    H     0.39225   0.19014   0.46136   0.00000  Uiso   1.00
O84    O     0.81511   0.94749   0.45310   0.00000  Uiso   1.00
O85    O     0.66758   0.31600   0.20963   0.00000  Uiso   1.00
O86    O     0.39085   0.27211   0.51551   0.00000  Uiso   1.00
N87    N     0.78947   0.04601   0.44921   0.00000  Uiso   1.00
N88    N     0.68434   0.30862   0.27570   0.00000  Uiso   1.00
N89    N     0.48714   0.27736   0.49367   0.00000  Uiso   1.00
N90    N     0.73118   0.98175   0.42234   0.00000  Uiso   1.00
N91    N     0.62606   0.24436   0.24883   0.00000  Uiso   1.00
N92    N     0.42886   0.21309   0.46680   0.00000  Uiso   1.00
C93    C     0.84122   0.28370   0.90858   0.00000  Uiso   1.00
C94    C     0.81945   0.34634   0.91321   0.00000  Uiso   1.00
C95    C     0.76868   0.36320   0.93208   0.00000  Uiso   1.00
C96    C     0.75643   0.42264   0.93317   0.00000  Uiso   1.00
C97    C     0.71695   0.51365   0.94296   0.00000  Uiso   1.00
C98    C     0.84841   0.27397   0.86539   0.00000  Uiso   1.00
C99    C     0.82200   0.22998   0.84405   0.00000  Uiso   1.00
C100   C     0.83415   0.22849   0.80488   0.00000  Uiso   1.00
C101   C     0.83967   0.20712   0.74044   0.00000  Uiso   1.00
C102   C     0.90276   0.28259   0.92547   0.00000  Uiso   1.00
C103   C     0.92205   0.24584   0.95463   0.00000  Uiso   1.00
C104   C     0.97995   0.25161   0.96604   0.00000  Uiso   1.00
C105   C     0.06985   0.24362   0.99487   0.00000  Uiso   1.00
C106   C     0.90976   0.35927   0.87698   0.00000  Uiso   1.00
C107   C     0.85668   0.38738   0.89605   0.00000  Uiso   1.00
C108   C     0.84451   0.44681   0.89712   0.00000  Uiso   1.00
C109   C     0.79373   0.46377   0.91598   0.00000  Uiso   1.00
C110   C     0.88564   0.31501   0.84823   0.00000  Uiso   1.00
C111   C     0.89783   0.31359   0.80909   0.00000  Uiso   1.00
C112   C     0.87144   0.26962   0.78769   0.00000  Uiso   1.00
C113   C     0.93999   0.32364   0.90830   0.00000  Uiso   1.00
C114   C     0.99788   0.32946   0.91967   0.00000  Uiso   1.00
C115   C     0.01725   0.29273   0.94884   0.00000  Uiso   1.00
H116   H     0.81223   0.25174   0.92194   0.00000  Uiso   1.00
H117   H     0.73987   0.33142   0.94535   0.00000  Uiso   1.00
H118   H     0.79320   0.19822   0.85734   0.00000  Uiso   1.00
H119   H     0.89322   0.21408   0.96790   0.00000  Uiso   1.00
H120   H     0.67606   0.43786   0.96373   0.00000  Uiso   1.00
H121   H     0.78850   0.15698   0.77815   0.00000  Uiso   1.00
H122   H     0.99943   0.19043   0.01130   0.00000  Uiso   1.00
H123   H     0.93875   0.39123   0.86362   0.00000  Uiso   1.00
H124   H     0.87333   0.47857   0.88383   0.00000  Uiso   1.00
H125   H     0.92665   0.34536   0.79582   0.00000  Uiso   1.00
H126   H     0.02668   0.36123   0.90638   0.00000  Uiso   1.00
H127   H     0.78437   0.55729   0.91380   0.00000  Uiso   1.00
H128   H     0.89682   0.27640   0.72822   0.00000  Uiso   1.00
H129   H     0.10775   0.30986   0.96136   0.00000  Uiso   1.00
O130   O     0.68489   0.55251   0.95310   0.00000  Uiso   1.00
O131   O     0.83242   0.18400   0.70963   0.00000  Uiso   1.00
O132   O     0.10915   0.22789   0.01551   0.00000  Uiso   1.00
N133   N     0.71053   0.45399   0.94921   0.00000  Uiso   1.00
N134   N     0.81566   0.19138   0.77570   0.00000  Uiso   1.00
N135   N     0.01286   0.22264   0.99367   0.00000  Uiso   1.00
N136   N     0.76882   0.51825   0.92234   0.00000  Uiso   1.00
N137   N     0.87394   0.25564   0.74883   0.00000  Uiso   1.00
N138   N     0.07114   0.28691   0.96680   0.00000  Uiso   1.00
C139   C     0.34122   0.78370   0.40858   0.00000  Uiso   1.00
C140   C     0.31945   0.84634   0.41321   0.00000  Uiso   1.00
C141   C     0.26868   0.86320   0.43208   0.00000  Uiso   1.00
C142   C     0.25643   0.92264   0.43317   0.00000  Uiso   1.00
C143   C     0.21695   0.01365   0.44296   0.00000  Uiso   1.00
C144   C     0.34841   0.77397   0.36539   0.00000  Uiso   1.00
C145   C     0.32200   0.72998   0.34405   0.00000  Uiso   1.00
C146   C     0.33415   0.72849   0.30488   0.00000  Uiso   1.00
C147   C     0.33967   0.70712   0.24044   0.00000  Uiso   1.00
C148   C     0.40276   0.78259   0.42547   0.00000  Uiso   1.00
C149   C     0.42205   0.74584   0.45463   0.00000  Uiso   1.00
C150   C     0.47995   0.75161   0.46604   0.00000  Uiso   1.00
C151   C     0.56985   0.74362   0.49487   0.00000  Uiso   1.00
C152   C     0.40976   0.85927   0.37698   0.00000  Uiso   1.00
C153   C     0.35668   0.88738   0.39605   0.00000  Uiso   1.00
C154   C     0.34451   0.94681   0.39712   0.00000  Uiso   1.00
C155   C     0.29373   0.96377   0.41598   0.00000  Uiso   1.00
C156   C     0.38564   0.81501   0.34823   0.00000  Uiso   1.00
C157   C     0.39783   0.81359   0.30909   0.00000  Uiso   1.00
C158   C     0.37144   0.76962   0.28769   0.00000  Uiso   1.00
C159   C     0.43999   0.82364   0.40830   0.00000  Uiso   1.00
C160   C     0.49788   0.82946   0.41967   0.00000  Uiso   1.00
C161   C     0.51725   0.79273   0.44884   0.00000  Uiso   1.00
H162   H     0.31223   0.75174   0.42194   0.00000  Uiso   1.00
H163   H     0.23987   0.83142   0.44535   0.00000  Uiso   1.00
H164   H     0.29320   0.69822   0.35734   0.00000  Uiso   1.00
H165   H     0.39322   0.71408   0.46790   0.00000  Uiso   1.00
H166   H     0.17606   0.93786   0.46373   0.00000  Uiso   1.00
H167   H     0.28850   0.65698   0.27815   0.00000  Uiso   1.00
H168   H     0.49943   0.69043   0.51130   0.00000  Uiso   1.00
H169   H     0.43875   0.89123   0.36362   0.00000  Uiso   1.00
H170   H     0.37333   0.97857   0.38383   0.00000  Uiso   1.00
H171   H     0.42665   0.84536   0.29582   0.00000  Uiso   1.00
H172   H     0.52668   0.86123   0.40638   0.00000  Uiso   1.00
H173   H     0.28437   0.05729   0.41380   0.00000  Uiso   1.00
H174   H     0.39682   0.77640   0.22822   0.00000  Uiso   1.00
H175   H     0.60775   0.80986   0.46136   0.00000  Uiso   1.00
O176   O     0.18489   0.05251   0.45310   0.00000  Uiso   1.00
O177   O     0.33242   0.68400   0.20963   0.00000  Uiso   1.00
O178   O     0.60915   0.72789   0.51551   0.00000  Uiso   1.00
N179   N     0.21053   0.95399   0.44921   0.00000  Uiso   1.00
N180   N     0.31566   0.69138   0.27570   0.00000  Uiso   1.00
N181   N     0.51286   0.72264   0.49367   0.00000  Uiso   1.00
N182   N     0.26882   0.01825   0.42234   0.00000  Uiso   1.00
N183   N     0.37394   0.75564   0.24883   0.00000  Uiso   1.00
N184   N     0.57114   0.78691   0.46680   0.00000  Uiso   1.00
C185   C     0.71630   0.84122   0.09142   0.00000  Uiso   1.00
C186   C     0.65366   0.81945   0.08679   0.00000  Uiso   1.00
C187   C     0.63680   0.76868   0.06792   0.00000  Uiso   1.00
C188   C     0.57736   0.75643   0.06683   0.00000  Uiso   1.00
C189   C     0.48635   0.71695   0.05704   0.00000  Uiso   1.00
C190   C     0.72603   0.84841   0.13461   0.00000  Uiso   1.00
C191   C     0.77002   0.82200   0.15595   0.00000  Uiso   1.00
C192   C     0.77151   0.83415   0.19512   0.00000  Uiso   1.00
C193   C     0.79288   0.83967   0.25956   0.00000  Uiso   1.00
C194   C     0.71741   0.90276   0.07453   0.00000  Uiso   1.00
C195   C     0.75416   0.92205   0.04537   0.00000  Uiso   1.00
C196   C     0.74839   0.97995   0.03396   0.00000  Uiso   1.00
C197   C     0.75638   0.06985   0.00513   0.00000  Uiso   1.00
C198   C     0.64073   0.90976   0.12302   0.00000  Uiso   1.00
C199   C     0.61262   0.85668   0.10395   0.00000  Uiso   1.00
C200   C     0.55319   0.84451   0.10288   0.00000  Uiso   1.00
C201   C     0.53623   0.79373   0.08402   0.00000  Uiso   1.00
C202   C     0.68499   0.88564   0.15177   0.00000  Uiso   1.00
C203   C     0.68641   0.89783   0.19091   0.00000  Uiso   1.00
C204   C     0.73038   0.87144   0.21231   0.00000  Uiso   1.00
C205   C     0.67636   0.93999   0.09170   0.00000  Uiso   1.00
C206   C     0.67054   0.99788   0.08033   0.00000  Uiso   1.00
C207   C     0.70727   0.01725   0.05116   0.00000  Uiso   1.00
H208   H     0.74826   0.81223   0.07806   0.00000  Uiso   1.00
H209   H     0.66858   0.73987   0.05465   0.00000  Uiso   1.00
H210   H     0.80178   0.79320   0.14266   0.00000  Uiso   1.00
H211   H     0.78592   0.89322   0.03210   0.00000  Uiso   1.00
H212   H     0.56214   0.67606   0.03627   0.00000  Uiso   1.00
H213   H     0.84302   0.78850   0.22185   0.00000  Uiso   1.00
H214   H     0.80957   0.99943   0.98870   0.00000  Uiso   1.00
H215   H     0.60877   0.93875   0.13638   0.00000  Uiso   1.00
H216   H     0.52143   0.87333   0.11617   0.00000  Uiso   1.00
H217   H     0.65464   0.92665   0.20418   0.00000  Uiso   1.00
H218   H     0.63877   0.02668   0.09362   0.00000  Uiso   1.00
H219   H     0.44271   0.78437   0.08620   0.00000  Uiso   1.00
H220   H     0.72360   0.89682   0.27178   0.00000  Uiso   1.00
H221   H     0.69014   0.10775   0.03864   0.00000  Uiso   1.00
O222   O     0.44749   0.68489   0.04690   0.00000  Uiso   1.00
O223   O     0.81600   0.83242   0.29037   0.00000  Uiso   1.00
O224   O     0.77211   0.10915   0.98449   0.00000  Uiso   1.00
N225   N     0.54601   0.71053   0.05079   0.00000  Uiso   1.00
N226   N     0.80862   0.81566   0.22430   0.00000  Uiso   1.00
N227   N     0.77736   0.01286   0.00633   0.00000  Uiso   1.00
N228   N     0.48175   0.76882   0.07766   0.00000  Uiso   1.00
N229   N     0.74436   0.87394   0.25117   0.00000  Uiso   1.00
N230   N     0.71309   0.07114   0.03320   0.00000  Uiso   1.00
C231   C     0.21630   0.34122   0.59142   0.00000  Uiso   1.00
C232   C     0.15366   0.31945   0.58679   0.00000  Uiso   1.00
C233   C     0.13680   0.26868   0.56792   0.00000  Uiso   1.00
C234   C     0.07736   0.25643   0.56683   0.00000  Uiso   1.00
C235   C     0.98635   0.21695   0.55704   0.00000  Uiso   1.00
C236   C     0.22603   0.34841   0.63461   0.00000  Uiso   1.00
C237   C     0.27002   0.32200   0.65595   0.00000  Uiso   1.00
C238   C     0.27151   0.33415   0.69512   0.00000  Uiso   1.00
C239   C     0.29288   0.33967   0.75956   0.00000  Uiso   1.00
C240   C     0.21741   0.40276   0.57453   0.00000  Uiso   1.00
C241   C     0.25416   0.42205   0.54537   0.00000  Uiso   1.00
C242   C     0.24839   0.47995   0.53396   0.00000  Uiso   1.00
C243   C     0.25638   0.56985   0.50513   0.00000  Uiso   1.00
C244   C     0.14073   0.40976   0.62302   0.00000  Uiso   1.00
C245   C     0.11262   0.35668   0.60395   0.00000  Uiso   1.00
C246   C     0.05319   0.34451   0.60288   0.00000  Uiso   1.00
C247   C     0.03623   0.29373   0.58402   0.00000  Uiso   1.00
C248   C     0.18499   0.38564   0.65177   0.00000  Uiso   1.00
C249   C     0.18641   0.39783   0.69091   0.00000  Uiso   1.00
C250   C     0.23038   0.37144   0.71231   0.00000  Uiso   1.00
C251   C     0.17636   0.43999   0.59170   0.00000  Uiso   1.00
C252   C     0.17054   0.49788   0.58033   0.00000  Uiso   1.00
C253   C     0.20727   0.51725   0.55116   0.00000  Uiso   1.00
H254   H     0.24826   0.31223   0.57806   0.00000  Uiso   1.00
H255   H     0.16858   0.23987   0.55465   0.00000  Uiso   1.00
H256   H     0.30178   0.29320   0.64266   0.00000  Uiso   1.00
H257   H     0.28592   0.39322   0.53210   0.00000  Uiso   1.00
H258   H     0.06214   0.17606   0.53627   0.00000  Uiso   1.00
H259   H     0.34302   0.28850   0.72185   0.00000  Uiso   1.00
H260   H     0.30957   0.49943   0.48870   0.00000  Uiso   1.00
H261   H     0.10877   0.43875   0.63638   0.00000  Uiso   1.00
H262   H     0.02143   0.37333   0.61617   0.00000  Uiso   1.00
H263   H     0.15464   0.42665   0.70418   0.00000  Uiso   1.00
H264   H     0.13877   0.52668   0.59362   0.00000  Uiso   1.00
H265   H     0.94271   0.28437   0.58620   0.00000  Uiso   1.00
H266   H     0.22360   0.39682   0.77178   0.00000  Uiso   1.00
H267   H     0.19014   0.60775   0.53864   0.00000  Uiso   1.00
O268   O     0.94749   0.18489   0.54690   0.00000  Uiso   1.00
O269   O     0.31600   0.33242   0.79037   0.00000  Uiso   1.00
O270   O     0.27211   0.60915   0.48449   0.00000  Uiso   1.00
N271   N     0.04601   0.21053   0.55079   0.00000  Uiso   1.00
N272   N     0.30862   0.31566   0.72430   0.00000  Uiso   1.00
N273   N     0.27736   0.51286   0.50633   0.00000  Uiso   1.00
N274   N     0.98175   0.26882   0.57766   0.00000  Uiso   1.00
N275   N     0.24436   0.37394   0.75117   0.00000  Uiso   1.00
N276   N     0.21309   0.57114   0.53320   0.00000  Uiso   1.00
C277   C     0.28370   0.15878   0.09142   0.00000  Uiso   1.00
C278   C     0.34634   0.18055   0.08679   0.00000  Uiso   1.00
C279   C     0.36320   0.23132   0.06792   0.00000  Uiso   1.00
C280   C     0.42264   0.24357   0.06683   0.00000  Uiso   1.00
C281   C     0.51365   0.28305   0.05704   0.00000  Uiso   1.00
C282   C     0.27397   0.15159   0.13461   0.00000  Uiso   1.00
C283   C     0.22998   0.17800   0.15595   0.00000  Uiso   1.00
C284   C     0.22849   0.16585   0.19512   0.00000  Uiso   1.00
C285   C     0.20712   0.16033   0.25956   0.00000  Uiso   1.00
C286   C     0.28259   0.09724   0.07453   0.00000  Uiso   1.00
C287   C     0.24584   0.07795   0.04537   0.00000  Uiso   1.00
C288   C     0.25161   0.02005   0.03396   0.00000  Uiso   1.00
C289   C     0.24362   0.93015   0.00513   0.00000  Uiso   1.00
C290   C     0.35927   0.09024   0.12302   0.00000  Uiso   1.00
C291   C     0.38738   0.14332   0.10395   0.00000  Uiso   1.00
C292   C     0.44681   0.15549   0.10288   0.00000  Uiso   1.00
C293   C     0.46377   0.20627   0.08402   0.00000  Uiso   1.00
C294   C     0.31501   0.11436   0.15177   0.00000  Uiso   1.00
C295   C     0.31359   0.10217   0.19091   0.00000  Uiso   1.00
C296   C     0.26962   0.12856   0.21231   0.00000  Uiso   1.00
C297   C     0.32364   0.06001   0.09170   0.00000  Uiso   1.00
C298   C     0.32946   0.00212   0.08033   0.00000  Uiso   1.00
C299   C     0.29273   0.98275   0.05116   0.00000  Uiso   1.00
H300   H     0.25174   0.18777   0.07806   0.00000  Uiso   1.00
H301   H     0.33142   0.26013   0.05465   0.00000  Uiso   1.00
H302   H     0.19822   0.20680   0.14266   0.00000  Uiso   1.00
H303   H     0.21408   0.10678   0.03210   0.00000  Uiso   1.00
H304   H     0.43786   0.32394   0.03627   0.00000  Uiso   1.00
H305   H     0.15698   0.21150   0.22185   0.00000  Uiso   1.00
H306   H     0.19043   0.00057   0.98870   0.00000  Uiso   1.00
H307   H     0.39123   0.06125   0.13638   0.00000  Uiso   1.00
H308   H     0.47857   0.12667   0.11617   0.00000  Uiso   1.00
H309   H     0.34536   0.07335   0.20418   0.00000  Uiso   1.00
H310   H     0.36123   0.97332   0.09362   0.00000  Uiso   1.00
H311   H     0.55729   0.21563   0.08620   0.00000  Uiso   1.00
H312   H     0.27640   0.10318   0.27178   0.00000  Uiso   1.00
H313   H     0.30986   0.89225   0.03864   0.00000  Uiso   1.00
O314   O     0.55251   0.31511   0.04690   0.00000  Uiso   1.00
O315   O     0.18400   0.16758   0.29037   0.00000  Uiso   1.00
O316   O     0.22789   0.89085   0.98449   0.00000  Uiso   1.00
N317   N     0.45399   0.28947   0.05079   0.00000  Uiso   1.00
N318   N     0.19138   0.18434   0.22430   0.00000  Uiso   1.00
N319   N     0.22264   0.98714   0.00633   0.00000  Uiso   1.00
N320   N     0.51825   0.23118   0.07766   0.00000  Uiso   1.00
N321   N     0.25564   0.12606   0.25117   0.00000  Uiso   1.00
N322   N     0.28691   0.92886   0.03320   0.00000  Uiso   1.00
C323   C     0.78370   0.65878   0.59142   0.00000  Uiso   1.00
C324   C     0.84634   0.68055   0.58679   0.00000  Uiso   1.00
C325   C     0.86320   0.73132   0.56792   0.00000  Uiso   1.00
C326   C     0.92264   0.74357   0.56683   0.00000  Uiso   1.00
C327   C     0.01365   0.78305   0.55704   0.00000  Uiso   1.00
C328   C     0.77397   0.65159   0.63461   0.00000  Uiso   1.00
C329   C     0.72998   0.67800   0.65595   0.00000  Uiso   1.00
C330   C     0.72849   0.66585   0.69512   0.00000  Uiso   1.00
C331   C     0.70712   0.66033   0.75956   0.00000  Uiso   1.00
C332   C     0.78259   0.59724   0.57453   0.00000  Uiso   1.00
C333   C     0.74584   0.57795   0.54537   0.00000  Uiso   1.00
C334   C     0.75161   0.52005   0.53396   0.00000  Uiso   1.00
C335   C     0.74362   0.43015   0.50513   0.00000  Uiso   1.00
C336   C     0.85927   0.59024   0.62302   0.00000  Uiso   1.00
C337   C     0.88738   0.64332   0.60395   0.00000  Uiso   1.00
C338   C     0.94681   0.65549   0.60288   0.00000  Uiso   1.00
C339   C     0.96377   0.70627   0.58402   0.00000  Uiso   1.00
C340   C     0.81501   0.61436   0.65177   0.00000  Uiso   1.00
C341   C     0.81359   0.60217   0.69091   0.00000  Uiso   1.00
C342   C     0.76962   0.62856   0.71231   0.00000  Uiso   1.00
C343   C     0.82364   0.56001   0.59170   0.00000  Uiso   1.00
C344   C     0.82946   0.50212   0.58033   0.00000  Uiso   1.00
C345   C     0.79273   0.48275   0.55116   0.00000  Uiso   1.00
H346   H     0.75174   0.68777   0.57806   0.00000  Uiso   1.00
H347   H     0.83142   0.76013   0.55465   0.00000  Uiso   1.00
H348   H     0.69822   0.70680   0.64266   0.00000  Uiso   1.00
H349   H     0.71408   0.60678   0.53210   0.00000  Uiso   1.00
H350   H     0.93786   0.82394   0.53627   0.00000  Uiso   1.00
H351   H     0.65698   0.71150   0.72185   0.00000  Uiso   1.00
H352   H     0.69043   0.50057   0.48870   0.00000  Uiso   1.00
H353   H     0.89123   0.56125   0.63638   0.00000  Uiso   1.00
H354   H     0.97857   0.62667   0.61617   0.00000  Uiso   1.00
H355   H     0.84536   0.57335   0.70418   0.00000  Uiso   1.00
H356   H     0.86123   0.47332   0.59362   0.00000  Uiso   1.00
H357   H     0.05729   0.71563   0.58620   0.00000  Uiso   1.00
H358   H     0.77640   0.60318   0.77178   0.00000  Uiso   1.00
H359   H     0.80986   0.39225   0.53864   0.00000  Uiso   1.00
O360   O     0.05251   0.81511   0.54690   0.00000  Uiso   1.00
O361   O     0.68400   0.66758   0.79037   0.00000  Uiso   1.00
O362   O     0.72789   0.39085   0.48449   0.00000  Uiso   1.00
N363   N     0.95399   0.78947   0.55079   0.00000  Uiso   1.00
N364   N     0.69138   0.68434   0.72430   0.00000  Uiso   1.00
N365   N     0.72264   0.48714   0.50633   0.00000  Uiso   1.00
N366   N     0.01825   0.73118   0.57766   0.00000  Uiso   1.00
N367   N     0.75564   0.62606   0.75117   0.00000  Uiso   1.00
N368   N     0.78691   0.42886   0.53320   0.00000  Uiso   1.00
C369   C     0.34122   0.71630   0.84142   0.00000  Uiso   1.00
C370   C     0.31945   0.65366   0.83679   0.00000  Uiso   1.00
C371   C     0.26868   0.63680   0.81792   0.00000  Uiso   1.00
C372   C     0.25643   0.57736   0.81683   0.00000  Uiso   1.00
C373   C     0.21695   0.48635   0.80704   0.00000  Uiso   1.00
C374   C     0.34841   0.72603   0.88461   0.00000  Uiso   1.00
C375   C     0.32200   0.77002   0.90595   0.00000  Uiso   1.00
C376   C     0.33415   0.77151   0.94512   0.00000  Uiso   1.00
C377   C     0.33967   0.79288   0.00956   0.00000  Uiso   1.00
C378   C     0.40276   0.71741   0.82453   0.00000  Uiso   1.00
C379   C     0.42205   0.75416   0.79537   0.00000  Uiso   1.00
C380   C     0.47995   0.74839   0.78396   0.00000  Uiso   1.00
C381   C     0.56985   0.75638   0.75513   0.00000  Uiso   1.00
C382   C     0.40976   0.64073   0.87302   0.00000  Uiso   1.00
C383   C     0.35668   0.61262   0.85395   0.00000  Uiso   1.00
C384   C     0.34451   0.55319   0.85288   0.00000  Uiso   1.00
C385   C     0.29373   0.53623   0.83402   0.00000  Uiso   1.00
C386   C     0.38564   0.68499   0.90177   0.00000  Uiso   1.00
C387   C     0.39783   0.68641   0.94091   0.00000  Uiso   1.00
C388   C     0.37144   0.73038   0.96231   0.00000  Uiso   1.00
C389   C     0.43999   0.67636   0.84170   0.00000  Uiso   1.00
C390   C     0.49788   0.67054   0.83033   0.00000  Uiso   1.00
C391   C     0.51725   0.70727   0.80116   0.00000  Uiso   1.00
H392   H     0.31223   0.74826   0.82806   0.00000  Uiso   1.00
H393   H     0.23987   0.66858   0.80465   0.00000  Uiso   1.00
H394   H     0.29320   0.80178   0.89266   0.00000  Uiso   1.00
H395   H     0.39322   0.78592   0.78210   0.00000  Uiso   1.00
H396   H     0.17606   0.56214   0.78627   0.00000  Uiso   1.00
H397   H     0.28850   0.84302   0.97185   0.00000  Uiso   1.00
H398   H     0.49943   0.80957   0.73870   0.00000  Uiso   1.00
H399   H     0.43875   0.60877   0.88638   0.00000  Uiso   1.00
H400   H     0.37333   0.52143   0.86617   0.00000  Uiso   1.00
H401   H     0.42665   0.65464   0.95418   0.00000  Uiso   1.00
H402   H     0.52668   0.63877   0.84362   0.00000  Uiso   1.00
H403   H     0.28437   0.44271   0.83620   0.00000  Uiso   1.00
H404   H     0.39682   0.72360   0.02178   0.00000  Uiso   1.00
H405   H     0.60775   0.69014   0.78864   0.00000  Uiso   1.00
O406   O     0.18489   0.44749   0.79690   0.00000  Uiso   1.00
O407   O     0.33242   0.81600   0.04037   0.00000  Uiso   1.00
O408   O     0.60915   0.77211   0.73449   0.00000  Uiso   1.00
N409   N     0.21053   0.54601   0.80079   0.00000  Uiso   1.00
N410   N     0.31566   0.80862   0.97430   0.00000  Uiso   1.00
N411   N     0.51286   0.77736   0.75633   0.00000  Uiso   1.00
N412   N     0.26882   0.48175   0.82766   0.00000  Uiso   1.00
N413   N     0.37394   0.74436   0.00117   0.00000  Uiso   1.00
N414   N     0.57114   0.71309   0.78320   0.00000  Uiso   1.00
C415   C     0.84122   0.21630   0.34142   0.00000  Uiso   1.00
C416   C     0.81945   0.15366   0.33679   0.00000  Uiso   1.00
C417   C     0.76868   0.13680   0.31792   0.00000  Uiso   1.00
C418   C     0.75643   0.07736   0.31683   0.00000  Uiso   1.00
C419   C     0.71695   0.98635   0.30704   0.00000  Uiso   1.00
C420   C     0.84841   0.22603   0.38461   0.00000  Uiso   1.00
C421   C     0.82200   0.27002   0.40595   0.00000  Uiso   1.00
C422   C     0.83415   0.27151   0.44512   0.00000  Uiso   1.00
C423   C     0.83967   0.29288   0.50956   0.00000  Uiso   1.00
C424   C     0.90276   0.21741   0.32453   0.00000  Uiso   1.00
C425   C     0.92205   0.25416   0.29537   0.00000  Uiso   1.00
C426   C     0.97995   0.24839   0.28396   0.00000  Uiso   1.00
C427   C     0.06985   0.25638   0.25513   0.00000  Uiso   1.00
C428   C     0.90976   0.14073   0.37302   0.00000  Uiso   1.00
C429   C     0.85668   0.11262   0.35395   0.00000  Uiso   1.00
C430   C     0.84451   0.05319   0.35288   0.00000  Uiso   1.00
C431   C     0.79373   0.03623   0.33402   0.00000  Uiso   1.00
C432   C     0.88564   0.18499   0.40177   0.00000  Uiso   1.00
C433   C     0.89783   0.18641   0.44091   0.00000  Uiso   1.00
C434   C     0.87144   0.23038   0.46231   0.00000  Uiso   1.00
C435   C     0.93999   0.17636   0.34170   0.00000  Uiso   1.00
C436   C     0.99788   0.17054   0.33033   0.00000  Uiso   1.00
C437   C     0.01725   0.20727   0.30116   0.00000  Uiso   1.00
H438   H     0.81223   0.24826   0.32806   0.00000  Uiso   1.00
H439   H     0.73987   0.16858   0.30465   0.00000  Uiso   1.00
H440   H     0.79320   0.30178   0.39266   0.00000  Uiso   1.00
H441   H     0.89322   0.28592   0.28210   0.00000  Uiso   1.00
H442   H     0.67606   0.06214   0.28627   0.00000  Uiso   1.00
H443   H     0.78850   0.34302   0.47185   0.00000  Uiso   1.00
H444   H     0.99943   0.30957   0.23870   0.00000  Uiso   1.00
H445   H     0.93875   0.10877   0.38638   0.00000  Uiso   1.00
H446   H     0.87333   0.02143   0.36617   0.00000  Uiso   1.00
H447   H     0.92665   0.15464   0.45418   0.00000  Uiso   1.00
H448   H     0.02668   0.13877   0.34362   0.00000  Uiso   1.00
H449   H     0.78437   0.94271   0.33620   0.00000  Uiso   1.00
H450   H     0.89682   0.22360   0.52178   0.00000  Uiso   1.00
H451   H     0.10775   0.19014   0.28864   0.00000  Uiso   1.00
O452   O     0.68489   0.94749   0.29690   0.00000  Uiso   1.00
O453   O     0.83242   0.31600   0.54037   0.00000  Uiso   1.00
O454   O     0.10915   0.27211   0.23449   0.00000  Uiso   1.00
N455   N     0.71053   0.04601   0.30079   0.00000  Uiso   1.00
N456   N     0.81566   0.30862   0.47430   0.00000  Uiso   1.00
N457   N     0.01286   0.27736   0.25633   0.00000  Uiso   1.00
N458   N     0.76882   0.98175   0.32766   0.00000  Uiso   1.00
N459   N     0.87394   0.24436   0.50117   0.00000  Uiso   1.00
N460   N     0.07114   0.21309   0.28320   0.00000  Uiso   1.00
C461   C     0.65878   0.28370   0.84142   0.00000  Uiso   1.00
C462   C     0.68055   0.34634   0.83679   0.00000  Uiso   1.00
C463   C     0.73132   0.36320   0.81792   0.00000  Uiso   1.00
C464   C     0.74357   0.42264   0.81683   0.00000  Uiso   1.00
C465   C     0.78305   0.51365   0.80704   0.00000  Uiso   1.00
C466   C     0.65159   0.27397   0.88461   0.00000  Uiso   1.00
C467   C     0.67800   0.22998   0.90595   0.00000  Uiso   1.00
C468   C     0.66585   0.22849   0.94512   0.00000  Uiso   1.00
C469   C     0.66033   0.20712   0.00956   0.00000  Uiso   1.00
C470   C     0.59724   0.28259   0.82453   0.00000  Uiso   1.00
C471   C     0.57795   0.24584   0.79537   0.00000  Uiso   1.00
C472   C     0.52005   0.25161   0.78396   0.00000  Uiso   1.00
C473   C     0.43015   0.24362   0.75513   0.00000  Uiso   1.00
C474   C     0.59024   0.35927   0.87302   0.00000  Uiso   1.00
C475   C     0.64332   0.38738   0.85395   0.00000  Uiso   1.00
C476   C     0.65549   0.44681   0.85288   0.00000  Uiso   1.00
C477   C     0.70627   0.46377   0.83402   0.00000  Uiso   1.00
C478   C     0.61436   0.31501   0.90177   0.00000  Uiso   1.00
C479   C     0.60217   0.31359   0.94091   0.00000  Uiso   1.00
C480   C     0.62856   0.26962   0.96231   0.00000  Uiso   1.00
C481   C     0.56001   0.32364   0.84170   0.00000  Uiso   1.00
C482   C     0.50212   0.32946   0.83033   0.00000  Uiso   1.00
C483   C     0.48275   0.29273   0.80116   0.00000  Uiso   1.00
H484   H     0.68777   0.25174   0.82806   0.00000  Uiso   1.00
H485   H     0.76013   0.33142   0.80465   0.00000  Uiso   1.00
H486   H     0.70680   0.19822   0.89266   0.00000  Uiso   1.00
H487   H     0.60678   0.21408   0.78210   0.00000  Uiso   1.00
H488   H     0.82394   0.43786   0.78627   0.00000  Uiso   1.00
H489   H     0.71150   0.15698   0.97185   0.00000  Uiso   1.00
H490   H     0.50057   0.19043   0.73870   0.00000  Uiso   1.00
H491   H     0.56125   0.39123   0.88638   0.00000  Uiso   1.00
H492   H     0.62667   0.47857   0.86617   0.00000  Uiso   1.00
H493   H     0.57335   0.34536   0.95418   0.00000  Uiso   1.00
H494   H     0.47332   0.36123   0.84362   0.00000  Uiso   1.00
H495   H     0.71563   0.55729   0.83620   0.00000  Uiso   1.00
H496   H     0.60318   0.27640   0.02178   0.00000  Uiso   1.00
H497   H     0.39225   0.30986   0.78864   0.00000  Uiso   1.00
O498   O     0.81511   0.55251   0.79690   0.00000  Uiso   1.00
O499   O     0.66758   0.18400   0.04037   0.00000  Uiso   1.00
O500   O     0.39085   0.22789   0.73449   0.00000  Uiso   1.00
N501   N     0.78947   0.45399   0.80079   0.00000  Uiso   1.00
N502   N     0.68434   0.19138   0.97430   0.00000  Uiso   1.00
N503   N     0.48714   0.22264   0.75633   0.00000  Uiso   1.00
N504   N     0.73118   0.51825   0.82766   0.00000  Uiso   1.00
N505   N     0.62606   0.25564   0.00117   0.00000  Uiso   1.00
N506   N     0.42886   0.28691   0.78320   0.00000  Uiso   1.00
C507   C     0.15878   0.78370   0.34142   0.00000  Uiso   1.00
C508   C     0.18055   0.84634   0.33679   0.00000  Uiso   1.00
C509   C     0.23132   0.86320   0.31792   0.00000  Uiso   1.00
C510   C     0.24357   0.92264   0.31683   0.00000  Uiso   1.00
C511   C     0.28305   0.01365   0.30704   0.00000  Uiso   1.00
C512   C     0.15159   0.77397   0.38461   0.00000  Uiso   1.00
C513   C     0.17800   0.72998   0.40595   0.00000  Uiso   1.00
C514   C     0.16585   0.72849   0.44512   0.00000  Uiso   1.00
C515   C     0.16033   0.70712   0.50956   0.00000  Uiso   1.00
C516   C     0.09724   0.78259   0.32453   0.00000  Uiso   1.00
C517   C     0.07795   0.74584   0.29537   0.00000  Uiso   1.00
C518   C     0.02005   0.75161   0.28396   0.00000  Uiso   1.00
C519   C     0.93015   0.74362   0.25513   0.00000  Uiso   1.00
C520   C     0.09024   0.85927   0.37302   0.00000  Uiso   1.00
C521   C     0.14332   0.88738   0.35395   0.00000  Uiso   1.00
C522   C     0.15549   0.94681   0.35288   0.00000  Uiso   1.00
C523   C     0.20627   0.96377   0.33402   0.00000  Uiso   1.00
C524   C     0.11436   0.81501   0.40177   0.00000  Uiso   1.00
C525   C     0.10217   0.81359   0.44091   0.00000  Uiso   1.00
C526   C     0.12856   0.76962   0.46231   0.00000  Uiso   1.00
C527   C     0.06001   0.82364   0.34170   0.00000  Uiso   1.00
C528   C     0.00212   0.82946   0.33033   0.00000  Uiso   1.00
C529   C     0.98275   0.79273   0.30116   0.00000  Uiso   1.00
H530   H     0.18777   0.75174   0.32806   0.00000  Uiso   1.00
H531   H     0.26013   0.83142   0.30465   0.00000  Uiso   1.00
H532   H     0.20680   0.69822   0.39266   0.00000  Uiso   1.00
H533   H     0.10678   0.71408   0.28210   0.00000  Uiso   1.00
H534   H     0.32394   0.93786   0.28627   0.00000  Uiso   1.00
H535   H     0.21150   0.65698   0.47185   0.00000  Uiso   1.00
H536   H     0.00057   0.69043   0.23870   0.00000  Uiso   1.00
H537   H     0.06125   0.89123   0.38638   0.00000  Uiso   1.00
H538   H     0.12667   0.97857   0.36617   0.00000  Uiso   1.00
H539   H     0.07335   0.84536   0.45418   0.00000  Uiso   1.00
H540   H     0.97332   0.86123   0.34362   0.00000  Uiso   1.00
H541   H     0.21563   0.05729   0.33620   0.00000  Uiso   1.00
H542   H     0.10318   0.77640   0.52178   0.00000  Uiso   1.00
H543   H     0.89225   0.80986   0.28864   0.00000  Uiso   1.00
O544   O     0.31511   0.05251   0.29690   0.00000  Uiso   1.00
O545   O     0.16758   0.68400   0.54037   0.00000  Uiso   1.00
O546   O     0.89085   0.72789   0.23449   0.00000  Uiso   1.00
N547   N     0.28947   0.95399   0.30079   0.00000  Uiso   1.00
N548   N     0.18434   0.69138   0.47430   0.00000  Uiso   1.00
N549   N     0.98714   0.72264   0.25633   0.00000  Uiso   1.00
N550   N     0.23118   0.01825   0.32766   0.00000  Uiso   1.00
N551   N     0.12606   0.75564   0.50117   0.00000  Uiso   1.00
N552   N     0.92886   0.78691   0.28320   0.00000  Uiso   1.00
C553   C     0.78370   0.84122   0.65858   0.00000  Uiso   1.00
C554   C     0.84634   0.81945   0.66321   0.00000  Uiso   1.00
C555   C     0.86320   0.76868   0.68208   0.00000  Uiso   1.00
C556   C     0.92264   0.75643   0.68317   0.00000  Uiso   1.00
C557   C     0.01365   0.71695   0.69296   0.00000  Uiso   1.00
C558   C     0.77397   0.84841   0.61539   0.00000  Uiso   1.00
C559   C     0.72998   0.82200   0.59405   0.00000  Uiso   1.00
C560   C     0.72849   0.83415   0.55488   0.00000  Uiso   1.00
C561   C     0.70712   0.83967   0.49044   0.00000  Uiso   1.00
C562   C     0.78259   0.90276   0.67547   0.00000  Uiso   1.00
C563   C     0.74584   0.92205   0.70463   0.00000  Uiso   1.00
C564   C     0.75161   0.97995   0.71604   0.00000  Uiso   1.00
C565   C     0.74362   0.06985   0.74487   0.00000  Uiso   1.00
C566   C     0.85927   0.90976   0.62698   0.00000  Uiso   1.00
C567   C     0.88738   0.85668   0.64605   0.00000  Uiso   1.00
C568   C     0.94681   0.84451   0.64712   0.00000  Uiso   1.00
C569   C     0.96377   0.79373   0.66598   0.00000  Uiso   1.00
C570   C     0.81501   0.88564   0.59823   0.00000  Uiso   1.00
C571   C     0.81359   0.89783   0.55909   0.00000  Uiso   1.00
C572   C     0.76962   0.87144   0.53769   0.00000  Uiso   1.00
C573   C     0.82364   0.93999   0.65830   0.00000  Uiso   1.00
C574   C     0.82946   0.99788   0.66967   0.00000  Uiso   1.00
C575   C     0.79273   0.01725   0.69884   0.00000  Uiso   1.00
H576   H     0.75174   0.81223   0.67194   0.00000  Uiso   1.00
H577   H     0.83142   0.73987   0.69535   0.00000  Uiso   1.00
H578   H     0.69822   0.79320   0.60734   0.00000  Uiso   1.00
H579   H     0.71408   0.89322   0.71790   0.00000  Uiso   1.00
H580   H     0.93786   0.67606   0.71373   0.00000  Uiso   1.00
H581   H     0.65698   0.78850   0.52815   0.00000  Uiso   1.00
H582   H     0.69043   0.99943   0.76130   0.00000  Uiso   1.00
H583   H     0.89123   0.93875   0.61362   0.00000  Uiso   1.00
H584   H     0.97857   0.87333   0.63383   0.00000  Uiso   1.00
H585   H     0.84536   0.92665   0.54582   0.00000  Uiso   1.00
H586   H     0.86123   0.02668   0.65638   0.00000  Uiso   1.00
H587   H     0.05729   0.78437   0.66380   0.00000  Uiso   1.00
H588   H     0.77640   0.89682   0.47822   0.00000  Uiso   1.00
H589   H     0.80986   0.10775   0.71136   0.00000  Uiso   1.00
O590   O     0.05251   0.68489   0.70310   0.00000  Uiso   1.00
O591   O     0.68400   0.83242   0.45963   0.00000  Uiso   1.00
O592   O     0.72789   0.10915   0.76551   0.00000  Uiso   1.00
N593   N     0.95399   0.71053   0.69921   0.00000  Uiso   1.00
N594   N     0.69138   0.81566   0.52570   0.00000  Uiso   1.00
N595   N     0.72264   0.01286   0.74367   0.00000  Uiso   1.00
N596   N     0.01825   0.76882   0.67234   0.00000  Uiso   1.00
N597   N     0.75564   0.87394   0.49883   0.00000  Uiso   1.00
N598   N     0.78691   0.07114   0.71680   0.00000  Uiso   1.00
C599   C     0.28370   0.34122   0.15858   0.00000  Uiso   1.00
C600   C     0.34634   0.31945   0.16321   0.00000  Uiso   1.00
C601   C     0.36320   0.26868   0.18208   0.00000  Uiso   1.00
C602   C     0.42264   0.25643   0.18317   0.00000  Uiso   1.00
C603   C     0.51365   0.21695   0.19296   0.00000  Uiso   1.00
C604   C     0.27397   0.34841   0.11539   0.00000  Uiso   1.00
C605   C     0.22998   0.32200   0.09405   0.00000  Uiso   1.00
C606   C     0.22849   0.33415   0.05488   0.00000  Uiso   1.00
C607   C     0.20712   0.33967   0.99044   0.00000  Uiso   1.00
C608   C     0.28259   0.40276   0.17547   0.00000  Uiso   1.00
C609   C     0.24584   0.42205   0.20463   0.00000  Uiso   1.00
C610   C     0.25161   0.47995   0.21604   0.00000  Uiso   1.00
C611   C     0.24362   0.56985   0.24487   0.00000  Uiso   1.00
C612   C     0.35927   0.40976   0.12698   0.00000  Uiso   1.00
C613   C     0.38738   0.35668   0.14605   0.00000  Uiso   1.00
C614   C     0.44681   0.34451   0.14712   0.00000  Uiso   1.00
C615   C     0.46377   0.29373   0.16598   0.00000  Uiso   1.00
C616   C     0.31501   0.38564   0.09823   0.00000  Uiso   1.00
C617   C     0.31359   0.39783   0.05909   0.00000  Uiso   1.00
C618   C     0.26962   0.37144   0.03769   0.00000  Uiso   1.00
C619   C     0.32364   0.43999   0.15830   0.00000  Uiso   1.00
C620   C     0.32946   0.49788   0.16967   0.00000  Uiso   1.00
C621   C     0.29273   0.51725   0.19884   0.00000  Uiso   1.00
H622   H     0.25174   0.31223   0.17194   0.00000  Uiso   1.00
H623   H     0.33142   0.23987   0.19535   0.00000  Uiso   1.00
H624   H     0.19822   0.29320   0.10734   0.00000  Uiso   1.00
H625   H     0.21408   0.39322   0.21790   0.00000  Uiso   1.00
H626   H     0.43786   0.17606   0.21373   0.00000  Uiso   1.00
H627   H     0.15698   0.28850   0.02815   0.00000  Uiso   1.00
H628   H     0.19043   0.49943   0.26130   0.00000  Uiso   1.00
H629   H     0.39123   0.43875   0.11362   0.00000  Uiso   1.00
H630   H     0.47857   0.37333   0.13383   0.00000  Uiso   1.00
H631   H     0.34536   0.42665   0.04582   0.00000  Uiso   1.00
H632   H     0.36123   0.52668   0.15638   0.00000  Uiso   1.00
H633   H     0.55729   0.28437   0.16380   0.00000  Uiso   1.00
H634   H     0.27640   0.39682   0.97822   0.00000  Uiso   1.00
H635   H     0.30986   0.60775   0.21136   0.00000  Uiso   1.00
O636   O     0.55251   0.18489   0.20310   0.00000  Uiso   1.00
O637   O     0.18400   0.33242   0.95963   0.00000  Uiso   1.00
O638   O     0.22789   0.60915   0.26551   0.00000  Uiso   1.00
N639   N     0.45399   0.21053   0.19921   0.00000  Uiso   1.00
N640   N     0.19138   0.31566   0.02570   0.00000  Uiso   1.00
N641   N     0.22264   0.51286   0.24367   0.00000  Uiso   1.00
N642   N     0.51825   0.26882   0.17234   0.00000  Uiso   1.00
N643   N     0.25564   0.37394   0.99883   0.00000  Uiso   1.00
N644   N     0.28691   0.57114   0.21680   0.00000  Uiso   1.00
C645   C     0.21630   0.15878   0.65858   0.00000  Uiso   1.00
C646   C     0.15366   0.18055   0.66321   0.00000  Uiso   1.00
C647   C     0.13680   0.23132   0.68208   0.00000  Uiso   1.00
C648   C     0.07736   0.24357   0.68317   0.00000  Uiso   1.00
C649   C     0.98635   0.28305   0.69296   0.00000  Uiso   1.00
C650   C     0.22603   0.15159   0.61539   0.00000  Uiso   1.00
C651   C     0.27002   0.17800   0.59405   0.00000  Uiso   1.00
C652   C     0.27151   0.16585   0.55488   0.00000  Uiso   1.00
C653   C     0.29288   0.16033   0.49044   0.00000  Uiso   1.00
C654   C     0.21741   0.09724   0.67547   0.00000  Uiso   1.00
C655   C     0.25416   0.07795   0.70463   0.00000  Uiso   1.00
C656   C     0.24839   0.02005   0.71604   0.00000  Uiso   1.00
C657   C     0.25638   0.93015   0.74487   0.00000  Uiso   1.00
C658   C     0.14073   0.09024   0.62698   0.00000  Uiso   1.00
C659   C     0.11262   0.14332   0.64605   0.00000  Uiso   1.00
C660   C     0.05319   0.15549   0.64712   0.00000  Uiso   1.00
C661   C     0.03623   0.20627   0.66598   0.00000  Uiso   1.00
C662   C     0.18499   0.11436   0.59823   0.00000  Uiso   1.00
C663   C     0.18641   0.10217   0.55909   0.00000  Uiso   1.00
C664   C     0.23038   0.12856   0.53769   0.00000  Uiso   1.00
C665   C     0.17636   0.06001   0.65830   0.00000  Uiso   1.00
C666   C     0.17054   0.00212   0.66967   0.00000  Uiso   1.00
C667   C     0.20727   0.98275   0.69884   0.00000  Uiso   1.00
H668   H     0.24826   0.18777   0.67194   0.00000  Uiso   1.00
H669   H     0.16858   0.26013   0.69535   0.00000  Uiso   1.00
H670   H     0.30178   0.20680   0.60734   0.00000  Uiso   1.00
H671   H     0.28592   0.10678   0.71790   0.00000  Uiso   1.00
H672   H     0.06214   0.32394   0.71373   0.00000  Uiso   1.00
H673   H     0.34302   0.21150   0.52815   0.00000  Uiso   1.00
H674   H     0.30957   0.00057   0.76130   0.00000  Uiso   1.00
H675   H     0.10877   0.06125   0.61362   0.00000  Uiso   1.00
H676   H     0.02143   0.12667   0.63383   0.00000  Uiso   1.00
H677   H     0.15464   0.07335   0.54582   0.00000  Uiso   1.00
H678   H     0.13877   0.97332   0.65638   0.00000  Uiso   1.00
H679   H     0.94271   0.21563   0.66380   0.00000  Uiso   1.00
H680   H     0.22360   0.10318   0.47822   0.00000  Uiso   1.00
H681   H     0.19014   0.89225   0.71136   0.00000  Uiso   1.00
O682   O     0.94749   0.31511   0.70310   0.00000  Uiso   1.00
O683   O     0.31600   0.16758   0.45963   0.00000  Uiso   1.00
O684   O     0.27211   0.89085   0.76551   0.00000  Uiso   1.00
N685   N     0.04601   0.28947   0.69921   0.00000  Uiso   1.00
N686   N     0.30862   0.18434   0.52570   0.00000  Uiso   1.00
N687   N     0.27736   0.98714   0.74367   0.00000  Uiso   1.00
N688   N     0.98175   0.23118   0.67234   0.00000  Uiso   1.00
N689   N     0.24436   0.12606   0.49883   0.00000  Uiso   1.00
N690   N     0.21309   0.92886   0.71680   0.00000  Uiso   1.00
C691   C     0.71630   0.65878   0.15858   0.00000  Uiso   1.00
C692   C     0.65366   0.68055   0.16321   0.00000  Uiso   1.00
C693   C     0.63680   0.73132   0.18208   0.00000  Uiso   1.00
C694   C     0.57736   0.74357   0.18317   0.00000  Uiso   1.00
C695   C     0.48635   0.78305   0.19296   0.00000  Uiso   1.00
C696   C     0.72603   0.65159   0.11539   0.00000  Uiso   1.00
C697   C     0.77002   0.67800   0.09405   0.00000  Uiso   1.00
C698   C     0.77151   0.66585   0.05488   0.00000  Uiso   1.00
C699   C     0.79288   0.66033   0.99044   0.00000  Uiso   1.00
C700   C     0.71741   0.59724   0.17547   0.00000  Uiso   1.00
C701   C     0.75416   0.57795   0.20463   0.00000  Uiso   1.00
C702   C     0.74839   0.52005   0.21604   0.00000  Uiso   1.00
C703   C     0.75638   0.43015   0.24487   0.00000  Uiso   1.00
C704   C     0.64073   0.59024   0.12698   0.00000  Uiso   1.00
C705   C     0.61262   0.64332   0.14605   0.00000  Uiso   1.00
C706   C     0.55319   0.65549   0.14712   0.00000  Uiso   1.00
C707   C     0.53623   0.70627   0.16598   0.00000  Uiso   1.00
C708   C     0.68499   0.61436   0.09823   0.00000  Uiso   1.00
C709   C     0.68641   0.60217   0.05909   0.00000  Uiso   1.00
C710   C     0.73038   0.62856   0.03769   0.00000  Uiso   1.00
C711   C     0.67636   0.56001   0.15830   0.00000  Uiso   1.00
C712   C     0.67054   0.50212   0.16967   0.00000  Uiso   1.00
C713   C     0.70727   0.48275   0.19884   0.00000  Uiso   1.00
H714   H     0.74826   0.68777   0.17194   0.00000  Uiso   1.00
H715   H     0.66858   0.76013   0.19535   0.00000  Uiso   1.00
H716   H     0.80178   0.70680   0.10734   0.00000  Uiso   1.00
H717   H     0.78592   0.60678   0.21790   0.00000  Uiso   1.00
H718   H     0.56214   0.82394   0.21373   0.00000  Uiso   1.00
H719   H     0.84302   0.71150   0.02815   0.00000  Uiso   1.00
H720   H     0.80957   0.50057   0.26130   0.00000  Uiso   1.00
H721   H     0.60877   0.56125   0.11362   0.00000  Uiso   1.00
H722   H     0.52143   0.62667   0.13383   0.00000  Uiso   1.00
H723   H     0.65464   0.57335   0.04582   0.00000  Uiso   1.00
H724   H     0.63877   0.47332   0.15638   0.00000  Uiso   1.00
H725   H     0.44271   0.71563   0.16380   0.00000  Uiso   1.00
H726   H     0.72360   0.60318   0.97822   0.00000  Uiso   1.00
H727   H     0.69014   0.39225   0.21136   0.00000  Uiso   1.00
O728   O     0.44749   0.81511   0.20310   0.00000  Uiso   1.00
O729   O     0.81600   0.66758   0.95963   0.00000  Uiso   1.00
O730   O     0.77211   0.39085   0.26551   0.00000  Uiso   1.00
N731   N     0.54601   0.78947   0.19921   0.00000  Uiso   1.00
N732   N     0.80862   0.68434   0.02570   0.00000  Uiso   1.00
N733   N     0.77736   0.48714   0.24367   0.00000  Uiso   1.00
N734   N     0.48175   0.73118   0.17234   0.00000  Uiso   1.00
N735   N     0.74436   0.62606   0.99883   0.00000  Uiso   1.00
N736   N     0.71309   0.42886   0.21680   0.00000  Uiso   1.00
