data_job_00538
_audit_creation_date              2018-12-19
_audit_creation_method            'Materials Studio'
_symmetry_space_group_name_H-M    'P1'
_symmetry_Int_Tables_number       1
_symmetry_cell_setting            triclinic
loop_
_symmetry_equiv_pos_as_xyz
  x,y,z
_cell_length_a                    22.3184
_cell_length_b                    22.3184
_cell_length_c                    23.8884
_cell_angle_alpha                 90.0000
_cell_angle_beta                  90.0000
_cell_angle_gamma                 90.0000
loop_
_atom_site_label
_atom_site_type_symbol
_atom_site_fract_x
_atom_site_fract_y
_atom_site_fract_z
_atom_site_U_iso_or_equiv
_atom_site_adp_type
_atom_site_occupancy
C1     C     0.85582   0.08630   0.89008   0.00000  Uiso   1.00
C2     C     0.89626   0.12807   0.85655   0.00000  Uiso   1.00
C3     C     0.93662   0.11062   0.81547   0.00000  Uiso   1.00
C4     C     0.96948   0.15564   0.78966   0.00000  Uiso   1.00
C5     C     0.03340   0.21132   0.73536   0.00000  Uiso   1.00
C6     C     0.86999   0.09823   0.95153   0.00000  Uiso   1.00
C7     C     0.88826   0.05569   0.99032   0.00000  Uiso   1.00
C8     C     0.89899   0.07560   0.04446   0.00000  Uiso   1.00
C9     C     0.92208   0.08495   0.13763   0.00000  Uiso   1.00
C10    C     0.79203   0.10865   0.88082   0.00000  Uiso   1.00
C11    C     0.74473   0.07487   0.86016   0.00000  Uiso   1.00
C12    C     0.68982   0.10354   0.85479   0.00000  Uiso   1.00
C13    C     0.59186   0.12907   0.83817   0.00000  Uiso   1.00
C14    C     0.84240   0.19729   0.91728   0.00000  Uiso   1.00
C15    C     0.88897   0.18835   0.87132   0.00000  Uiso   1.00
C16    C     0.92177   0.23341   0.84556   0.00000  Uiso   1.00
C17    C     0.96218   0.21603   0.80445   0.00000  Uiso   1.00
C18    C     0.86270   0.15851   0.96630   0.00000  Uiso   1.00
C19    C     0.87341   0.17849   0.02040   0.00000  Uiso   1.00
C20    C     0.89169   0.13599   0.05926   0.00000  Uiso   1.00
C21    C     0.78473   0.16893   0.89559   0.00000  Uiso   1.00
C22    C     0.72988   0.19766   0.89025   0.00000  Uiso   1.00
C23    C     0.68252   0.16393   0.86959   0.00000  Uiso   1.00
H24    H     0.86150   0.03936   0.87859   0.00000  Uiso   1.00
H25    H     0.94225   0.06396   0.80406   0.00000  Uiso   1.00
H26    H     0.89389   0.00904   0.97887   0.00000  Uiso   1.00
H27    H     0.75039   0.02822   0.84874   0.00000  Uiso   1.00
H28    H     0.02859   0.11781   0.72796   0.00000  Uiso   1.00
H29    H     0.92659   0.00201   0.09657   0.00000  Uiso   1.00
H30    H     0.62399   0.04244   0.82216   0.00000  Uiso   1.00
H31    H     0.83672   0.24422   0.92878   0.00000  Uiso   1.00
H32    H     0.91612   0.28006   0.85700   0.00000  Uiso   1.00
H33    H     0.86776   0.22514   0.03182   0.00000  Uiso   1.00
H34    H     0.72426   0.24432   0.90168   0.00000  Uiso   1.00
H35    H     0.00738   0.29320   0.77093   0.00000  Uiso   1.00
H36    H     0.90538   0.17740   0.13954   0.00000  Uiso   1.00
H37    H     0.60278   0.21784   0.86513   0.00000  Uiso   1.00
O38    O     0.07067   0.22538   0.70133   0.00000  Uiso   1.00
O39    O     0.93684   0.07346   0.18494   0.00000  Uiso   1.00
O40    O     0.53985   0.12650   0.82491   0.00000  Uiso   1.00
N41    N     0.01269   0.15417   0.74791   0.00000  Uiso   1.00
N42    N     0.91734   0.04591   0.09254   0.00000  Uiso   1.00
N43    N     0.63443   0.08370   0.83600   0.00000  Uiso   1.00
N44    N     0.00128   0.24855   0.77103   0.00000  Uiso   1.00
N45    N     0.90593   0.14029   0.11566   0.00000  Uiso   1.00
N46    N     0.62302   0.17808   0.85912   0.00000  Uiso   1.00
C47    C     0.14418   0.91370   0.89008   0.00000  Uiso   1.00
C48    C     0.10374   0.87193   0.85655   0.00000  Uiso   1.00
C49    C     0.06338   0.88938   0.81547   0.00000  Uiso   1.00
C50    C     0.03052   0.84436   0.78966   0.00000  Uiso   1.00
C51    C     0.96660   0.78868   0.73536   0.00000  Uiso   1.00
C52    C     0.13001   0.90177   0.95153   0.00000  Uiso   1.00
C53    C     0.11174   0.94431   0.99032   0.00000  Uiso   1.00
C54    C     0.10101   0.92440   0.04446   0.00000  Uiso   1.00
C55    C     0.07792   0.91505   0.13763   0.00000  Uiso   1.00
C56    C     0.20797   0.89135   0.88082   0.00000  Uiso   1.00
C57    C     0.25527   0.92513   0.86016   0.00000  Uiso   1.00
C58    C     0.31018   0.89646   0.85479   0.00000  Uiso   1.00
C59    C     0.40814   0.87093   0.83817   0.00000  Uiso   1.00
C60    C     0.15760   0.80271   0.91728   0.00000  Uiso   1.00
C61    C     0.11103   0.81165   0.87132   0.00000  Uiso   1.00
C62    C     0.07823   0.76659   0.84556   0.00000  Uiso   1.00
C63    C     0.03782   0.78397   0.80445   0.00000  Uiso   1.00
C64    C     0.13730   0.84149   0.96630   0.00000  Uiso   1.00
C65    C     0.12659   0.82151   0.02040   0.00000  Uiso   1.00
C66    C     0.10831   0.86401   0.05926   0.00000  Uiso   1.00
C67    C     0.21527   0.83107   0.89559   0.00000  Uiso   1.00
C68    C     0.27012   0.80234   0.89025   0.00000  Uiso   1.00
C69    C     0.31748   0.83607   0.86959   0.00000  Uiso   1.00
H70    H     0.13850   0.96064   0.87859   0.00000  Uiso   1.00
H71    H     0.05775   0.93604   0.80406   0.00000  Uiso   1.00
H72    H     0.10611   0.99096   0.97887   0.00000  Uiso   1.00
H73    H     0.24961   0.97178   0.84874   0.00000  Uiso   1.00
H74    H     0.97141   0.88219   0.72796   0.00000  Uiso   1.00
H75    H     0.07341   0.99799   0.09657   0.00000  Uiso   1.00
H76    H     0.37601   0.95756   0.82216   0.00000  Uiso   1.00
H77    H     0.16328   0.75578   0.92878   0.00000  Uiso   1.00
H78    H     0.08388   0.71994   0.85700   0.00000  Uiso   1.00
H79    H     0.13224   0.77486   0.03182   0.00000  Uiso   1.00
H80    H     0.27574   0.75568   0.90168   0.00000  Uiso   1.00
H81    H     0.99262   0.70680   0.77093   0.00000  Uiso   1.00
H82    H     0.09462   0.82260   0.13954   0.00000  Uiso   1.00
H83    H     0.39722   0.78216   0.86513   0.00000  Uiso   1.00
O84    O     0.92933   0.77462   0.70133   0.00000  Uiso   1.00
O85    O     0.06316   0.92654   0.18494   0.00000  Uiso   1.00
O86    O     0.46015   0.87350   0.82491   0.00000  Uiso   1.00
N87    N     0.98731   0.84583   0.74791   0.00000  Uiso   1.00
N88    N     0.08266   0.95409   0.09254   0.00000  Uiso   1.00
N89    N     0.36557   0.91630   0.83600   0.00000  Uiso   1.00
N90    N     0.99872   0.75145   0.77103   0.00000  Uiso   1.00
N91    N     0.09407   0.85971   0.11566   0.00000  Uiso   1.00
N92    N     0.37698   0.82192   0.85912   0.00000  Uiso   1.00
C93    C     0.41370   0.35582   0.89008   0.00000  Uiso   1.00
C94    C     0.37193   0.39626   0.85655   0.00000  Uiso   1.00
C95    C     0.38938   0.43662   0.81547   0.00000  Uiso   1.00
C96    C     0.34436   0.46948   0.78966   0.00000  Uiso   1.00
C97    C     0.28868   0.53340   0.73536   0.00000  Uiso   1.00
C98    C     0.40177   0.36999   0.95153   0.00000  Uiso   1.00
C99    C     0.44431   0.38826   0.99032   0.00000  Uiso   1.00
C100   C     0.42440   0.39899   0.04446   0.00000  Uiso   1.00
C101   C     0.41505   0.42208   0.13763   0.00000  Uiso   1.00
C102   C     0.39135   0.29203   0.88082   0.00000  Uiso   1.00
C103   C     0.42513   0.24473   0.86016   0.00000  Uiso   1.00
C104   C     0.39646   0.18982   0.85479   0.00000  Uiso   1.00
C105   C     0.37093   0.09186   0.83817   0.00000  Uiso   1.00
C106   C     0.30271   0.34240   0.91728   0.00000  Uiso   1.00
C107   C     0.31165   0.38897   0.87132   0.00000  Uiso   1.00
C108   C     0.26659   0.42177   0.84556   0.00000  Uiso   1.00
C109   C     0.28397   0.46218   0.80445   0.00000  Uiso   1.00
C110   C     0.34149   0.36270   0.96630   0.00000  Uiso   1.00
C111   C     0.32151   0.37341   0.02040   0.00000  Uiso   1.00
C112   C     0.36401   0.39169   0.05926   0.00000  Uiso   1.00
C113   C     0.33107   0.28473   0.89559   0.00000  Uiso   1.00
C114   C     0.30234   0.22988   0.89025   0.00000  Uiso   1.00
C115   C     0.33607   0.18252   0.86959   0.00000  Uiso   1.00
H116   H     0.46064   0.36150   0.87859   0.00000  Uiso   1.00
H117   H     0.43604   0.44225   0.80406   0.00000  Uiso   1.00
H118   H     0.49096   0.39389   0.97887   0.00000  Uiso   1.00
H119   H     0.47178   0.25039   0.84874   0.00000  Uiso   1.00
H120   H     0.38219   0.52859   0.72796   0.00000  Uiso   1.00
H121   H     0.49799   0.42659   0.09657   0.00000  Uiso   1.00
H122   H     0.45756   0.12399   0.82216   0.00000  Uiso   1.00
H123   H     0.25578   0.33672   0.92878   0.00000  Uiso   1.00
H124   H     0.21994   0.41612   0.85700   0.00000  Uiso   1.00
H125   H     0.27486   0.36776   0.03182   0.00000  Uiso   1.00
H126   H     0.25568   0.22426   0.90168   0.00000  Uiso   1.00
H127   H     0.20680   0.50738   0.77093   0.00000  Uiso   1.00
H128   H     0.32260   0.40538   0.13954   0.00000  Uiso   1.00
H129   H     0.28216   0.10278   0.86513   0.00000  Uiso   1.00
O130   O     0.27462   0.57067   0.70133   0.00000  Uiso   1.00
O131   O     0.42654   0.43684   0.18494   0.00000  Uiso   1.00
O132   O     0.37350   0.03985   0.82491   0.00000  Uiso   1.00
N133   N     0.34583   0.51269   0.74791   0.00000  Uiso   1.00
N134   N     0.45409   0.41734   0.09254   0.00000  Uiso   1.00
N135   N     0.41630   0.13443   0.83600   0.00000  Uiso   1.00
N136   N     0.25145   0.50128   0.77103   0.00000  Uiso   1.00
N137   N     0.35971   0.40593   0.11566   0.00000  Uiso   1.00
N138   N     0.32192   0.12302   0.85912   0.00000  Uiso   1.00
C139   C     0.58630   0.64418   0.89008   0.00000  Uiso   1.00
C140   C     0.62807   0.60374   0.85655   0.00000  Uiso   1.00
C141   C     0.61062   0.56338   0.81547   0.00000  Uiso   1.00
C142   C     0.65564   0.53052   0.78966   0.00000  Uiso   1.00
C143   C     0.71132   0.46660   0.73536   0.00000  Uiso   1.00
C144   C     0.59823   0.63001   0.95153   0.00000  Uiso   1.00
C145   C     0.55569   0.61174   0.99032   0.00000  Uiso   1.00
C146   C     0.57560   0.60101   0.04446   0.00000  Uiso   1.00
C147   C     0.58495   0.57792   0.13763   0.00000  Uiso   1.00
C148   C     0.60865   0.70797   0.88082   0.00000  Uiso   1.00
C149   C     0.57487   0.75527   0.86016   0.00000  Uiso   1.00
C150   C     0.60354   0.81018   0.85479   0.00000  Uiso   1.00
C151   C     0.62907   0.90814   0.83817   0.00000  Uiso   1.00
C152   C     0.69729   0.65760   0.91728   0.00000  Uiso   1.00
C153   C     0.68835   0.61103   0.87132   0.00000  Uiso   1.00
C154   C     0.73341   0.57823   0.84556   0.00000  Uiso   1.00
C155   C     0.71603   0.53782   0.80445   0.00000  Uiso   1.00
C156   C     0.65851   0.63730   0.96630   0.00000  Uiso   1.00
C157   C     0.67849   0.62659   0.02040   0.00000  Uiso   1.00
C158   C     0.63599   0.60831   0.05926   0.00000  Uiso   1.00
C159   C     0.66893   0.71527   0.89559   0.00000  Uiso   1.00
C160   C     0.69766   0.77012   0.89025   0.00000  Uiso   1.00
C161   C     0.66393   0.81748   0.86959   0.00000  Uiso   1.00
H162   H     0.53936   0.63850   0.87859   0.00000  Uiso   1.00
H163   H     0.56396   0.55775   0.80406   0.00000  Uiso   1.00
H164   H     0.50904   0.60611   0.97887   0.00000  Uiso   1.00
H165   H     0.52822   0.74961   0.84874   0.00000  Uiso   1.00
H166   H     0.61781   0.47141   0.72796   0.00000  Uiso   1.00
H167   H     0.50201   0.57341   0.09657   0.00000  Uiso   1.00
H168   H     0.54244   0.87601   0.82216   0.00000  Uiso   1.00
H169   H     0.74422   0.66328   0.92878   0.00000  Uiso   1.00
H170   H     0.78006   0.58388   0.85700   0.00000  Uiso   1.00
H171   H     0.72514   0.63224   0.03182   0.00000  Uiso   1.00
H172   H     0.74432   0.77574   0.90168   0.00000  Uiso   1.00
H173   H     0.79320   0.49262   0.77093   0.00000  Uiso   1.00
H174   H     0.67740   0.59462   0.13954   0.00000  Uiso   1.00
H175   H     0.71784   0.89722   0.86513   0.00000  Uiso   1.00
O176   O     0.72538   0.42933   0.70133   0.00000  Uiso   1.00
O177   O     0.57346   0.56316   0.18494   0.00000  Uiso   1.00
O178   O     0.62650   0.96015   0.82491   0.00000  Uiso   1.00
N179   N     0.65417   0.48731   0.74791   0.00000  Uiso   1.00
N180   N     0.54591   0.58266   0.09254   0.00000  Uiso   1.00
N181   N     0.58370   0.86557   0.83600   0.00000  Uiso   1.00
N182   N     0.74855   0.49872   0.77103   0.00000  Uiso   1.00
N183   N     0.64029   0.59407   0.11566   0.00000  Uiso   1.00
N184   N     0.67808   0.87698   0.85912   0.00000  Uiso   1.00
C185   C     0.64418   0.58630   0.60992   0.00000  Uiso   1.00
C186   C     0.60374   0.62807   0.64345   0.00000  Uiso   1.00
C187   C     0.56338   0.61062   0.68453   0.00000  Uiso   1.00
C188   C     0.53052   0.65564   0.71034   0.00000  Uiso   1.00
C189   C     0.46660   0.71132   0.76464   0.00000  Uiso   1.00
C190   C     0.63001   0.59823   0.54847   0.00000  Uiso   1.00
C191   C     0.61174   0.55569   0.50968   0.00000  Uiso   1.00
C192   C     0.60101   0.57560   0.45554   0.00000  Uiso   1.00
C193   C     0.57792   0.58495   0.36237   0.00000  Uiso   1.00
C194   C     0.70797   0.60865   0.61918   0.00000  Uiso   1.00
C195   C     0.75527   0.57487   0.63984   0.00000  Uiso   1.00
C196   C     0.81018   0.60354   0.64521   0.00000  Uiso   1.00
C197   C     0.90814   0.62907   0.66183   0.00000  Uiso   1.00
C198   C     0.65760   0.69729   0.58272   0.00000  Uiso   1.00
C199   C     0.61103   0.68835   0.62868   0.00000  Uiso   1.00
C200   C     0.57823   0.73341   0.65444   0.00000  Uiso   1.00
C201   C     0.53782   0.71603   0.69555   0.00000  Uiso   1.00
C202   C     0.63730   0.65851   0.53370   0.00000  Uiso   1.00
C203   C     0.62659   0.67849   0.47960   0.00000  Uiso   1.00
C204   C     0.60831   0.63599   0.44074   0.00000  Uiso   1.00
C205   C     0.71527   0.66893   0.60441   0.00000  Uiso   1.00
C206   C     0.77012   0.69766   0.60975   0.00000  Uiso   1.00
C207   C     0.81748   0.66393   0.63041   0.00000  Uiso   1.00
H208   H     0.63850   0.53936   0.62141   0.00000  Uiso   1.00
H209   H     0.55775   0.56396   0.69594   0.00000  Uiso   1.00
H210   H     0.60611   0.50904   0.52113   0.00000  Uiso   1.00
H211   H     0.74961   0.52822   0.65126   0.00000  Uiso   1.00
H212   H     0.47141   0.61781   0.77204   0.00000  Uiso   1.00
H213   H     0.57341   0.50201   0.40343   0.00000  Uiso   1.00
H214   H     0.87601   0.54244   0.67784   0.00000  Uiso   1.00
H215   H     0.66328   0.74422   0.57122   0.00000  Uiso   1.00
H216   H     0.58388   0.78006   0.64300   0.00000  Uiso   1.00
H217   H     0.63224   0.72514   0.46818   0.00000  Uiso   1.00
H218   H     0.77574   0.74432   0.59832   0.00000  Uiso   1.00
H219   H     0.49262   0.79320   0.72907   0.00000  Uiso   1.00
H220   H     0.59462   0.67740   0.36046   0.00000  Uiso   1.00
H221   H     0.89722   0.71784   0.63487   0.00000  Uiso   1.00
O222   O     0.42933   0.72538   0.79867   0.00000  Uiso   1.00
O223   O     0.56316   0.57346   0.31506   0.00000  Uiso   1.00
O224   O     0.96015   0.62650   0.67509   0.00000  Uiso   1.00
N225   N     0.48731   0.65417   0.75209   0.00000  Uiso   1.00
N226   N     0.58266   0.54591   0.40746   0.00000  Uiso   1.00
N227   N     0.86557   0.58370   0.66400   0.00000  Uiso   1.00
N228   N     0.49872   0.74855   0.72897   0.00000  Uiso   1.00
N229   N     0.59407   0.64029   0.38434   0.00000  Uiso   1.00
N230   N     0.87698   0.67808   0.64088   0.00000  Uiso   1.00
C231   C     0.35582   0.41370   0.60992   0.00000  Uiso   1.00
C232   C     0.39626   0.37193   0.64345   0.00000  Uiso   1.00
C233   C     0.43662   0.38938   0.68453   0.00000  Uiso   1.00
C234   C     0.46948   0.34436   0.71034   0.00000  Uiso   1.00
C235   C     0.53340   0.28868   0.76464   0.00000  Uiso   1.00
C236   C     0.36999   0.40177   0.54847   0.00000  Uiso   1.00
C237   C     0.38826   0.44431   0.50968   0.00000  Uiso   1.00
C238   C     0.39899   0.42440   0.45554   0.00000  Uiso   1.00
C239   C     0.42208   0.41505   0.36237   0.00000  Uiso   1.00
C240   C     0.29203   0.39135   0.61918   0.00000  Uiso   1.00
C241   C     0.24473   0.42513   0.63984   0.00000  Uiso   1.00
C242   C     0.18982   0.39646   0.64521   0.00000  Uiso   1.00
C243   C     0.09186   0.37093   0.66183   0.00000  Uiso   1.00
C244   C     0.34240   0.30271   0.58272   0.00000  Uiso   1.00
C245   C     0.38897   0.31165   0.62868   0.00000  Uiso   1.00
C246   C     0.42177   0.26659   0.65444   0.00000  Uiso   1.00
C247   C     0.46218   0.28397   0.69555   0.00000  Uiso   1.00
C248   C     0.36270   0.34149   0.53370   0.00000  Uiso   1.00
C249   C     0.37341   0.32151   0.47960   0.00000  Uiso   1.00
C250   C     0.39169   0.36401   0.44074   0.00000  Uiso   1.00
C251   C     0.28473   0.33107   0.60441   0.00000  Uiso   1.00
C252   C     0.22988   0.30234   0.60975   0.00000  Uiso   1.00
C253   C     0.18252   0.33607   0.63041   0.00000  Uiso   1.00
H254   H     0.36150   0.46064   0.62141   0.00000  Uiso   1.00
H255   H     0.44225   0.43604   0.69594   0.00000  Uiso   1.00
H256   H     0.39389   0.49096   0.52113   0.00000  Uiso   1.00
H257   H     0.25039   0.47178   0.65126   0.00000  Uiso   1.00
H258   H     0.52859   0.38219   0.77204   0.00000  Uiso   1.00
H259   H     0.42659   0.49799   0.40343   0.00000  Uiso   1.00
H260   H     0.12399   0.45756   0.67784   0.00000  Uiso   1.00
H261   H     0.33672   0.25578   0.57122   0.00000  Uiso   1.00
H262   H     0.41612   0.21994   0.64300   0.00000  Uiso   1.00
H263   H     0.36776   0.27486   0.46818   0.00000  Uiso   1.00
H264   H     0.22426   0.25568   0.59832   0.00000  Uiso   1.00
H265   H     0.50738   0.20680   0.72907   0.00000  Uiso   1.00
H266   H     0.40538   0.32260   0.36046   0.00000  Uiso   1.00
H267   H     0.10278   0.28216   0.63487   0.00000  Uiso   1.00
O268   O     0.57067   0.27462   0.79867   0.00000  Uiso   1.00
O269   O     0.43684   0.42654   0.31506   0.00000  Uiso   1.00
O270   O     0.03985   0.37350   0.67509   0.00000  Uiso   1.00
N271   N     0.51269   0.34583   0.75209   0.00000  Uiso   1.00
N272   N     0.41734   0.45409   0.40746   0.00000  Uiso   1.00
N273   N     0.13443   0.41630   0.66400   0.00000  Uiso   1.00
N274   N     0.50128   0.25145   0.72897   0.00000  Uiso   1.00
N275   N     0.40593   0.35971   0.38434   0.00000  Uiso   1.00
N276   N     0.12302   0.32192   0.64088   0.00000  Uiso   1.00
C277   C     0.08630   0.85582   0.60992   0.00000  Uiso   1.00
C278   C     0.12807   0.89626   0.64345   0.00000  Uiso   1.00
C279   C     0.11062   0.93662   0.68453   0.00000  Uiso   1.00
C280   C     0.15564   0.96948   0.71034   0.00000  Uiso   1.00
C281   C     0.21132   0.03340   0.76464   0.00000  Uiso   1.00
C282   C     0.09823   0.86999   0.54847   0.00000  Uiso   1.00
C283   C     0.05569   0.88826   0.50968   0.00000  Uiso   1.00
C284   C     0.07560   0.89899   0.45554   0.00000  Uiso   1.00
C285   C     0.08495   0.92208   0.36237   0.00000  Uiso   1.00
C286   C     0.10865   0.79203   0.61918   0.00000  Uiso   1.00
C287   C     0.07487   0.74473   0.63984   0.00000  Uiso   1.00
C288   C     0.10354   0.68982   0.64521   0.00000  Uiso   1.00
C289   C     0.12907   0.59186   0.66183   0.00000  Uiso   1.00
C290   C     0.19729   0.84240   0.58272   0.00000  Uiso   1.00
C291   C     0.18835   0.88897   0.62868   0.00000  Uiso   1.00
C292   C     0.23341   0.92177   0.65444   0.00000  Uiso   1.00
C293   C     0.21603   0.96218   0.69555   0.00000  Uiso   1.00
C294   C     0.15851   0.86270   0.53370   0.00000  Uiso   1.00
C295   C     0.17849   0.87341   0.47960   0.00000  Uiso   1.00
C296   C     0.13599   0.89169   0.44074   0.00000  Uiso   1.00
C297   C     0.16893   0.78473   0.60441   0.00000  Uiso   1.00
C298   C     0.19766   0.72988   0.60975   0.00000  Uiso   1.00
C299   C     0.16393   0.68252   0.63041   0.00000  Uiso   1.00
H300   H     0.03936   0.86150   0.62141   0.00000  Uiso   1.00
H301   H     0.06396   0.94225   0.69594   0.00000  Uiso   1.00
H302   H     0.00904   0.89389   0.52113   0.00000  Uiso   1.00
H303   H     0.02822   0.75039   0.65126   0.00000  Uiso   1.00
H304   H     0.11781   0.02859   0.77204   0.00000  Uiso   1.00
H305   H     0.00201   0.92659   0.40343   0.00000  Uiso   1.00
H306   H     0.04244   0.62399   0.67784   0.00000  Uiso   1.00
H307   H     0.24422   0.83672   0.57122   0.00000  Uiso   1.00
H308   H     0.28006   0.91612   0.64300   0.00000  Uiso   1.00
H309   H     0.22514   0.86776   0.46818   0.00000  Uiso   1.00
H310   H     0.24432   0.72426   0.59832   0.00000  Uiso   1.00
H311   H     0.29320   0.00738   0.72907   0.00000  Uiso   1.00
H312   H     0.17740   0.90538   0.36046   0.00000  Uiso   1.00
H313   H     0.21784   0.60278   0.63487   0.00000  Uiso   1.00
O314   O     0.22538   0.07067   0.79867   0.00000  Uiso   1.00
O315   O     0.07346   0.93684   0.31506   0.00000  Uiso   1.00
O316   O     0.12650   0.53985   0.67509   0.00000  Uiso   1.00
N317   N     0.15417   0.01269   0.75209   0.00000  Uiso   1.00
N318   N     0.04591   0.91734   0.40746   0.00000  Uiso   1.00
N319   N     0.08370   0.63443   0.66400   0.00000  Uiso   1.00
N320   N     0.24855   0.00128   0.72897   0.00000  Uiso   1.00
N321   N     0.14029   0.90593   0.38434   0.00000  Uiso   1.00
N322   N     0.17808   0.62302   0.64088   0.00000  Uiso   1.00
C323   C     0.91370   0.14418   0.60992   0.00000  Uiso   1.00
C324   C     0.87193   0.10374   0.64345   0.00000  Uiso   1.00
C325   C     0.88938   0.06338   0.68453   0.00000  Uiso   1.00
C326   C     0.84436   0.03052   0.71034   0.00000  Uiso   1.00
C327   C     0.78868   0.96660   0.76464   0.00000  Uiso   1.00
C328   C     0.90177   0.13001   0.54847   0.00000  Uiso   1.00
C329   C     0.94431   0.11174   0.50968   0.00000  Uiso   1.00
C330   C     0.92440   0.10101   0.45554   0.00000  Uiso   1.00
C331   C     0.91505   0.07792   0.36237   0.00000  Uiso   1.00
C332   C     0.89135   0.20797   0.61918   0.00000  Uiso   1.00
C333   C     0.92513   0.25527   0.63984   0.00000  Uiso   1.00
C334   C     0.89646   0.31018   0.64521   0.00000  Uiso   1.00
C335   C     0.87093   0.40814   0.66183   0.00000  Uiso   1.00
C336   C     0.80271   0.15760   0.58272   0.00000  Uiso   1.00
C337   C     0.81165   0.11103   0.62868   0.00000  Uiso   1.00
C338   C     0.76659   0.07823   0.65444   0.00000  Uiso   1.00
C339   C     0.78397   0.03782   0.69555   0.00000  Uiso   1.00
C340   C     0.84149   0.13730   0.53370   0.00000  Uiso   1.00
C341   C     0.82151   0.12659   0.47960   0.00000  Uiso   1.00
C342   C     0.86401   0.10831   0.44074   0.00000  Uiso   1.00
C343   C     0.83107   0.21527   0.60441   0.00000  Uiso   1.00
C344   C     0.80234   0.27012   0.60975   0.00000  Uiso   1.00
C345   C     0.83607   0.31748   0.63041   0.00000  Uiso   1.00
H346   H     0.96064   0.13850   0.62141   0.00000  Uiso   1.00
H347   H     0.93604   0.05775   0.69594   0.00000  Uiso   1.00
H348   H     0.99096   0.10611   0.52113   0.00000  Uiso   1.00
H349   H     0.97178   0.24961   0.65126   0.00000  Uiso   1.00
H350   H     0.88219   0.97141   0.77204   0.00000  Uiso   1.00
H351   H     0.99799   0.07341   0.40343   0.00000  Uiso   1.00
H352   H     0.95756   0.37601   0.67784   0.00000  Uiso   1.00
H353   H     0.75578   0.16328   0.57122   0.00000  Uiso   1.00
H354   H     0.71994   0.08388   0.64300   0.00000  Uiso   1.00
H355   H     0.77486   0.13224   0.46818   0.00000  Uiso   1.00
H356   H     0.75568   0.27574   0.59832   0.00000  Uiso   1.00
H357   H     0.70680   0.99262   0.72907   0.00000  Uiso   1.00
H358   H     0.82260   0.09462   0.36046   0.00000  Uiso   1.00
H359   H     0.78216   0.39722   0.63487   0.00000  Uiso   1.00
O360   O     0.77462   0.92933   0.79867   0.00000  Uiso   1.00
O361   O     0.92654   0.06316   0.31506   0.00000  Uiso   1.00
O362   O     0.87350   0.46015   0.67509   0.00000  Uiso   1.00
N363   N     0.84583   0.98731   0.75209   0.00000  Uiso   1.00
N364   N     0.95409   0.08266   0.40746   0.00000  Uiso   1.00
N365   N     0.91630   0.36557   0.66400   0.00000  Uiso   1.00
N366   N     0.75145   0.99872   0.72897   0.00000  Uiso   1.00
N367   N     0.85971   0.09407   0.38434   0.00000  Uiso   1.00
N368   N     0.82192   0.37698   0.64088   0.00000  Uiso   1.00
C369   C     0.64418   0.41370   0.10992   0.00000  Uiso   1.00
C370   C     0.60374   0.37193   0.14345   0.00000  Uiso   1.00
C371   C     0.56338   0.38938   0.18453   0.00000  Uiso   1.00
C372   C     0.53052   0.34436   0.21034   0.00000  Uiso   1.00
C373   C     0.46660   0.28868   0.26464   0.00000  Uiso   1.00
C374   C     0.63001   0.40177   0.04847   0.00000  Uiso   1.00
C375   C     0.61174   0.44431   0.00968   0.00000  Uiso   1.00
C376   C     0.60101   0.42440   0.95554   0.00000  Uiso   1.00
C377   C     0.57792   0.41505   0.86237   0.00000  Uiso   1.00
C378   C     0.70797   0.39135   0.11918   0.00000  Uiso   1.00
C379   C     0.75527   0.42513   0.13984   0.00000  Uiso   1.00
C380   C     0.81018   0.39646   0.14521   0.00000  Uiso   1.00
C381   C     0.90814   0.37093   0.16183   0.00000  Uiso   1.00
C382   C     0.65760   0.30271   0.08272   0.00000  Uiso   1.00
C383   C     0.61103   0.31165   0.12868   0.00000  Uiso   1.00
C384   C     0.57823   0.26659   0.15444   0.00000  Uiso   1.00
C385   C     0.53782   0.28397   0.19555   0.00000  Uiso   1.00
C386   C     0.63730   0.34149   0.03370   0.00000  Uiso   1.00
C387   C     0.62659   0.32151   0.97960   0.00000  Uiso   1.00
C388   C     0.60831   0.36401   0.94074   0.00000  Uiso   1.00
C389   C     0.71527   0.33107   0.10441   0.00000  Uiso   1.00
C390   C     0.77012   0.30234   0.10975   0.00000  Uiso   1.00
C391   C     0.81748   0.33607   0.13041   0.00000  Uiso   1.00
H392   H     0.63850   0.46064   0.12141   0.00000  Uiso   1.00
H393   H     0.55775   0.43604   0.19594   0.00000  Uiso   1.00
H394   H     0.60611   0.49096   0.02113   0.00000  Uiso   1.00
H395   H     0.74961   0.47178   0.15126   0.00000  Uiso   1.00
H396   H     0.47141   0.38219   0.27204   0.00000  Uiso   1.00
H397   H     0.57341   0.49799   0.90343   0.00000  Uiso   1.00
H398   H     0.87601   0.45756   0.17784   0.00000  Uiso   1.00
H399   H     0.66328   0.25578   0.07122   0.00000  Uiso   1.00
H400   H     0.58388   0.21994   0.14300   0.00000  Uiso   1.00
H401   H     0.63224   0.27486   0.96818   0.00000  Uiso   1.00
H402   H     0.77574   0.25568   0.09832   0.00000  Uiso   1.00
H403   H     0.49262   0.20680   0.22907   0.00000  Uiso   1.00
H404   H     0.59462   0.32260   0.86046   0.00000  Uiso   1.00
H405   H     0.89722   0.28216   0.13487   0.00000  Uiso   1.00
O406   O     0.42933   0.27462   0.29867   0.00000  Uiso   1.00
O407   O     0.56316   0.42654   0.81506   0.00000  Uiso   1.00
O408   O     0.96015   0.37350   0.17509   0.00000  Uiso   1.00
N409   N     0.48731   0.34583   0.25209   0.00000  Uiso   1.00
N410   N     0.58266   0.45409   0.90746   0.00000  Uiso   1.00
N411   N     0.86557   0.41630   0.16400   0.00000  Uiso   1.00
N412   N     0.49872   0.25145   0.22897   0.00000  Uiso   1.00
N413   N     0.59407   0.35971   0.88434   0.00000  Uiso   1.00
N414   N     0.87698   0.32192   0.14088   0.00000  Uiso   1.00
C415   C     0.35582   0.58630   0.10992   0.00000  Uiso   1.00
C416   C     0.39626   0.62807   0.14345   0.00000  Uiso   1.00
C417   C     0.43662   0.61062   0.18453   0.00000  Uiso   1.00
C418   C     0.46948   0.65564   0.21034   0.00000  Uiso   1.00
C419   C     0.53340   0.71132   0.26464   0.00000  Uiso   1.00
C420   C     0.36999   0.59823   0.04847   0.00000  Uiso   1.00
C421   C     0.38826   0.55569   0.00968   0.00000  Uiso   1.00
C422   C     0.39899   0.57560   0.95554   0.00000  Uiso   1.00
C423   C     0.42208   0.58495   0.86237   0.00000  Uiso   1.00
C424   C     0.29203   0.60865   0.11918   0.00000  Uiso   1.00
C425   C     0.24473   0.57487   0.13984   0.00000  Uiso   1.00
C426   C     0.18982   0.60354   0.14521   0.00000  Uiso   1.00
C427   C     0.09186   0.62907   0.16183   0.00000  Uiso   1.00
C428   C     0.34240   0.69729   0.08272   0.00000  Uiso   1.00
C429   C     0.38897   0.68835   0.12868   0.00000  Uiso   1.00
C430   C     0.42177   0.73341   0.15444   0.00000  Uiso   1.00
C431   C     0.46218   0.71603   0.19555   0.00000  Uiso   1.00
C432   C     0.36270   0.65851   0.03370   0.00000  Uiso   1.00
C433   C     0.37341   0.67849   0.97960   0.00000  Uiso   1.00
C434   C     0.39169   0.63599   0.94074   0.00000  Uiso   1.00
C435   C     0.28473   0.66893   0.10441   0.00000  Uiso   1.00
C436   C     0.22988   0.69766   0.10975   0.00000  Uiso   1.00
C437   C     0.18252   0.66393   0.13041   0.00000  Uiso   1.00
H438   H     0.36150   0.53936   0.12141   0.00000  Uiso   1.00
H439   H     0.44225   0.56396   0.19594   0.00000  Uiso   1.00
H440   H     0.39389   0.50904   0.02113   0.00000  Uiso   1.00
H441   H     0.25039   0.52822   0.15126   0.00000  Uiso   1.00
H442   H     0.52859   0.61781   0.27204   0.00000  Uiso   1.00
H443   H     0.42659   0.50201   0.90343   0.00000  Uiso   1.00
H444   H     0.12399   0.54244   0.17784   0.00000  Uiso   1.00
H445   H     0.33672   0.74422   0.07122   0.00000  Uiso   1.00
H446   H     0.41612   0.78006   0.14300   0.00000  Uiso   1.00
H447   H     0.36776   0.72514   0.96818   0.00000  Uiso   1.00
H448   H     0.22426   0.74432   0.09832   0.00000  Uiso   1.00
H449   H     0.50738   0.79320   0.22907   0.00000  Uiso   1.00
H450   H     0.40538   0.67740   0.86046   0.00000  Uiso   1.00
H451   H     0.10278   0.71784   0.13487   0.00000  Uiso   1.00
O452   O     0.57067   0.72538   0.29867   0.00000  Uiso   1.00
O453   O     0.43684   0.57346   0.81506   0.00000  Uiso   1.00
O454   O     0.03985   0.62650   0.17509   0.00000  Uiso   1.00
N455   N     0.51269   0.65417   0.25209   0.00000  Uiso   1.00
N456   N     0.41734   0.54591   0.90746   0.00000  Uiso   1.00
N457   N     0.13443   0.58370   0.16400   0.00000  Uiso   1.00
N458   N     0.50128   0.74855   0.22897   0.00000  Uiso   1.00
N459   N     0.40593   0.64029   0.88434   0.00000  Uiso   1.00
N460   N     0.12302   0.67808   0.14088   0.00000  Uiso   1.00
C461   C     0.08630   0.14418   0.10992   0.00000  Uiso   1.00
C462   C     0.12807   0.10374   0.14345   0.00000  Uiso   1.00
C463   C     0.11062   0.06338   0.18453   0.00000  Uiso   1.00
C464   C     0.15564   0.03052   0.21034   0.00000  Uiso   1.00
C465   C     0.21132   0.96660   0.26464   0.00000  Uiso   1.00
C466   C     0.09823   0.13001   0.04847   0.00000  Uiso   1.00
C467   C     0.05569   0.11174   0.00968   0.00000  Uiso   1.00
C468   C     0.07560   0.10101   0.95554   0.00000  Uiso   1.00
C469   C     0.08495   0.07792   0.86237   0.00000  Uiso   1.00
C470   C     0.10865   0.20797   0.11918   0.00000  Uiso   1.00
C471   C     0.07487   0.25527   0.13984   0.00000  Uiso   1.00
C472   C     0.10354   0.31018   0.14521   0.00000  Uiso   1.00
C473   C     0.12907   0.40814   0.16183   0.00000  Uiso   1.00
C474   C     0.19729   0.15760   0.08272   0.00000  Uiso   1.00
C475   C     0.18835   0.11103   0.12868   0.00000  Uiso   1.00
C476   C     0.23341   0.07823   0.15444   0.00000  Uiso   1.00
C477   C     0.21603   0.03782   0.19555   0.00000  Uiso   1.00
C478   C     0.15851   0.13730   0.03370   0.00000  Uiso   1.00
C479   C     0.17849   0.12659   0.97960   0.00000  Uiso   1.00
C480   C     0.13599   0.10831   0.94074   0.00000  Uiso   1.00
C481   C     0.16893   0.21527   0.10441   0.00000  Uiso   1.00
C482   C     0.19766   0.27012   0.10975   0.00000  Uiso   1.00
C483   C     0.16393   0.31748   0.13041   0.00000  Uiso   1.00
H484   H     0.03936   0.13850   0.12141   0.00000  Uiso   1.00
H485   H     0.06396   0.05775   0.19594   0.00000  Uiso   1.00
H486   H     0.00904   0.10611   0.02113   0.00000  Uiso   1.00
H487   H     0.02822   0.24961   0.15126   0.00000  Uiso   1.00
H488   H     0.11781   0.97141   0.27204   0.00000  Uiso   1.00
H489   H     0.00201   0.07341   0.90343   0.00000  Uiso   1.00
H490   H     0.04244   0.37601   0.17784   0.00000  Uiso   1.00
H491   H     0.24422   0.16328   0.07122   0.00000  Uiso   1.00
H492   H     0.28006   0.08388   0.14300   0.00000  Uiso   1.00
H493   H     0.22514   0.13224   0.96818   0.00000  Uiso   1.00
H494   H     0.24432   0.27574   0.09832   0.00000  Uiso   1.00
H495   H     0.29320   0.99262   0.22907   0.00000  Uiso   1.00
H496   H     0.17740   0.09462   0.86046   0.00000  Uiso   1.00
H497   H     0.21784   0.39722   0.13487   0.00000  Uiso   1.00
O498   O     0.22538   0.92933   0.29867   0.00000  Uiso   1.00
O499   O     0.07346   0.06316   0.81506   0.00000  Uiso   1.00
O500   O     0.12650   0.46015   0.17509   0.00000  Uiso   1.00
N501   N     0.15417   0.98731   0.25209   0.00000  Uiso   1.00
N502   N     0.04591   0.08266   0.90746   0.00000  Uiso   1.00
N503   N     0.08370   0.36557   0.16400   0.00000  Uiso   1.00
N504   N     0.24855   0.99872   0.22897   0.00000  Uiso   1.00
N505   N     0.14029   0.09407   0.88434   0.00000  Uiso   1.00
N506   N     0.17808   0.37698   0.14088   0.00000  Uiso   1.00
C507   C     0.91370   0.85582   0.10992   0.00000  Uiso   1.00
C508   C     0.87193   0.89626   0.14345   0.00000  Uiso   1.00
C509   C     0.88938   0.93662   0.18453   0.00000  Uiso   1.00
C510   C     0.84436   0.96948   0.21034   0.00000  Uiso   1.00
C511   C     0.78868   0.03340   0.26464   0.00000  Uiso   1.00
C512   C     0.90177   0.86999   0.04847   0.00000  Uiso   1.00
C513   C     0.94431   0.88826   0.00968   0.00000  Uiso   1.00
C514   C     0.92440   0.89899   0.95554   0.00000  Uiso   1.00
C515   C     0.91505   0.92208   0.86237   0.00000  Uiso   1.00
C516   C     0.89135   0.79203   0.11918   0.00000  Uiso   1.00
C517   C     0.92513   0.74473   0.13984   0.00000  Uiso   1.00
C518   C     0.89646   0.68982   0.14521   0.00000  Uiso   1.00
C519   C     0.87093   0.59186   0.16183   0.00000  Uiso   1.00
C520   C     0.80271   0.84240   0.08272   0.00000  Uiso   1.00
C521   C     0.81165   0.88897   0.12868   0.00000  Uiso   1.00
C522   C     0.76659   0.92177   0.15444   0.00000  Uiso   1.00
C523   C     0.78397   0.96218   0.19555   0.00000  Uiso   1.00
C524   C     0.84149   0.86270   0.03370   0.00000  Uiso   1.00
C525   C     0.82151   0.87341   0.97960   0.00000  Uiso   1.00
C526   C     0.86401   0.89169   0.94074   0.00000  Uiso   1.00
C527   C     0.83107   0.78473   0.10441   0.00000  Uiso   1.00
C528   C     0.80234   0.72988   0.10975   0.00000  Uiso   1.00
C529   C     0.83607   0.68252   0.13041   0.00000  Uiso   1.00
H530   H     0.96064   0.86150   0.12141   0.00000  Uiso   1.00
H531   H     0.93604   0.94225   0.19594   0.00000  Uiso   1.00
H532   H     0.99096   0.89389   0.02113   0.00000  Uiso   1.00
H533   H     0.97178   0.75039   0.15126   0.00000  Uiso   1.00
H534   H     0.88219   0.02859   0.27204   0.00000  Uiso   1.00
H535   H     0.99799   0.92659   0.90343   0.00000  Uiso   1.00
H536   H     0.95756   0.62399   0.17784   0.00000  Uiso   1.00
H537   H     0.75578   0.83672   0.07122   0.00000  Uiso   1.00
H538   H     0.71994   0.91612   0.14300   0.00000  Uiso   1.00
H539   H     0.77486   0.86776   0.96818   0.00000  Uiso   1.00
H540   H     0.75568   0.72426   0.09832   0.00000  Uiso   1.00
H541   H     0.70680   0.00738   0.22907   0.00000  Uiso   1.00
H542   H     0.82260   0.90538   0.86046   0.00000  Uiso   1.00
H543   H     0.78216   0.60278   0.13487   0.00000  Uiso   1.00
O544   O     0.77462   0.07067   0.29867   0.00000  Uiso   1.00
O545   O     0.92654   0.93684   0.81506   0.00000  Uiso   1.00
O546   O     0.87350   0.53985   0.17509   0.00000  Uiso   1.00
N547   N     0.84583   0.01269   0.25209   0.00000  Uiso   1.00
N548   N     0.95409   0.91734   0.90746   0.00000  Uiso   1.00
N549   N     0.91630   0.63443   0.16400   0.00000  Uiso   1.00
N550   N     0.75145   0.00128   0.22897   0.00000  Uiso   1.00
N551   N     0.85971   0.90593   0.88434   0.00000  Uiso   1.00
N552   N     0.82192   0.62302   0.14088   0.00000  Uiso   1.00
C553   C     0.85582   0.91370   0.39008   0.00000  Uiso   1.00
C554   C     0.89626   0.87193   0.35655   0.00000  Uiso   1.00
C555   C     0.93662   0.88938   0.31547   0.00000  Uiso   1.00
C556   C     0.96948   0.84436   0.28966   0.00000  Uiso   1.00
C557   C     0.03340   0.78868   0.23536   0.00000  Uiso   1.00
C558   C     0.86999   0.90177   0.45153   0.00000  Uiso   1.00
C559   C     0.88826   0.94431   0.49032   0.00000  Uiso   1.00
C560   C     0.89899   0.92440   0.54446   0.00000  Uiso   1.00
C561   C     0.92208   0.91505   0.63763   0.00000  Uiso   1.00
C562   C     0.79203   0.89135   0.38082   0.00000  Uiso   1.00
C563   C     0.74473   0.92513   0.36016   0.00000  Uiso   1.00
C564   C     0.68982   0.89646   0.35479   0.00000  Uiso   1.00
C565   C     0.59186   0.87093   0.33817   0.00000  Uiso   1.00
C566   C     0.84240   0.80271   0.41728   0.00000  Uiso   1.00
C567   C     0.88897   0.81165   0.37132   0.00000  Uiso   1.00
C568   C     0.92177   0.76659   0.34556   0.00000  Uiso   1.00
C569   C     0.96218   0.78397   0.30445   0.00000  Uiso   1.00
C570   C     0.86270   0.84149   0.46630   0.00000  Uiso   1.00
C571   C     0.87341   0.82151   0.52040   0.00000  Uiso   1.00
C572   C     0.89169   0.86401   0.55926   0.00000  Uiso   1.00
C573   C     0.78473   0.83107   0.39559   0.00000  Uiso   1.00
C574   C     0.72988   0.80234   0.39025   0.00000  Uiso   1.00
C575   C     0.68252   0.83607   0.36959   0.00000  Uiso   1.00
H576   H     0.86150   0.96064   0.37859   0.00000  Uiso   1.00
H577   H     0.94225   0.93604   0.30406   0.00000  Uiso   1.00
H578   H     0.89389   0.99096   0.47887   0.00000  Uiso   1.00
H579   H     0.75039   0.97178   0.34874   0.00000  Uiso   1.00
H580   H     0.02859   0.88219   0.22796   0.00000  Uiso   1.00
H581   H     0.92659   0.99799   0.59657   0.00000  Uiso   1.00
H582   H     0.62399   0.95756   0.32216   0.00000  Uiso   1.00
H583   H     0.83672   0.75578   0.42878   0.00000  Uiso   1.00
H584   H     0.91612   0.71994   0.35700   0.00000  Uiso   1.00
H585   H     0.86776   0.77486   0.53182   0.00000  Uiso   1.00
H586   H     0.72426   0.75568   0.40168   0.00000  Uiso   1.00
H587   H     0.00738   0.70680   0.27093   0.00000  Uiso   1.00
H588   H     0.90538   0.82260   0.63954   0.00000  Uiso   1.00
H589   H     0.60278   0.78216   0.36513   0.00000  Uiso   1.00
O590   O     0.07067   0.77462   0.20133   0.00000  Uiso   1.00
O591   O     0.93684   0.92654   0.68494   0.00000  Uiso   1.00
O592   O     0.53985   0.87350   0.32491   0.00000  Uiso   1.00
N593   N     0.01269   0.84583   0.24791   0.00000  Uiso   1.00
N594   N     0.91734   0.95409   0.59254   0.00000  Uiso   1.00
N595   N     0.63443   0.91630   0.33600   0.00000  Uiso   1.00
N596   N     0.00128   0.75145   0.27103   0.00000  Uiso   1.00
N597   N     0.90593   0.85971   0.61566   0.00000  Uiso   1.00
N598   N     0.62302   0.82192   0.35912   0.00000  Uiso   1.00
C599   C     0.14418   0.08630   0.39008   0.00000  Uiso   1.00
C600   C     0.10374   0.12807   0.35655   0.00000  Uiso   1.00
C601   C     0.06338   0.11062   0.31547   0.00000  Uiso   1.00
C602   C     0.03052   0.15564   0.28966   0.00000  Uiso   1.00
C603   C     0.96660   0.21132   0.23536   0.00000  Uiso   1.00
C604   C     0.13001   0.09823   0.45153   0.00000  Uiso   1.00
C605   C     0.11174   0.05569   0.49032   0.00000  Uiso   1.00
C606   C     0.10101   0.07560   0.54446   0.00000  Uiso   1.00
C607   C     0.07792   0.08495   0.63763   0.00000  Uiso   1.00
C608   C     0.20797   0.10865   0.38082   0.00000  Uiso   1.00
C609   C     0.25527   0.07487   0.36016   0.00000  Uiso   1.00
C610   C     0.31018   0.10354   0.35479   0.00000  Uiso   1.00
C611   C     0.40814   0.12907   0.33817   0.00000  Uiso   1.00
C612   C     0.15760   0.19729   0.41728   0.00000  Uiso   1.00
C613   C     0.11103   0.18835   0.37132   0.00000  Uiso   1.00
C614   C     0.07823   0.23341   0.34556   0.00000  Uiso   1.00
C615   C     0.03782   0.21603   0.30445   0.00000  Uiso   1.00
C616   C     0.13730   0.15851   0.46630   0.00000  Uiso   1.00
C617   C     0.12659   0.17849   0.52040   0.00000  Uiso   1.00
C618   C     0.10831   0.13599   0.55926   0.00000  Uiso   1.00
C619   C     0.21527   0.16893   0.39559   0.00000  Uiso   1.00
C620   C     0.27012   0.19766   0.39025   0.00000  Uiso   1.00
C621   C     0.31748   0.16393   0.36959   0.00000  Uiso   1.00
H622   H     0.13850   0.03936   0.37859   0.00000  Uiso   1.00
H623   H     0.05775   0.06396   0.30406   0.00000  Uiso   1.00
H624   H     0.10611   0.00904   0.47887   0.00000  Uiso   1.00
H625   H     0.24961   0.02822   0.34874   0.00000  Uiso   1.00
H626   H     0.97141   0.11781   0.22796   0.00000  Uiso   1.00
H627   H     0.07341   0.00201   0.59657   0.00000  Uiso   1.00
H628   H     0.37601   0.04244   0.32216   0.00000  Uiso   1.00
H629   H     0.16328   0.24422   0.42878   0.00000  Uiso   1.00
H630   H     0.08388   0.28006   0.35700   0.00000  Uiso   1.00
H631   H     0.13224   0.22514   0.53182   0.00000  Uiso   1.00
H632   H     0.27574   0.24432   0.40168   0.00000  Uiso   1.00
H633   H     0.99262   0.29320   0.27093   0.00000  Uiso   1.00
H634   H     0.09462   0.17740   0.63954   0.00000  Uiso   1.00
H635   H     0.39722   0.21784   0.36513   0.00000  Uiso   1.00
O636   O     0.92933   0.22538   0.20133   0.00000  Uiso   1.00
O637   O     0.06316   0.07346   0.68494   0.00000  Uiso   1.00
O638   O     0.46015   0.12650   0.32491   0.00000  Uiso   1.00
N639   N     0.98731   0.15417   0.24791   0.00000  Uiso   1.00
N640   N     0.08266   0.04591   0.59254   0.00000  Uiso   1.00
N641   N     0.36557   0.08370   0.33600   0.00000  Uiso   1.00
N642   N     0.99872   0.24855   0.27103   0.00000  Uiso   1.00
N643   N     0.09407   0.14029   0.61566   0.00000  Uiso   1.00
N644   N     0.37698   0.17808   0.35912   0.00000  Uiso   1.00
C645   C     0.41370   0.64418   0.39008   0.00000  Uiso   1.00
C646   C     0.37193   0.60374   0.35655   0.00000  Uiso   1.00
C647   C     0.38938   0.56338   0.31547   0.00000  Uiso   1.00
C648   C     0.34436   0.53052   0.28966   0.00000  Uiso   1.00
C649   C     0.28868   0.46660   0.23536   0.00000  Uiso   1.00
C650   C     0.40177   0.63001   0.45153   0.00000  Uiso   1.00
C651   C     0.44431   0.61174   0.49032   0.00000  Uiso   1.00
C652   C     0.42440   0.60101   0.54446   0.00000  Uiso   1.00
C653   C     0.41505   0.57792   0.63763   0.00000  Uiso   1.00
C654   C     0.39135   0.70797   0.38082   0.00000  Uiso   1.00
C655   C     0.42513   0.75527   0.36016   0.00000  Uiso   1.00
C656   C     0.39646   0.81018   0.35479   0.00000  Uiso   1.00
C657   C     0.37093   0.90814   0.33817   0.00000  Uiso   1.00
C658   C     0.30271   0.65760   0.41728   0.00000  Uiso   1.00
C659   C     0.31165   0.61103   0.37132   0.00000  Uiso   1.00
C660   C     0.26659   0.57823   0.34556   0.00000  Uiso   1.00
C661   C     0.28397   0.53782   0.30445   0.00000  Uiso   1.00
C662   C     0.34149   0.63730   0.46630   0.00000  Uiso   1.00
C663   C     0.32151   0.62659   0.52040   0.00000  Uiso   1.00
C664   C     0.36401   0.60831   0.55926   0.00000  Uiso   1.00
C665   C     0.33107   0.71527   0.39559   0.00000  Uiso   1.00
C666   C     0.30234   0.77012   0.39025   0.00000  Uiso   1.00
C667   C     0.33607   0.81748   0.36959   0.00000  Uiso   1.00
H668   H     0.46064   0.63850   0.37859   0.00000  Uiso   1.00
H669   H     0.43604   0.55775   0.30406   0.00000  Uiso   1.00
H670   H     0.49096   0.60611   0.47887   0.00000  Uiso   1.00
H671   H     0.47178   0.74961   0.34874   0.00000  Uiso   1.00
H672   H     0.38219   0.47141   0.22796   0.00000  Uiso   1.00
H673   H     0.49799   0.57341   0.59657   0.00000  Uiso   1.00
H674   H     0.45756   0.87601   0.32216   0.00000  Uiso   1.00
H675   H     0.25578   0.66328   0.42878   0.00000  Uiso   1.00
H676   H     0.21994   0.58388   0.35700   0.00000  Uiso   1.00
H677   H     0.27486   0.63224   0.53182   0.00000  Uiso   1.00
H678   H     0.25568   0.77574   0.40168   0.00000  Uiso   1.00
H679   H     0.20680   0.49262   0.27093   0.00000  Uiso   1.00
H680   H     0.32260   0.59462   0.63954   0.00000  Uiso   1.00
H681   H     0.28216   0.89722   0.36513   0.00000  Uiso   1.00
O682   O     0.27462   0.42933   0.20133   0.00000  Uiso   1.00
O683   O     0.42654   0.56316   0.68494   0.00000  Uiso   1.00
O684   O     0.37350   0.96015   0.32491   0.00000  Uiso   1.00
N685   N     0.34583   0.48731   0.24791   0.00000  Uiso   1.00
N686   N     0.45409   0.58266   0.59254   0.00000  Uiso   1.00
N687   N     0.41630   0.86557   0.33600   0.00000  Uiso   1.00
N688   N     0.25145   0.49872   0.27103   0.00000  Uiso   1.00
N689   N     0.35971   0.59407   0.61566   0.00000  Uiso   1.00
N690   N     0.32192   0.87698   0.35912   0.00000  Uiso   1.00
C691   C     0.58630   0.35582   0.39008   0.00000  Uiso   1.00
C692   C     0.62807   0.39626   0.35655   0.00000  Uiso   1.00
C693   C     0.61062   0.43662   0.31547   0.00000  Uiso   1.00
C694   C     0.65564   0.46948   0.28966   0.00000  Uiso   1.00
C695   C     0.71132   0.53340   0.23536   0.00000  Uiso   1.00
C696   C     0.59823   0.36999   0.45153   0.00000  Uiso   1.00
C697   C     0.55569   0.38826   0.49032   0.00000  Uiso   1.00
C698   C     0.57560   0.39899   0.54446   0.00000  Uiso   1.00
C699   C     0.58495   0.42208   0.63763   0.00000  Uiso   1.00
C700   C     0.60865   0.29203   0.38082   0.00000  Uiso   1.00
C701   C     0.57487   0.24473   0.36016   0.00000  Uiso   1.00
C702   C     0.60354   0.18982   0.35479   0.00000  Uiso   1.00
C703   C     0.62907   0.09186   0.33817   0.00000  Uiso   1.00
C704   C     0.69729   0.34240   0.41728   0.00000  Uiso   1.00
C705   C     0.68835   0.38897   0.37132   0.00000  Uiso   1.00
C706   C     0.73341   0.42177   0.34556   0.00000  Uiso   1.00
C707   C     0.71603   0.46218   0.30445   0.00000  Uiso   1.00
C708   C     0.65851   0.36270   0.46630   0.00000  Uiso   1.00
C709   C     0.67849   0.37341   0.52040   0.00000  Uiso   1.00
C710   C     0.63599   0.39169   0.55926   0.00000  Uiso   1.00
C711   C     0.66893   0.28473   0.39559   0.00000  Uiso   1.00
C712   C     0.69766   0.22988   0.39025   0.00000  Uiso   1.00
C713   C     0.66393   0.18252   0.36959   0.00000  Uiso   1.00
H714   H     0.53936   0.36150   0.37859   0.00000  Uiso   1.00
H715   H     0.56396   0.44225   0.30406   0.00000  Uiso   1.00
H716   H     0.50904   0.39389   0.47887   0.00000  Uiso   1.00
H717   H     0.52822   0.25039   0.34874   0.00000  Uiso   1.00
H718   H     0.61781   0.52859   0.22796   0.00000  Uiso   1.00
H719   H     0.50201   0.42659   0.59657   0.00000  Uiso   1.00
H720   H     0.54244   0.12399   0.32216   0.00000  Uiso   1.00
H721   H     0.74422   0.33672   0.42878   0.00000  Uiso   1.00
H722   H     0.78006   0.41612   0.35700   0.00000  Uiso   1.00
H723   H     0.72514   0.36776   0.53182   0.00000  Uiso   1.00
H724   H     0.74432   0.22426   0.40168   0.00000  Uiso   1.00
H725   H     0.79320   0.50738   0.27093   0.00000  Uiso   1.00
H726   H     0.67740   0.40538   0.63954   0.00000  Uiso   1.00
H727   H     0.71784   0.10278   0.36513   0.00000  Uiso   1.00
O728   O     0.72538   0.57067   0.20133   0.00000  Uiso   1.00
O729   O     0.57346   0.43684   0.68494   0.00000  Uiso   1.00
O730   O     0.62650   0.03985   0.32491   0.00000  Uiso   1.00
N731   N     0.65417   0.51269   0.24791   0.00000  Uiso   1.00
N732   N     0.54591   0.41734   0.59254   0.00000  Uiso   1.00
N733   N     0.58370   0.13443   0.33600   0.00000  Uiso   1.00
N734   N     0.74855   0.50128   0.27103   0.00000  Uiso   1.00
N735   N     0.64029   0.40593   0.61566   0.00000  Uiso   1.00
N736   N     0.67808   0.12302   0.35912   0.00000  Uiso   1.00
