data_job_05196
_audit_creation_date              2018-12-19
_audit_creation_method            'Materials Studio'
_symmetry_space_group_name_H-M    'P1'
_symmetry_Int_Tables_number       1
_symmetry_cell_setting            triclinic
loop_
_symmetry_equiv_pos_as_xyz
  x,y,z
_cell_length_a                    28.3366
_cell_length_b                    19.7998
_cell_length_c                    15.2464
_cell_angle_alpha                 90.0000
_cell_angle_beta                  90.0000
_cell_angle_gamma                 90.0000
loop_
_atom_site_label
_atom_site_type_symbol
_atom_site_fract_x
_atom_site_fract_y
_atom_site_fract_z
_atom_site_U_iso_or_equiv
_atom_site_adp_type
_atom_site_occupancy
C1     C     0.49219   0.28596   0.51957   0.00000  Uiso   1.00
C2     C     0.48195   0.22456   0.57689   0.00000  Uiso   1.00
C3     C     0.46419   0.22622   0.66169   0.00000  Uiso   1.00
C4     C     0.45730   0.16455   0.70309   0.00000  Uiso   1.00
C5     C     0.43983   0.07852   0.79849   0.00000  Uiso   1.00
C6     C     0.54398   0.28043   0.49334   0.00000  Uiso   1.00
C7     C     0.57836   0.32907   0.50788   0.00000  Uiso   1.00
C8     C     0.62368   0.31443   0.47893   0.00000  Uiso   1.00
C9     C     0.70250   0.31516   0.44456   0.00000  Uiso   1.00
C10    C     0.46389   0.27579   0.43553   0.00000  Uiso   1.00
C11    C     0.43095   0.32054   0.40145   0.00000  Uiso   1.00
C12    C     0.40885   0.30200   0.32382   0.00000  Uiso   1.00
C13    C     0.36332   0.29552   0.19969   0.00000  Uiso   1.00
C14    C     0.51152   0.17348   0.44229   0.00000  Uiso   1.00
C15    C     0.49245   0.16347   0.53491   0.00000  Uiso   1.00
C16    C     0.48558   0.10178   0.57619   0.00000  Uiso   1.00
C17    C     0.46782   0.10335   0.66104   0.00000  Uiso   1.00
C18    C     0.55448   0.21934   0.45137   0.00000  Uiso   1.00
C19    C     0.59975   0.20463   0.42238   0.00000  Uiso   1.00
C20    C     0.63420   0.25323   0.43688   0.00000  Uiso   1.00
C21    C     0.47439   0.21470   0.39355   0.00000  Uiso   1.00
C22    C     0.45234   0.19609   0.31596   0.00000  Uiso   1.00
C23    C     0.41937   0.24080   0.28177   0.00000  Uiso   1.00
H24    H     0.48402   0.33352   0.55225   0.00000  Uiso   1.00
H25    H     0.45608   0.27351   0.69415   0.00000  Uiso   1.00
H26    H     0.57023   0.37635   0.54036   0.00000  Uiso   1.00
H27    H     0.42284   0.36781   0.43395   0.00000  Uiso   1.00
H28    H     0.42975   0.18004   0.83298   0.00000  Uiso   1.00
H29    H     0.67044   0.39688   0.50867   0.00000  Uiso   1.00
H30    H     0.35963   0.37888   0.28428   0.00000  Uiso   1.00
H31    H     0.51970   0.12592   0.40961   0.00000  Uiso   1.00
H32    H     0.49371   0.05451   0.54370   0.00000  Uiso   1.00
H33    H     0.60786   0.15735   0.38990   0.00000  Uiso   1.00
H34    H     0.46047   0.14881   0.28349   0.00000  Uiso   1.00
H35    H     0.46029   0.00230   0.71087   0.00000  Uiso   1.00
H36    H     0.70099   0.21914   0.38655   0.00000  Uiso   1.00
H37    H     0.39018   0.20114   0.16217   0.00000  Uiso   1.00
O38    O     0.42730   0.04794   0.86272   0.00000  Uiso   1.00
O39    O     0.74307   0.33244   0.43721   0.00000  Uiso   1.00
O40    O     0.33530   0.30882   0.14283   0.00000  Uiso   1.00
N41    N     0.44049   0.14801   0.78584   0.00000  Uiso   1.00
N42    N     0.66553   0.35074   0.48264   0.00000  Uiso   1.00
N43    N     0.37496   0.33392   0.27284   0.00000  Uiso   1.00
N44    N     0.45693   0.05236   0.72013   0.00000  Uiso   1.00
N45    N     0.68196   0.25509   0.41693   0.00000  Uiso   1.00
N46    N     0.39140   0.23827   0.20713   0.00000  Uiso   1.00
C47    C     0.49219   0.78596   0.01957   0.00000  Uiso   1.00
C48    C     0.48195   0.72456   0.07689   0.00000  Uiso   1.00
C49    C     0.46419   0.72622   0.16169   0.00000  Uiso   1.00
C50    C     0.45730   0.66455   0.20309   0.00000  Uiso   1.00
C51    C     0.43983   0.57852   0.29849   0.00000  Uiso   1.00
C52    C     0.54398   0.78043   0.99334   0.00000  Uiso   1.00
C53    C     0.57836   0.82907   0.00788   0.00000  Uiso   1.00
C54    C     0.62368   0.81443   0.97893   0.00000  Uiso   1.00
C55    C     0.70250   0.81516   0.94456   0.00000  Uiso   1.00
C56    C     0.46389   0.77579   0.93553   0.00000  Uiso   1.00
C57    C     0.43095   0.82054   0.90145   0.00000  Uiso   1.00
C58    C     0.40885   0.80200   0.82382   0.00000  Uiso   1.00
C59    C     0.36332   0.79552   0.69969   0.00000  Uiso   1.00
C60    C     0.51152   0.67348   0.94229   0.00000  Uiso   1.00
C61    C     0.49245   0.66347   0.03491   0.00000  Uiso   1.00
C62    C     0.48558   0.60178   0.07619   0.00000  Uiso   1.00
C63    C     0.46782   0.60335   0.16104   0.00000  Uiso   1.00
C64    C     0.55448   0.71934   0.95137   0.00000  Uiso   1.00
C65    C     0.59975   0.70463   0.92238   0.00000  Uiso   1.00
C66    C     0.63420   0.75323   0.93688   0.00000  Uiso   1.00
C67    C     0.47439   0.71470   0.89355   0.00000  Uiso   1.00
C68    C     0.45234   0.69609   0.81596   0.00000  Uiso   1.00
C69    C     0.41937   0.74080   0.78177   0.00000  Uiso   1.00
H70    H     0.48402   0.83352   0.05225   0.00000  Uiso   1.00
H71    H     0.45608   0.77351   0.19415   0.00000  Uiso   1.00
H72    H     0.57023   0.87635   0.04036   0.00000  Uiso   1.00
H73    H     0.42284   0.86781   0.93395   0.00000  Uiso   1.00
H74    H     0.42975   0.68004   0.33298   0.00000  Uiso   1.00
H75    H     0.67044   0.89688   0.00867   0.00000  Uiso   1.00
H76    H     0.35963   0.87888   0.78428   0.00000  Uiso   1.00
H77    H     0.51970   0.62592   0.90961   0.00000  Uiso   1.00
H78    H     0.49371   0.55451   0.04370   0.00000  Uiso   1.00
H79    H     0.60786   0.65735   0.88990   0.00000  Uiso   1.00
H80    H     0.46047   0.64881   0.78349   0.00000  Uiso   1.00
H81    H     0.46029   0.50230   0.21087   0.00000  Uiso   1.00
H82    H     0.70099   0.71914   0.88655   0.00000  Uiso   1.00
H83    H     0.39018   0.70114   0.66217   0.00000  Uiso   1.00
O84    O     0.42730   0.54794   0.36272   0.00000  Uiso   1.00
O85    O     0.74307   0.83244   0.93721   0.00000  Uiso   1.00
O86    O     0.33530   0.80882   0.64283   0.00000  Uiso   1.00
N87    N     0.44049   0.64801   0.28584   0.00000  Uiso   1.00
N88    N     0.66553   0.85074   0.98264   0.00000  Uiso   1.00
N89    N     0.37496   0.83392   0.77284   0.00000  Uiso   1.00
N90    N     0.45693   0.55236   0.22013   0.00000  Uiso   1.00
N91    N     0.68196   0.75509   0.91693   0.00000  Uiso   1.00
N92    N     0.39140   0.73827   0.70713   0.00000  Uiso   1.00
C93    C     0.99219   0.28596   0.01957   0.00000  Uiso   1.00
C94    C     0.98195   0.22456   0.07689   0.00000  Uiso   1.00
C95    C     0.96419   0.22622   0.16169   0.00000  Uiso   1.00
C96    C     0.95730   0.16455   0.20309   0.00000  Uiso   1.00
C97    C     0.93983   0.07852   0.29849   0.00000  Uiso   1.00
C98    C     0.04398   0.28043   0.99334   0.00000  Uiso   1.00
C99    C     0.07836   0.32907   0.00788   0.00000  Uiso   1.00
C100   C     0.12368   0.31443   0.97893   0.00000  Uiso   1.00
C101   C     0.20250   0.31516   0.94456   0.00000  Uiso   1.00
C102   C     0.96389   0.27579   0.93553   0.00000  Uiso   1.00
C103   C     0.93095   0.32054   0.90145   0.00000  Uiso   1.00
C104   C     0.90885   0.30200   0.82382   0.00000  Uiso   1.00
C105   C     0.86332   0.29552   0.69969   0.00000  Uiso   1.00
C106   C     0.01152   0.17348   0.94229   0.00000  Uiso   1.00
C107   C     0.99245   0.16347   0.03491   0.00000  Uiso   1.00
C108   C     0.98558   0.10178   0.07619   0.00000  Uiso   1.00
C109   C     0.96782   0.10335   0.16104   0.00000  Uiso   1.00
C110   C     0.05448   0.21934   0.95137   0.00000  Uiso   1.00
C111   C     0.09975   0.20463   0.92238   0.00000  Uiso   1.00
C112   C     0.13420   0.25323   0.93688   0.00000  Uiso   1.00
C113   C     0.97439   0.21470   0.89355   0.00000  Uiso   1.00
C114   C     0.95234   0.19609   0.81596   0.00000  Uiso   1.00
C115   C     0.91937   0.24080   0.78177   0.00000  Uiso   1.00
H116   H     0.98402   0.33352   0.05225   0.00000  Uiso   1.00
H117   H     0.95608   0.27351   0.19415   0.00000  Uiso   1.00
H118   H     0.07023   0.37635   0.04036   0.00000  Uiso   1.00
H119   H     0.92284   0.36781   0.93395   0.00000  Uiso   1.00
H120   H     0.92975   0.18004   0.33298   0.00000  Uiso   1.00
H121   H     0.17044   0.39688   0.00867   0.00000  Uiso   1.00
H122   H     0.85963   0.37888   0.78428   0.00000  Uiso   1.00
H123   H     0.01970   0.12592   0.90961   0.00000  Uiso   1.00
H124   H     0.99371   0.05451   0.04370   0.00000  Uiso   1.00
H125   H     0.10786   0.15735   0.88990   0.00000  Uiso   1.00
H126   H     0.96047   0.14881   0.78349   0.00000  Uiso   1.00
H127   H     0.96029   0.00230   0.21087   0.00000  Uiso   1.00
H128   H     0.20099   0.21914   0.88655   0.00000  Uiso   1.00
H129   H     0.89018   0.20114   0.66217   0.00000  Uiso   1.00
O130   O     0.92730   0.04794   0.36272   0.00000  Uiso   1.00
O131   O     0.24307   0.33244   0.93721   0.00000  Uiso   1.00
O132   O     0.83530   0.30882   0.64283   0.00000  Uiso   1.00
N133   N     0.94049   0.14801   0.28584   0.00000  Uiso   1.00
N134   N     0.16553   0.35074   0.98264   0.00000  Uiso   1.00
N135   N     0.87496   0.33392   0.77284   0.00000  Uiso   1.00
N136   N     0.95693   0.05236   0.22013   0.00000  Uiso   1.00
N137   N     0.18196   0.25509   0.91693   0.00000  Uiso   1.00
N138   N     0.89140   0.23827   0.70713   0.00000  Uiso   1.00
C139   C     0.99219   0.78596   0.51957   0.00000  Uiso   1.00
C140   C     0.98195   0.72456   0.57689   0.00000  Uiso   1.00
C141   C     0.96419   0.72622   0.66169   0.00000  Uiso   1.00
C142   C     0.95730   0.66455   0.70309   0.00000  Uiso   1.00
C143   C     0.93983   0.57852   0.79849   0.00000  Uiso   1.00
C144   C     0.04398   0.78043   0.49334   0.00000  Uiso   1.00
C145   C     0.07836   0.82907   0.50788   0.00000  Uiso   1.00
C146   C     0.12368   0.81443   0.47893   0.00000  Uiso   1.00
C147   C     0.20250   0.81516   0.44456   0.00000  Uiso   1.00
C148   C     0.96389   0.77579   0.43553   0.00000  Uiso   1.00
C149   C     0.93095   0.82054   0.40145   0.00000  Uiso   1.00
C150   C     0.90885   0.80200   0.32382   0.00000  Uiso   1.00
C151   C     0.86332   0.79552   0.19969   0.00000  Uiso   1.00
C152   C     0.01152   0.67348   0.44229   0.00000  Uiso   1.00
C153   C     0.99245   0.66347   0.53491   0.00000  Uiso   1.00
C154   C     0.98558   0.60178   0.57619   0.00000  Uiso   1.00
C155   C     0.96782   0.60335   0.66104   0.00000  Uiso   1.00
C156   C     0.05448   0.71934   0.45137   0.00000  Uiso   1.00
C157   C     0.09975   0.70463   0.42238   0.00000  Uiso   1.00
C158   C     0.13420   0.75323   0.43688   0.00000  Uiso   1.00
C159   C     0.97439   0.71470   0.39355   0.00000  Uiso   1.00
C160   C     0.95234   0.69609   0.31596   0.00000  Uiso   1.00
C161   C     0.91937   0.74080   0.28177   0.00000  Uiso   1.00
H162   H     0.98402   0.83352   0.55225   0.00000  Uiso   1.00
H163   H     0.95608   0.77351   0.69415   0.00000  Uiso   1.00
H164   H     0.07023   0.87635   0.54036   0.00000  Uiso   1.00
H165   H     0.92284   0.86781   0.43395   0.00000  Uiso   1.00
H166   H     0.92975   0.68004   0.83298   0.00000  Uiso   1.00
H167   H     0.17044   0.89688   0.50867   0.00000  Uiso   1.00
H168   H     0.85963   0.87888   0.28428   0.00000  Uiso   1.00
H169   H     0.01970   0.62592   0.40961   0.00000  Uiso   1.00
H170   H     0.99371   0.55451   0.54370   0.00000  Uiso   1.00
H171   H     0.10786   0.65735   0.38990   0.00000  Uiso   1.00
H172   H     0.96047   0.64881   0.28349   0.00000  Uiso   1.00
H173   H     0.96029   0.50230   0.71087   0.00000  Uiso   1.00
H174   H     0.20099   0.71914   0.38655   0.00000  Uiso   1.00
H175   H     0.89018   0.70114   0.16217   0.00000  Uiso   1.00
O176   O     0.92730   0.54794   0.86272   0.00000  Uiso   1.00
O177   O     0.24307   0.83244   0.43721   0.00000  Uiso   1.00
O178   O     0.83530   0.80882   0.14283   0.00000  Uiso   1.00
N179   N     0.94049   0.64801   0.78584   0.00000  Uiso   1.00
N180   N     0.16553   0.85074   0.48264   0.00000  Uiso   1.00
N181   N     0.87496   0.83392   0.27284   0.00000  Uiso   1.00
N182   N     0.95693   0.55236   0.72013   0.00000  Uiso   1.00
N183   N     0.18196   0.75509   0.41693   0.00000  Uiso   1.00
N184   N     0.89140   0.73827   0.20713   0.00000  Uiso   1.00
C185   C     0.50781   0.71404   0.51957   0.00000  Uiso   1.00
C186   C     0.51805   0.77544   0.57689   0.00000  Uiso   1.00
C187   C     0.53581   0.77378   0.66169   0.00000  Uiso   1.00
C188   C     0.54270   0.83545   0.70309   0.00000  Uiso   1.00
C189   C     0.56017   0.92148   0.79849   0.00000  Uiso   1.00
C190   C     0.45602   0.71957   0.49334   0.00000  Uiso   1.00
C191   C     0.42164   0.67093   0.50788   0.00000  Uiso   1.00
C192   C     0.37632   0.68557   0.47893   0.00000  Uiso   1.00
C193   C     0.29750   0.68484   0.44456   0.00000  Uiso   1.00
C194   C     0.53611   0.72421   0.43553   0.00000  Uiso   1.00
C195   C     0.56905   0.67946   0.40145   0.00000  Uiso   1.00
C196   C     0.59115   0.69800   0.32382   0.00000  Uiso   1.00
C197   C     0.63668   0.70448   0.19969   0.00000  Uiso   1.00
C198   C     0.48848   0.82652   0.44229   0.00000  Uiso   1.00
C199   C     0.50755   0.83653   0.53491   0.00000  Uiso   1.00
C200   C     0.51442   0.89822   0.57619   0.00000  Uiso   1.00
C201   C     0.53218   0.89665   0.66104   0.00000  Uiso   1.00
C202   C     0.44552   0.78066   0.45137   0.00000  Uiso   1.00
C203   C     0.40025   0.79537   0.42238   0.00000  Uiso   1.00
C204   C     0.36580   0.74677   0.43688   0.00000  Uiso   1.00
C205   C     0.52561   0.78530   0.39355   0.00000  Uiso   1.00
C206   C     0.54766   0.80391   0.31596   0.00000  Uiso   1.00
C207   C     0.58063   0.75920   0.28177   0.00000  Uiso   1.00
H208   H     0.51598   0.66648   0.55225   0.00000  Uiso   1.00
H209   H     0.54392   0.72649   0.69415   0.00000  Uiso   1.00
H210   H     0.42977   0.62365   0.54036   0.00000  Uiso   1.00
H211   H     0.57716   0.63219   0.43395   0.00000  Uiso   1.00
H212   H     0.57025   0.81996   0.83298   0.00000  Uiso   1.00
H213   H     0.32956   0.60312   0.50867   0.00000  Uiso   1.00
H214   H     0.64037   0.62112   0.28428   0.00000  Uiso   1.00
H215   H     0.48030   0.87408   0.40961   0.00000  Uiso   1.00
H216   H     0.50629   0.94549   0.54370   0.00000  Uiso   1.00
H217   H     0.39214   0.84265   0.38990   0.00000  Uiso   1.00
H218   H     0.53953   0.85119   0.28349   0.00000  Uiso   1.00
H219   H     0.53971   0.99770   0.71087   0.00000  Uiso   1.00
H220   H     0.29901   0.78086   0.38655   0.00000  Uiso   1.00
H221   H     0.60982   0.79886   0.16217   0.00000  Uiso   1.00
O222   O     0.57270   0.95206   0.86272   0.00000  Uiso   1.00
O223   O     0.25693   0.66756   0.43721   0.00000  Uiso   1.00
O224   O     0.66470   0.69118   0.14283   0.00000  Uiso   1.00
N225   N     0.55951   0.85199   0.78584   0.00000  Uiso   1.00
N226   N     0.33447   0.64926   0.48264   0.00000  Uiso   1.00
N227   N     0.62504   0.66608   0.27284   0.00000  Uiso   1.00
N228   N     0.54307   0.94764   0.72013   0.00000  Uiso   1.00
N229   N     0.31804   0.74491   0.41693   0.00000  Uiso   1.00
N230   N     0.60860   0.76173   0.20713   0.00000  Uiso   1.00
C231   C     0.50781   0.21404   0.01957   0.00000  Uiso   1.00
C232   C     0.51805   0.27544   0.07689   0.00000  Uiso   1.00
C233   C     0.53581   0.27378   0.16169   0.00000  Uiso   1.00
C234   C     0.54270   0.33545   0.20309   0.00000  Uiso   1.00
C235   C     0.56017   0.42148   0.29849   0.00000  Uiso   1.00
C236   C     0.45602   0.21957   0.99334   0.00000  Uiso   1.00
C237   C     0.42164   0.17093   0.00788   0.00000  Uiso   1.00
C238   C     0.37632   0.18557   0.97893   0.00000  Uiso   1.00
C239   C     0.29750   0.18484   0.94456   0.00000  Uiso   1.00
C240   C     0.53611   0.22421   0.93553   0.00000  Uiso   1.00
C241   C     0.56905   0.17946   0.90145   0.00000  Uiso   1.00
C242   C     0.59115   0.19800   0.82382   0.00000  Uiso   1.00
C243   C     0.63668   0.20448   0.69969   0.00000  Uiso   1.00
C244   C     0.48848   0.32652   0.94229   0.00000  Uiso   1.00
C245   C     0.50755   0.33653   0.03491   0.00000  Uiso   1.00
C246   C     0.51442   0.39822   0.07619   0.00000  Uiso   1.00
C247   C     0.53218   0.39665   0.16104   0.00000  Uiso   1.00
C248   C     0.44552   0.28066   0.95137   0.00000  Uiso   1.00
C249   C     0.40025   0.29537   0.92238   0.00000  Uiso   1.00
C250   C     0.36580   0.24677   0.93688   0.00000  Uiso   1.00
C251   C     0.52561   0.28530   0.89355   0.00000  Uiso   1.00
C252   C     0.54766   0.30391   0.81596   0.00000  Uiso   1.00
C253   C     0.58063   0.25920   0.78177   0.00000  Uiso   1.00
H254   H     0.51598   0.16648   0.05225   0.00000  Uiso   1.00
H255   H     0.54392   0.22649   0.19415   0.00000  Uiso   1.00
H256   H     0.42977   0.12365   0.04036   0.00000  Uiso   1.00
H257   H     0.57716   0.13219   0.93395   0.00000  Uiso   1.00
H258   H     0.57025   0.31996   0.33298   0.00000  Uiso   1.00
H259   H     0.32956   0.10312   0.00867   0.00000  Uiso   1.00
H260   H     0.64037   0.12112   0.78428   0.00000  Uiso   1.00
H261   H     0.48030   0.37408   0.90961   0.00000  Uiso   1.00
H262   H     0.50629   0.44549   0.04370   0.00000  Uiso   1.00
H263   H     0.39214   0.34265   0.88990   0.00000  Uiso   1.00
H264   H     0.53953   0.35119   0.78349   0.00000  Uiso   1.00
H265   H     0.53971   0.49770   0.21087   0.00000  Uiso   1.00
H266   H     0.29901   0.28086   0.88655   0.00000  Uiso   1.00
H267   H     0.60982   0.29886   0.66217   0.00000  Uiso   1.00
O268   O     0.57270   0.45206   0.36272   0.00000  Uiso   1.00
O269   O     0.25693   0.16756   0.93721   0.00000  Uiso   1.00
O270   O     0.66470   0.19118   0.64283   0.00000  Uiso   1.00
N271   N     0.55951   0.35199   0.28584   0.00000  Uiso   1.00
N272   N     0.33447   0.14926   0.98264   0.00000  Uiso   1.00
N273   N     0.62504   0.16608   0.77284   0.00000  Uiso   1.00
N274   N     0.54307   0.44764   0.22013   0.00000  Uiso   1.00
N275   N     0.31804   0.24491   0.91693   0.00000  Uiso   1.00
N276   N     0.60860   0.26173   0.70713   0.00000  Uiso   1.00
C277   C     0.00781   0.71404   0.01957   0.00000  Uiso   1.00
C278   C     0.01805   0.77544   0.07689   0.00000  Uiso   1.00
C279   C     0.03581   0.77378   0.16169   0.00000  Uiso   1.00
C280   C     0.04270   0.83545   0.20309   0.00000  Uiso   1.00
C281   C     0.06017   0.92148   0.29849   0.00000  Uiso   1.00
C282   C     0.95602   0.71957   0.99334   0.00000  Uiso   1.00
C283   C     0.92164   0.67093   0.00788   0.00000  Uiso   1.00
C284   C     0.87632   0.68557   0.97893   0.00000  Uiso   1.00
C285   C     0.79750   0.68484   0.94456   0.00000  Uiso   1.00
C286   C     0.03611   0.72421   0.93553   0.00000  Uiso   1.00
C287   C     0.06905   0.67946   0.90145   0.00000  Uiso   1.00
C288   C     0.09115   0.69800   0.82382   0.00000  Uiso   1.00
C289   C     0.13668   0.70448   0.69969   0.00000  Uiso   1.00
C290   C     0.98848   0.82652   0.94229   0.00000  Uiso   1.00
C291   C     0.00755   0.83653   0.03491   0.00000  Uiso   1.00
C292   C     0.01442   0.89822   0.07619   0.00000  Uiso   1.00
C293   C     0.03218   0.89665   0.16104   0.00000  Uiso   1.00
C294   C     0.94552   0.78066   0.95137   0.00000  Uiso   1.00
C295   C     0.90025   0.79537   0.92238   0.00000  Uiso   1.00
C296   C     0.86580   0.74677   0.93688   0.00000  Uiso   1.00
C297   C     0.02561   0.78530   0.89355   0.00000  Uiso   1.00
C298   C     0.04766   0.80391   0.81596   0.00000  Uiso   1.00
C299   C     0.08063   0.75920   0.78177   0.00000  Uiso   1.00
H300   H     0.01598   0.66648   0.05225   0.00000  Uiso   1.00
H301   H     0.04392   0.72649   0.19415   0.00000  Uiso   1.00
H302   H     0.92977   0.62365   0.04036   0.00000  Uiso   1.00
H303   H     0.07716   0.63219   0.93395   0.00000  Uiso   1.00
H304   H     0.07025   0.81996   0.33298   0.00000  Uiso   1.00
H305   H     0.82956   0.60312   0.00867   0.00000  Uiso   1.00
H306   H     0.14037   0.62112   0.78428   0.00000  Uiso   1.00
H307   H     0.98030   0.87408   0.90961   0.00000  Uiso   1.00
H308   H     0.00629   0.94549   0.04370   0.00000  Uiso   1.00
H309   H     0.89214   0.84265   0.88990   0.00000  Uiso   1.00
H310   H     0.03953   0.85119   0.78349   0.00000  Uiso   1.00
H311   H     0.03971   0.99770   0.21087   0.00000  Uiso   1.00
H312   H     0.79901   0.78086   0.88655   0.00000  Uiso   1.00
H313   H     0.10982   0.79886   0.66217   0.00000  Uiso   1.00
O314   O     0.07270   0.95206   0.36272   0.00000  Uiso   1.00
O315   O     0.75693   0.66756   0.93721   0.00000  Uiso   1.00
O316   O     0.16470   0.69118   0.64283   0.00000  Uiso   1.00
N317   N     0.05951   0.85199   0.28584   0.00000  Uiso   1.00
N318   N     0.83447   0.64926   0.98264   0.00000  Uiso   1.00
N319   N     0.12504   0.66608   0.77284   0.00000  Uiso   1.00
N320   N     0.04307   0.94764   0.22013   0.00000  Uiso   1.00
N321   N     0.81804   0.74491   0.91693   0.00000  Uiso   1.00
N322   N     0.10860   0.76173   0.70713   0.00000  Uiso   1.00
C323   C     0.00781   0.21404   0.51957   0.00000  Uiso   1.00
C324   C     0.01805   0.27544   0.57689   0.00000  Uiso   1.00
C325   C     0.03581   0.27378   0.66169   0.00000  Uiso   1.00
C326   C     0.04270   0.33545   0.70309   0.00000  Uiso   1.00
C327   C     0.06017   0.42148   0.79849   0.00000  Uiso   1.00
C328   C     0.95602   0.21957   0.49334   0.00000  Uiso   1.00
C329   C     0.92164   0.17093   0.50788   0.00000  Uiso   1.00
C330   C     0.87632   0.18557   0.47893   0.00000  Uiso   1.00
C331   C     0.79750   0.18484   0.44456   0.00000  Uiso   1.00
C332   C     0.03611   0.22421   0.43553   0.00000  Uiso   1.00
C333   C     0.06905   0.17946   0.40145   0.00000  Uiso   1.00
C334   C     0.09115   0.19800   0.32382   0.00000  Uiso   1.00
C335   C     0.13668   0.20448   0.19969   0.00000  Uiso   1.00
C336   C     0.98848   0.32652   0.44229   0.00000  Uiso   1.00
C337   C     0.00755   0.33653   0.53491   0.00000  Uiso   1.00
C338   C     0.01442   0.39822   0.57619   0.00000  Uiso   1.00
C339   C     0.03218   0.39665   0.66104   0.00000  Uiso   1.00
C340   C     0.94552   0.28066   0.45137   0.00000  Uiso   1.00
C341   C     0.90025   0.29537   0.42238   0.00000  Uiso   1.00
C342   C     0.86580   0.24677   0.43688   0.00000  Uiso   1.00
C343   C     0.02561   0.28530   0.39355   0.00000  Uiso   1.00
C344   C     0.04766   0.30391   0.31596   0.00000  Uiso   1.00
C345   C     0.08063   0.25920   0.28177   0.00000  Uiso   1.00
H346   H     0.01598   0.16648   0.55225   0.00000  Uiso   1.00
H347   H     0.04392   0.22649   0.69415   0.00000  Uiso   1.00
H348   H     0.92977   0.12365   0.54036   0.00000  Uiso   1.00
H349   H     0.07716   0.13219   0.43395   0.00000  Uiso   1.00
H350   H     0.07025   0.31996   0.83298   0.00000  Uiso   1.00
H351   H     0.82956   0.10312   0.50867   0.00000  Uiso   1.00
H352   H     0.14037   0.12112   0.28428   0.00000  Uiso   1.00
H353   H     0.98030   0.37408   0.40961   0.00000  Uiso   1.00
H354   H     0.00629   0.44549   0.54370   0.00000  Uiso   1.00
H355   H     0.89214   0.34265   0.38990   0.00000  Uiso   1.00
H356   H     0.03953   0.35119   0.28349   0.00000  Uiso   1.00
H357   H     0.03971   0.49770   0.71087   0.00000  Uiso   1.00
H358   H     0.79901   0.28086   0.38655   0.00000  Uiso   1.00
H359   H     0.10982   0.29886   0.16217   0.00000  Uiso   1.00
O360   O     0.07270   0.45206   0.86272   0.00000  Uiso   1.00
O361   O     0.75693   0.16756   0.43721   0.00000  Uiso   1.00
O362   O     0.16470   0.19118   0.14283   0.00000  Uiso   1.00
N363   N     0.05951   0.35199   0.78584   0.00000  Uiso   1.00
N364   N     0.83447   0.14926   0.48264   0.00000  Uiso   1.00
N365   N     0.12504   0.16608   0.27284   0.00000  Uiso   1.00
N366   N     0.04307   0.44764   0.72013   0.00000  Uiso   1.00
N367   N     0.81804   0.24491   0.41693   0.00000  Uiso   1.00
N368   N     0.10860   0.26173   0.20713   0.00000  Uiso   1.00
C369   C     0.74219   0.96404   0.76957   0.00000  Uiso   1.00
C370   C     0.73195   0.02544   0.82689   0.00000  Uiso   1.00
C371   C     0.71419   0.02378   0.91169   0.00000  Uiso   1.00
C372   C     0.70730   0.08545   0.95309   0.00000  Uiso   1.00
C373   C     0.68983   0.17148   0.04849   0.00000  Uiso   1.00
C374   C     0.79398   0.96957   0.74334   0.00000  Uiso   1.00
C375   C     0.82836   0.92093   0.75788   0.00000  Uiso   1.00
C376   C     0.87368   0.93557   0.72893   0.00000  Uiso   1.00
C377   C     0.95250   0.93484   0.69456   0.00000  Uiso   1.00
C378   C     0.71389   0.97421   0.68553   0.00000  Uiso   1.00
C379   C     0.68095   0.92946   0.65145   0.00000  Uiso   1.00
C380   C     0.65885   0.94800   0.57382   0.00000  Uiso   1.00
C381   C     0.61332   0.95448   0.44969   0.00000  Uiso   1.00
C382   C     0.76152   0.07652   0.69229   0.00000  Uiso   1.00
C383   C     0.74245   0.08653   0.78491   0.00000  Uiso   1.00
C384   C     0.73558   0.14822   0.82619   0.00000  Uiso   1.00
C385   C     0.71782   0.14665   0.91104   0.00000  Uiso   1.00
C386   C     0.80448   0.03066   0.70137   0.00000  Uiso   1.00
C387   C     0.84975   0.04537   0.67238   0.00000  Uiso   1.00
C388   C     0.88420   0.99677   0.68688   0.00000  Uiso   1.00
C389   C     0.72439   0.03530   0.64355   0.00000  Uiso   1.00
C390   C     0.70234   0.05391   0.56596   0.00000  Uiso   1.00
C391   C     0.66937   0.00920   0.53177   0.00000  Uiso   1.00
H392   H     0.73402   0.91648   0.80225   0.00000  Uiso   1.00
H393   H     0.70608   0.97649   0.94415   0.00000  Uiso   1.00
H394   H     0.82023   0.87365   0.79036   0.00000  Uiso   1.00
H395   H     0.67284   0.88219   0.68395   0.00000  Uiso   1.00
H396   H     0.67975   0.06996   0.08298   0.00000  Uiso   1.00
H397   H     0.92044   0.85312   0.75867   0.00000  Uiso   1.00
H398   H     0.60963   0.87112   0.53428   0.00000  Uiso   1.00
H399   H     0.76970   0.12408   0.65961   0.00000  Uiso   1.00
H400   H     0.74371   0.19549   0.79370   0.00000  Uiso   1.00
H401   H     0.85786   0.09265   0.63990   0.00000  Uiso   1.00
H402   H     0.71047   0.10119   0.53349   0.00000  Uiso   1.00
H403   H     0.71029   0.24770   0.96087   0.00000  Uiso   1.00
H404   H     0.95099   0.03086   0.63655   0.00000  Uiso   1.00
H405   H     0.64018   0.04886   0.41217   0.00000  Uiso   1.00
O406   O     0.67730   0.20206   0.11272   0.00000  Uiso   1.00
O407   O     0.99307   0.91756   0.68721   0.00000  Uiso   1.00
O408   O     0.58530   0.94118   0.39283   0.00000  Uiso   1.00
N409   N     0.69049   0.10199   0.03584   0.00000  Uiso   1.00
N410   N     0.91553   0.89926   0.73264   0.00000  Uiso   1.00
N411   N     0.62496   0.91608   0.52284   0.00000  Uiso   1.00
N412   N     0.70693   0.19764   0.97013   0.00000  Uiso   1.00
N413   N     0.93196   0.99491   0.66693   0.00000  Uiso   1.00
N414   N     0.64140   0.01173   0.45713   0.00000  Uiso   1.00
C415   C     0.74219   0.46404   0.26957   0.00000  Uiso   1.00
C416   C     0.73195   0.52544   0.32689   0.00000  Uiso   1.00
C417   C     0.71419   0.52378   0.41169   0.00000  Uiso   1.00
C418   C     0.70730   0.58545   0.45309   0.00000  Uiso   1.00
C419   C     0.68983   0.67148   0.54849   0.00000  Uiso   1.00
C420   C     0.79398   0.46957   0.24334   0.00000  Uiso   1.00
C421   C     0.82836   0.42093   0.25788   0.00000  Uiso   1.00
C422   C     0.87368   0.43557   0.22893   0.00000  Uiso   1.00
C423   C     0.95250   0.43484   0.19456   0.00000  Uiso   1.00
C424   C     0.71389   0.47421   0.18553   0.00000  Uiso   1.00
C425   C     0.68095   0.42946   0.15145   0.00000  Uiso   1.00
C426   C     0.65885   0.44800   0.07382   0.00000  Uiso   1.00
C427   C     0.61332   0.45448   0.94969   0.00000  Uiso   1.00
C428   C     0.76152   0.57652   0.19229   0.00000  Uiso   1.00
C429   C     0.74245   0.58653   0.28491   0.00000  Uiso   1.00
C430   C     0.73558   0.64822   0.32619   0.00000  Uiso   1.00
C431   C     0.71782   0.64665   0.41104   0.00000  Uiso   1.00
C432   C     0.80448   0.53066   0.20137   0.00000  Uiso   1.00
C433   C     0.84975   0.54537   0.17238   0.00000  Uiso   1.00
C434   C     0.88420   0.49677   0.18688   0.00000  Uiso   1.00
C435   C     0.72439   0.53530   0.14355   0.00000  Uiso   1.00
C436   C     0.70234   0.55391   0.06596   0.00000  Uiso   1.00
C437   C     0.66937   0.50920   0.03177   0.00000  Uiso   1.00
H438   H     0.73402   0.41648   0.30225   0.00000  Uiso   1.00
H439   H     0.70608   0.47649   0.44415   0.00000  Uiso   1.00
H440   H     0.82023   0.37365   0.29036   0.00000  Uiso   1.00
H441   H     0.67284   0.38219   0.18395   0.00000  Uiso   1.00
H442   H     0.67975   0.56996   0.58298   0.00000  Uiso   1.00
H443   H     0.92044   0.35312   0.25867   0.00000  Uiso   1.00
H444   H     0.60963   0.37112   0.03428   0.00000  Uiso   1.00
H445   H     0.76970   0.62408   0.15961   0.00000  Uiso   1.00
H446   H     0.74371   0.69549   0.29370   0.00000  Uiso   1.00
H447   H     0.85786   0.59265   0.13990   0.00000  Uiso   1.00
H448   H     0.71047   0.60119   0.03349   0.00000  Uiso   1.00
H449   H     0.71029   0.74770   0.46087   0.00000  Uiso   1.00
H450   H     0.95099   0.53086   0.13655   0.00000  Uiso   1.00
H451   H     0.64018   0.54886   0.91217   0.00000  Uiso   1.00
O452   O     0.67730   0.70206   0.61272   0.00000  Uiso   1.00
O453   O     0.99307   0.41756   0.18721   0.00000  Uiso   1.00
O454   O     0.58530   0.44118   0.89283   0.00000  Uiso   1.00
N455   N     0.69049   0.60199   0.53584   0.00000  Uiso   1.00
N456   N     0.91553   0.39926   0.23264   0.00000  Uiso   1.00
N457   N     0.62496   0.41608   0.02284   0.00000  Uiso   1.00
N458   N     0.70693   0.69764   0.47013   0.00000  Uiso   1.00
N459   N     0.93196   0.49491   0.16693   0.00000  Uiso   1.00
N460   N     0.64140   0.51173   0.95713   0.00000  Uiso   1.00
C461   C     0.24219   0.96404   0.26957   0.00000  Uiso   1.00
C462   C     0.23195   0.02544   0.32689   0.00000  Uiso   1.00
C463   C     0.21419   0.02378   0.41169   0.00000  Uiso   1.00
C464   C     0.20730   0.08545   0.45309   0.00000  Uiso   1.00
C465   C     0.18983   0.17148   0.54849   0.00000  Uiso   1.00
C466   C     0.29398   0.96957   0.24334   0.00000  Uiso   1.00
C467   C     0.32836   0.92093   0.25788   0.00000  Uiso   1.00
C468   C     0.37368   0.93557   0.22893   0.00000  Uiso   1.00
C469   C     0.45250   0.93484   0.19456   0.00000  Uiso   1.00
C470   C     0.21389   0.97421   0.18553   0.00000  Uiso   1.00
C471   C     0.18095   0.92946   0.15145   0.00000  Uiso   1.00
C472   C     0.15885   0.94800   0.07382   0.00000  Uiso   1.00
C473   C     0.11332   0.95448   0.94969   0.00000  Uiso   1.00
C474   C     0.26152   0.07652   0.19229   0.00000  Uiso   1.00
C475   C     0.24245   0.08653   0.28491   0.00000  Uiso   1.00
C476   C     0.23558   0.14822   0.32619   0.00000  Uiso   1.00
C477   C     0.21782   0.14665   0.41104   0.00000  Uiso   1.00
C478   C     0.30448   0.03066   0.20137   0.00000  Uiso   1.00
C479   C     0.34975   0.04537   0.17238   0.00000  Uiso   1.00
C480   C     0.38420   0.99677   0.18688   0.00000  Uiso   1.00
C481   C     0.22439   0.03530   0.14355   0.00000  Uiso   1.00
C482   C     0.20234   0.05391   0.06596   0.00000  Uiso   1.00
C483   C     0.16937   0.00920   0.03177   0.00000  Uiso   1.00
H484   H     0.23402   0.91648   0.30225   0.00000  Uiso   1.00
H485   H     0.20608   0.97649   0.44415   0.00000  Uiso   1.00
H486   H     0.32023   0.87365   0.29036   0.00000  Uiso   1.00
H487   H     0.17284   0.88219   0.18395   0.00000  Uiso   1.00
H488   H     0.17975   0.06996   0.58298   0.00000  Uiso   1.00
H489   H     0.42044   0.85312   0.25867   0.00000  Uiso   1.00
H490   H     0.10963   0.87112   0.03428   0.00000  Uiso   1.00
H491   H     0.26970   0.12408   0.15961   0.00000  Uiso   1.00
H492   H     0.24371   0.19549   0.29370   0.00000  Uiso   1.00
H493   H     0.35786   0.09265   0.13990   0.00000  Uiso   1.00
H494   H     0.21047   0.10119   0.03349   0.00000  Uiso   1.00
H495   H     0.21029   0.24770   0.46087   0.00000  Uiso   1.00
H496   H     0.45099   0.03086   0.13655   0.00000  Uiso   1.00
H497   H     0.14018   0.04886   0.91217   0.00000  Uiso   1.00
O498   O     0.17730   0.20206   0.61272   0.00000  Uiso   1.00
O499   O     0.49307   0.91756   0.18721   0.00000  Uiso   1.00
O500   O     0.08530   0.94118   0.89283   0.00000  Uiso   1.00
N501   N     0.19049   0.10199   0.53584   0.00000  Uiso   1.00
N502   N     0.41553   0.89926   0.23264   0.00000  Uiso   1.00
N503   N     0.12496   0.91608   0.02284   0.00000  Uiso   1.00
N504   N     0.20693   0.19764   0.47013   0.00000  Uiso   1.00
N505   N     0.43196   0.99491   0.16693   0.00000  Uiso   1.00
N506   N     0.14140   0.01173   0.95713   0.00000  Uiso   1.00
C507   C     0.24219   0.46404   0.76957   0.00000  Uiso   1.00
C508   C     0.23195   0.52544   0.82689   0.00000  Uiso   1.00
C509   C     0.21419   0.52378   0.91169   0.00000  Uiso   1.00
C510   C     0.20730   0.58545   0.95309   0.00000  Uiso   1.00
C511   C     0.18983   0.67148   0.04849   0.00000  Uiso   1.00
C512   C     0.29398   0.46957   0.74334   0.00000  Uiso   1.00
C513   C     0.32836   0.42093   0.75788   0.00000  Uiso   1.00
C514   C     0.37368   0.43557   0.72893   0.00000  Uiso   1.00
C515   C     0.45250   0.43484   0.69456   0.00000  Uiso   1.00
C516   C     0.21389   0.47421   0.68553   0.00000  Uiso   1.00
C517   C     0.18095   0.42946   0.65145   0.00000  Uiso   1.00
C518   C     0.15885   0.44800   0.57382   0.00000  Uiso   1.00
C519   C     0.11332   0.45448   0.44969   0.00000  Uiso   1.00
C520   C     0.26152   0.57652   0.69229   0.00000  Uiso   1.00
C521   C     0.24245   0.58653   0.78491   0.00000  Uiso   1.00
C522   C     0.23558   0.64822   0.82619   0.00000  Uiso   1.00
C523   C     0.21782   0.64665   0.91104   0.00000  Uiso   1.00
C524   C     0.30448   0.53066   0.70137   0.00000  Uiso   1.00
C525   C     0.34975   0.54537   0.67238   0.00000  Uiso   1.00
C526   C     0.38420   0.49677   0.68688   0.00000  Uiso   1.00
C527   C     0.22439   0.53530   0.64355   0.00000  Uiso   1.00
C528   C     0.20234   0.55391   0.56596   0.00000  Uiso   1.00
C529   C     0.16937   0.50920   0.53177   0.00000  Uiso   1.00
H530   H     0.23402   0.41648   0.80225   0.00000  Uiso   1.00
H531   H     0.20608   0.47649   0.94415   0.00000  Uiso   1.00
H532   H     0.32023   0.37365   0.79036   0.00000  Uiso   1.00
H533   H     0.17284   0.38219   0.68395   0.00000  Uiso   1.00
H534   H     0.17975   0.56996   0.08298   0.00000  Uiso   1.00
H535   H     0.42044   0.35312   0.75867   0.00000  Uiso   1.00
H536   H     0.10963   0.37112   0.53428   0.00000  Uiso   1.00
H537   H     0.26970   0.62408   0.65961   0.00000  Uiso   1.00
H538   H     0.24371   0.69549   0.79370   0.00000  Uiso   1.00
H539   H     0.35786   0.59265   0.63990   0.00000  Uiso   1.00
H540   H     0.21047   0.60119   0.53349   0.00000  Uiso   1.00
H541   H     0.21029   0.74770   0.96087   0.00000  Uiso   1.00
H542   H     0.45099   0.53086   0.63655   0.00000  Uiso   1.00
H543   H     0.14018   0.54886   0.41217   0.00000  Uiso   1.00
O544   O     0.17730   0.70206   0.11272   0.00000  Uiso   1.00
O545   O     0.49307   0.41756   0.68721   0.00000  Uiso   1.00
O546   O     0.08530   0.44118   0.39283   0.00000  Uiso   1.00
N547   N     0.19049   0.60199   0.03584   0.00000  Uiso   1.00
N548   N     0.41553   0.39926   0.73264   0.00000  Uiso   1.00
N549   N     0.12496   0.41608   0.52284   0.00000  Uiso   1.00
N550   N     0.20693   0.69764   0.97013   0.00000  Uiso   1.00
N551   N     0.43196   0.49491   0.66693   0.00000  Uiso   1.00
N552   N     0.14140   0.51173   0.45713   0.00000  Uiso   1.00
C553   C     0.75781   0.53596   0.76957   0.00000  Uiso   1.00
C554   C     0.76805   0.47456   0.82689   0.00000  Uiso   1.00
C555   C     0.78581   0.47622   0.91169   0.00000  Uiso   1.00
C556   C     0.79270   0.41455   0.95309   0.00000  Uiso   1.00
C557   C     0.81017   0.32852   0.04849   0.00000  Uiso   1.00
C558   C     0.70602   0.53043   0.74334   0.00000  Uiso   1.00
C559   C     0.67164   0.57907   0.75788   0.00000  Uiso   1.00
C560   C     0.62632   0.56443   0.72893   0.00000  Uiso   1.00
C561   C     0.54750   0.56516   0.69456   0.00000  Uiso   1.00
C562   C     0.78611   0.52579   0.68553   0.00000  Uiso   1.00
C563   C     0.81905   0.57054   0.65145   0.00000  Uiso   1.00
C564   C     0.84115   0.55200   0.57382   0.00000  Uiso   1.00
C565   C     0.88668   0.54552   0.44969   0.00000  Uiso   1.00
C566   C     0.73848   0.42348   0.69229   0.00000  Uiso   1.00
C567   C     0.75755   0.41347   0.78491   0.00000  Uiso   1.00
C568   C     0.76442   0.35178   0.82619   0.00000  Uiso   1.00
C569   C     0.78218   0.35335   0.91104   0.00000  Uiso   1.00
C570   C     0.69552   0.46934   0.70137   0.00000  Uiso   1.00
C571   C     0.65025   0.45463   0.67238   0.00000  Uiso   1.00
C572   C     0.61580   0.50323   0.68688   0.00000  Uiso   1.00
C573   C     0.77561   0.46470   0.64355   0.00000  Uiso   1.00
C574   C     0.79766   0.44609   0.56596   0.00000  Uiso   1.00
C575   C     0.83063   0.49080   0.53177   0.00000  Uiso   1.00
H576   H     0.76598   0.58352   0.80225   0.00000  Uiso   1.00
H577   H     0.79392   0.52351   0.94415   0.00000  Uiso   1.00
H578   H     0.67977   0.62635   0.79036   0.00000  Uiso   1.00
H579   H     0.82716   0.61781   0.68395   0.00000  Uiso   1.00
H580   H     0.82025   0.43004   0.08298   0.00000  Uiso   1.00
H581   H     0.57956   0.64688   0.75867   0.00000  Uiso   1.00
H582   H     0.89037   0.62888   0.53428   0.00000  Uiso   1.00
H583   H     0.73030   0.37592   0.65961   0.00000  Uiso   1.00
H584   H     0.75629   0.30451   0.79370   0.00000  Uiso   1.00
H585   H     0.64214   0.40735   0.63990   0.00000  Uiso   1.00
H586   H     0.78953   0.39881   0.53349   0.00000  Uiso   1.00
H587   H     0.78971   0.25230   0.96087   0.00000  Uiso   1.00
H588   H     0.54901   0.46914   0.63655   0.00000  Uiso   1.00
H589   H     0.85982   0.45114   0.41217   0.00000  Uiso   1.00
O590   O     0.82270   0.29794   0.11272   0.00000  Uiso   1.00
O591   O     0.50693   0.58244   0.68721   0.00000  Uiso   1.00
O592   O     0.91470   0.55882   0.39283   0.00000  Uiso   1.00
N593   N     0.80951   0.39801   0.03584   0.00000  Uiso   1.00
N594   N     0.58447   0.60074   0.73264   0.00000  Uiso   1.00
N595   N     0.87504   0.58392   0.52284   0.00000  Uiso   1.00
N596   N     0.79307   0.30236   0.97013   0.00000  Uiso   1.00
N597   N     0.56804   0.50509   0.66693   0.00000  Uiso   1.00
N598   N     0.85860   0.48827   0.45713   0.00000  Uiso   1.00
C599   C     0.75781   0.03596   0.26957   0.00000  Uiso   1.00
C600   C     0.76805   0.97456   0.32689   0.00000  Uiso   1.00
C601   C     0.78581   0.97622   0.41169   0.00000  Uiso   1.00
C602   C     0.79270   0.91455   0.45309   0.00000  Uiso   1.00
C603   C     0.81017   0.82852   0.54849   0.00000  Uiso   1.00
C604   C     0.70602   0.03043   0.24334   0.00000  Uiso   1.00
C605   C     0.67164   0.07907   0.25788   0.00000  Uiso   1.00
C606   C     0.62632   0.06443   0.22893   0.00000  Uiso   1.00
C607   C     0.54750   0.06516   0.19456   0.00000  Uiso   1.00
C608   C     0.78611   0.02579   0.18553   0.00000  Uiso   1.00
C609   C     0.81905   0.07054   0.15145   0.00000  Uiso   1.00
C610   C     0.84115   0.05200   0.07382   0.00000  Uiso   1.00
C611   C     0.88668   0.04552   0.94969   0.00000  Uiso   1.00
C612   C     0.73848   0.92348   0.19229   0.00000  Uiso   1.00
C613   C     0.75755   0.91347   0.28491   0.00000  Uiso   1.00
C614   C     0.76442   0.85178   0.32619   0.00000  Uiso   1.00
C615   C     0.78218   0.85335   0.41104   0.00000  Uiso   1.00
C616   C     0.69552   0.96934   0.20137   0.00000  Uiso   1.00
C617   C     0.65025   0.95463   0.17238   0.00000  Uiso   1.00
C618   C     0.61580   0.00323   0.18688   0.00000  Uiso   1.00
C619   C     0.77561   0.96470   0.14355   0.00000  Uiso   1.00
C620   C     0.79766   0.94609   0.06596   0.00000  Uiso   1.00
C621   C     0.83063   0.99080   0.03177   0.00000  Uiso   1.00
H622   H     0.76598   0.08352   0.30225   0.00000  Uiso   1.00
H623   H     0.79392   0.02351   0.44415   0.00000  Uiso   1.00
H624   H     0.67977   0.12635   0.29036   0.00000  Uiso   1.00
H625   H     0.82716   0.11781   0.18395   0.00000  Uiso   1.00
H626   H     0.82025   0.93004   0.58298   0.00000  Uiso   1.00
H627   H     0.57956   0.14688   0.25867   0.00000  Uiso   1.00
H628   H     0.89037   0.12888   0.03428   0.00000  Uiso   1.00
H629   H     0.73030   0.87592   0.15961   0.00000  Uiso   1.00
H630   H     0.75629   0.80451   0.29370   0.00000  Uiso   1.00
H631   H     0.64214   0.90735   0.13990   0.00000  Uiso   1.00
H632   H     0.78953   0.89881   0.03349   0.00000  Uiso   1.00
H633   H     0.78971   0.75230   0.46087   0.00000  Uiso   1.00
H634   H     0.54901   0.96914   0.13655   0.00000  Uiso   1.00
H635   H     0.85982   0.95114   0.91217   0.00000  Uiso   1.00
O636   O     0.82270   0.79794   0.61272   0.00000  Uiso   1.00
O637   O     0.50693   0.08244   0.18721   0.00000  Uiso   1.00
O638   O     0.91470   0.05882   0.89283   0.00000  Uiso   1.00
N639   N     0.80951   0.89801   0.53584   0.00000  Uiso   1.00
N640   N     0.58447   0.10074   0.23264   0.00000  Uiso   1.00
N641   N     0.87504   0.08392   0.02284   0.00000  Uiso   1.00
N642   N     0.79307   0.80236   0.47013   0.00000  Uiso   1.00
N643   N     0.56804   0.00509   0.16693   0.00000  Uiso   1.00
N644   N     0.85860   0.98827   0.95713   0.00000  Uiso   1.00
C645   C     0.25781   0.53596   0.26957   0.00000  Uiso   1.00
C646   C     0.26805   0.47456   0.32689   0.00000  Uiso   1.00
C647   C     0.28581   0.47622   0.41169   0.00000  Uiso   1.00
C648   C     0.29270   0.41455   0.45309   0.00000  Uiso   1.00
C649   C     0.31017   0.32852   0.54849   0.00000  Uiso   1.00
C650   C     0.20602   0.53043   0.24334   0.00000  Uiso   1.00
C651   C     0.17164   0.57907   0.25788   0.00000  Uiso   1.00
C652   C     0.12632   0.56443   0.22893   0.00000  Uiso   1.00
C653   C     0.04750   0.56516   0.19456   0.00000  Uiso   1.00
C654   C     0.28611   0.52579   0.18553   0.00000  Uiso   1.00
C655   C     0.31905   0.57054   0.15145   0.00000  Uiso   1.00
C656   C     0.34115   0.55200   0.07382   0.00000  Uiso   1.00
C657   C     0.38668   0.54552   0.94969   0.00000  Uiso   1.00
C658   C     0.23848   0.42348   0.19229   0.00000  Uiso   1.00
C659   C     0.25755   0.41347   0.28491   0.00000  Uiso   1.00
C660   C     0.26442   0.35178   0.32619   0.00000  Uiso   1.00
C661   C     0.28218   0.35335   0.41104   0.00000  Uiso   1.00
C662   C     0.19552   0.46934   0.20137   0.00000  Uiso   1.00
C663   C     0.15025   0.45463   0.17238   0.00000  Uiso   1.00
C664   C     0.11580   0.50323   0.18688   0.00000  Uiso   1.00
C665   C     0.27561   0.46470   0.14355   0.00000  Uiso   1.00
C666   C     0.29766   0.44609   0.06596   0.00000  Uiso   1.00
C667   C     0.33063   0.49080   0.03177   0.00000  Uiso   1.00
H668   H     0.26598   0.58352   0.30225   0.00000  Uiso   1.00
H669   H     0.29392   0.52351   0.44415   0.00000  Uiso   1.00
H670   H     0.17977   0.62635   0.29036   0.00000  Uiso   1.00
H671   H     0.32716   0.61781   0.18395   0.00000  Uiso   1.00
H672   H     0.32025   0.43004   0.58298   0.00000  Uiso   1.00
H673   H     0.07956   0.64688   0.25867   0.00000  Uiso   1.00
H674   H     0.39037   0.62888   0.03428   0.00000  Uiso   1.00
H675   H     0.23030   0.37592   0.15961   0.00000  Uiso   1.00
H676   H     0.25629   0.30451   0.29370   0.00000  Uiso   1.00
H677   H     0.14214   0.40735   0.13990   0.00000  Uiso   1.00
H678   H     0.28953   0.39881   0.03349   0.00000  Uiso   1.00
H679   H     0.28971   0.25230   0.46087   0.00000  Uiso   1.00
H680   H     0.04901   0.46914   0.13655   0.00000  Uiso   1.00
H681   H     0.35982   0.45114   0.91217   0.00000  Uiso   1.00
O682   O     0.32270   0.29794   0.61272   0.00000  Uiso   1.00
O683   O     0.00693   0.58244   0.18721   0.00000  Uiso   1.00
O684   O     0.41470   0.55882   0.89283   0.00000  Uiso   1.00
N685   N     0.30951   0.39801   0.53584   0.00000  Uiso   1.00
N686   N     0.08447   0.60074   0.23264   0.00000  Uiso   1.00
N687   N     0.37504   0.58392   0.02284   0.00000  Uiso   1.00
N688   N     0.29307   0.30236   0.47013   0.00000  Uiso   1.00
N689   N     0.06804   0.50509   0.16693   0.00000  Uiso   1.00
N690   N     0.35860   0.48827   0.95713   0.00000  Uiso   1.00
C691   C     0.25781   0.03596   0.76957   0.00000  Uiso   1.00
C692   C     0.26805   0.97456   0.82689   0.00000  Uiso   1.00
C693   C     0.28581   0.97622   0.91169   0.00000  Uiso   1.00
C694   C     0.29270   0.91455   0.95309   0.00000  Uiso   1.00
C695   C     0.31017   0.82852   0.04849   0.00000  Uiso   1.00
C696   C     0.20602   0.03043   0.74334   0.00000  Uiso   1.00
C697   C     0.17164   0.07907   0.75788   0.00000  Uiso   1.00
C698   C     0.12632   0.06443   0.72893   0.00000  Uiso   1.00
C699   C     0.04750   0.06516   0.69456   0.00000  Uiso   1.00
C700   C     0.28611   0.02579   0.68553   0.00000  Uiso   1.00
C701   C     0.31905   0.07054   0.65145   0.00000  Uiso   1.00
C702   C     0.34115   0.05200   0.57382   0.00000  Uiso   1.00
C703   C     0.38668   0.04552   0.44969   0.00000  Uiso   1.00
C704   C     0.23848   0.92348   0.69229   0.00000  Uiso   1.00
C705   C     0.25755   0.91347   0.78491   0.00000  Uiso   1.00
C706   C     0.26442   0.85178   0.82619   0.00000  Uiso   1.00
C707   C     0.28218   0.85335   0.91104   0.00000  Uiso   1.00
C708   C     0.19552   0.96934   0.70137   0.00000  Uiso   1.00
C709   C     0.15025   0.95463   0.67238   0.00000  Uiso   1.00
C710   C     0.11580   0.00323   0.68688   0.00000  Uiso   1.00
C711   C     0.27561   0.96470   0.64355   0.00000  Uiso   1.00
C712   C     0.29766   0.94609   0.56596   0.00000  Uiso   1.00
C713   C     0.33063   0.99080   0.53177   0.00000  Uiso   1.00
H714   H     0.26598   0.08352   0.80225   0.00000  Uiso   1.00
H715   H     0.29392   0.02351   0.94415   0.00000  Uiso   1.00
H716   H     0.17977   0.12635   0.79036   0.00000  Uiso   1.00
H717   H     0.32716   0.11781   0.68395   0.00000  Uiso   1.00
H718   H     0.32025   0.93004   0.08298   0.00000  Uiso   1.00
H719   H     0.07956   0.14688   0.75867   0.00000  Uiso   1.00
H720   H     0.39037   0.12888   0.53428   0.00000  Uiso   1.00
H721   H     0.23030   0.87592   0.65961   0.00000  Uiso   1.00
H722   H     0.25629   0.80451   0.79370   0.00000  Uiso   1.00
H723   H     0.14214   0.90735   0.63990   0.00000  Uiso   1.00
H724   H     0.28953   0.89881   0.53349   0.00000  Uiso   1.00
H725   H     0.28971   0.75230   0.96087   0.00000  Uiso   1.00
H726   H     0.04901   0.96914   0.63655   0.00000  Uiso   1.00
H727   H     0.35982   0.95114   0.41217   0.00000  Uiso   1.00
O728   O     0.32270   0.79794   0.11272   0.00000  Uiso   1.00
O729   O     0.00693   0.08244   0.68721   0.00000  Uiso   1.00
O730   O     0.41470   0.05882   0.39283   0.00000  Uiso   1.00
N731   N     0.30951   0.89801   0.03584   0.00000  Uiso   1.00
N732   N     0.08447   0.10074   0.73264   0.00000  Uiso   1.00
N733   N     0.37504   0.08392   0.52284   0.00000  Uiso   1.00
N734   N     0.29307   0.80236   0.97013   0.00000  Uiso   1.00
N735   N     0.06804   0.00509   0.66693   0.00000  Uiso   1.00
N736   N     0.35860   0.98827   0.45713   0.00000  Uiso   1.00
