data_job_05021
_audit_creation_date              2018-12-19
_audit_creation_method            'Materials Studio'
_symmetry_space_group_name_H-M    'P1'
_symmetry_Int_Tables_number       1
_symmetry_cell_setting            triclinic
loop_
_symmetry_equiv_pos_as_xyz
  x,y,z
_cell_length_a                    21.2876
_cell_length_b                    13.0026
_cell_length_c                    30.8585
_cell_angle_alpha                 90.0000
_cell_angle_beta                  90.0000
_cell_angle_gamma                 90.0000
loop_
_atom_site_label
_atom_site_type_symbol
_atom_site_fract_x
_atom_site_fract_y
_atom_site_fract_z
_atom_site_U_iso_or_equiv
_atom_site_adp_type
_atom_site_occupancy
C1     C     0.15197   0.57489   0.16583   0.00000  Uiso   1.00
C2     C     0.15124   0.50124   0.12737   0.00000  Uiso   1.00
C3     C     0.11443   0.41357   0.12376   0.00000  Uiso   1.00
C4     C     0.12061   0.35639   0.08601   0.00000  Uiso   1.00
C5     C     0.11319   0.23751   0.03132   0.00000  Uiso   1.00
C6     C     0.22002   0.57969   0.18112   0.00000  Uiso   1.00
C7     C     0.24104   0.55800   0.22271   0.00000  Uiso   1.00
C8     C     0.30512   0.56687   0.23020   0.00000  Uiso   1.00
C9     C     0.40448   0.56987   0.25896   0.00000  Uiso   1.00
C10    C     0.13703   0.68096   0.14744   0.00000  Uiso   1.00
C11    C     0.08828   0.74443   0.16071   0.00000  Uiso   1.00
C12    C     0.08250   0.83857   0.13986   0.00000  Uiso   1.00
C13    C     0.05299   0.99880   0.11633   0.00000  Uiso   1.00
C14    C     0.22841   0.62922   0.10520   0.00000  Uiso   1.00
C15    C     0.19277   0.53075   0.09444   0.00000  Uiso   1.00
C16    C     0.19900   0.47369   0.05668   0.00000  Uiso   1.00
C17    C     0.16221   0.38595   0.05302   0.00000  Uiso   1.00
C18    C     0.26154   0.60920   0.14819   0.00000  Uiso   1.00
C19    C     0.32561   0.61812   0.15563   0.00000  Uiso   1.00
C20    C     0.34672   0.59644   0.19721   0.00000  Uiso   1.00
C21    C     0.17855   0.71047   0.11451   0.00000  Uiso   1.00
C22    C     0.17285   0.80454   0.09363   0.00000  Uiso   1.00
C23    C     0.12409   0.86814   0.10687   0.00000  Uiso   1.00
H24    H     0.11965   0.55191   0.19147   0.00000  Uiso   1.00
H25    H     0.08231   0.39075   0.14926   0.00000  Uiso   1.00
H26    H     0.20889   0.53517   0.24818   0.00000  Uiso   1.00
H27    H     0.05615   0.72157   0.18620   0.00000  Uiso   1.00
H28    H     0.05924   0.22508   0.08794   0.00000  Uiso   1.00
H29    H     0.32615   0.52963   0.29654   0.00000  Uiso   1.00
H30    H     0.00407   0.92268   0.16583   0.00000  Uiso   1.00
H31    H     0.26074   0.65220   0.07956   0.00000  Uiso   1.00
H32    H     0.23114   0.49655   0.03120   0.00000  Uiso   1.00
H33    H     0.35773   0.64096   0.13013   0.00000  Uiso   1.00
H34    H     0.20499   0.82736   0.06815   0.00000  Uiso   1.00
H35    H     0.18004   0.31094   0.99213   0.00000  Uiso   1.00
H36    H     0.44695   0.61549   0.20073   0.00000  Uiso   1.00
H37    H     0.12487   0.00854   0.07002   0.00000  Uiso   1.00
O38    O     0.09764   0.16378   0.01025   0.00000  Uiso   1.00
O39    O     0.44781   0.56336   0.28392   0.00000  Uiso   1.00
O40    O     0.02525   0.07902   0.11244   0.00000  Uiso   1.00
N41    N     0.09172   0.26666   0.07202   0.00000  Uiso   1.00
N42    N     0.34127   0.55138   0.26705   0.00000  Uiso   1.00
N43    N     0.04016   0.91886   0.14486   0.00000  Uiso   1.00
N44    N     0.15672   0.31286   0.02047   0.00000  Uiso   1.00
N45    N     0.40627   0.59758   0.21549   0.00000  Uiso   1.00
N46    N     0.10516   0.96506   0.09330   0.00000  Uiso   1.00
C47    C     0.84571   0.81798   0.16609   0.00000  Uiso   1.00
C48    C     0.84593   0.89250   0.12793   0.00000  Uiso   1.00
C49    C     0.88263   0.98032   0.12446   0.00000  Uiso   1.00
C50    C     0.87596   0.03835   0.08697   0.00000  Uiso   1.00
C51    C     0.88265   0.15847   0.03272   0.00000  Uiso   1.00
C52    C     0.77784   0.81269   0.18174   0.00000  Uiso   1.00
C53    C     0.75731   0.83339   0.22353   0.00000  Uiso   1.00
C54    C     0.69332   0.82422   0.23134   0.00000  Uiso   1.00
C55    C     0.59431   0.82036   0.26065   0.00000  Uiso   1.00
C56    C     0.86051   0.71236   0.14719   0.00000  Uiso   1.00
C57    C     0.90947   0.64870   0.15993   0.00000  Uiso   1.00
C58    C     0.91507   0.55504   0.13866   0.00000  Uiso   1.00
C59    C     0.94441   0.39541   0.11433   0.00000  Uiso   1.00
C60    C     0.76859   0.76486   0.10567   0.00000  Uiso   1.00
C61    C     0.80404   0.86364   0.09511   0.00000  Uiso   1.00
C62    C     0.79731   0.92155   0.05762   0.00000  Uiso   1.00
C63    C     0.83400   0.00944   0.05410   0.00000  Uiso   1.00
C64    C     0.73596   0.78384   0.14893   0.00000  Uiso   1.00
C65    C     0.67199   0.77462   0.15669   0.00000  Uiso   1.00
C66    C     0.65136   0.79531   0.19847   0.00000  Uiso   1.00
C67    C     0.81862   0.68351   0.11438   0.00000  Uiso   1.00
C68    C     0.82415   0.58993   0.09309   0.00000  Uiso   1.00
C69    C     0.87310   0.52614   0.10579   0.00000  Uiso   1.00
H70    H     0.87832   0.84045   0.19164   0.00000  Uiso   1.00
H71    H     0.91504   0.00263   0.14986   0.00000  Uiso   1.00
H72    H     0.78973   0.85571   0.24891   0.00000  Uiso   1.00
H73    H     0.94187   0.67105   0.18533   0.00000  Uiso   1.00
H74    H     0.93726   0.16973   0.08909   0.00000  Uiso   1.00
H75    H     0.67305   0.85992   0.29795   0.00000  Uiso   1.00
H76    H     0.99386   0.47052   0.16386   0.00000  Uiso   1.00
H77    H     0.73598   0.74239   0.08013   0.00000  Uiso   1.00
H78    H     0.76489   0.89920   0.03223   0.00000  Uiso   1.00
H79    H     0.63959   0.75228   0.13128   0.00000  Uiso   1.00
H80    H     0.79172   0.56762   0.06770   0.00000  Uiso   1.00
H81    H     0.81539   0.08579   0.99362   0.00000  Uiso   1.00
H82    H     0.55118   0.77597   0.20247   0.00000  Uiso   1.00
H83    H     0.87200   0.38658   0.06839   0.00000  Uiso   1.00
O84    O     0.89790   0.23270   0.01187   0.00000  Uiso   1.00
O85    O     0.55127   0.82622   0.28588   0.00000  Uiso   1.00
O86    O     0.97217   0.31534   0.10996   0.00000  Uiso   1.00
N87    N     0.90462   0.12845   0.07319   0.00000  Uiso   1.00
N88    N     0.65760   0.83881   0.26846   0.00000  Uiso   1.00
N89    N     0.95752   0.47474   0.14311   0.00000  Uiso   1.00
N90    N     0.83905   0.08328   0.02181   0.00000  Uiso   1.00
N91    N     0.59202   0.79363   0.21708   0.00000  Uiso   1.00
N92    N     0.89195   0.42957   0.09173   0.00000  Uiso   1.00
C93    C     0.34803   0.92511   0.66583   0.00000  Uiso   1.00
C94    C     0.34876   0.99876   0.62737   0.00000  Uiso   1.00
C95    C     0.38557   0.08643   0.62376   0.00000  Uiso   1.00
C96    C     0.37939   0.14361   0.58601   0.00000  Uiso   1.00
C97    C     0.38681   0.26249   0.53132   0.00000  Uiso   1.00
C98    C     0.27998   0.92031   0.68112   0.00000  Uiso   1.00
C99    C     0.25896   0.94200   0.72271   0.00000  Uiso   1.00
C100   C     0.19488   0.93313   0.73020   0.00000  Uiso   1.00
C101   C     0.09552   0.93013   0.75896   0.00000  Uiso   1.00
C102   C     0.36297   0.81904   0.64744   0.00000  Uiso   1.00
C103   C     0.41172   0.75557   0.66071   0.00000  Uiso   1.00
C104   C     0.41750   0.66143   0.63986   0.00000  Uiso   1.00
C105   C     0.44701   0.50120   0.61633   0.00000  Uiso   1.00
C106   C     0.27159   0.87078   0.60520   0.00000  Uiso   1.00
C107   C     0.30723   0.96925   0.59444   0.00000  Uiso   1.00
C108   C     0.30100   0.02631   0.55668   0.00000  Uiso   1.00
C109   C     0.33779   0.11405   0.55302   0.00000  Uiso   1.00
C110   C     0.23846   0.89080   0.64819   0.00000  Uiso   1.00
C111   C     0.17439   0.88188   0.65563   0.00000  Uiso   1.00
C112   C     0.15328   0.90356   0.69721   0.00000  Uiso   1.00
C113   C     0.32145   0.78953   0.61451   0.00000  Uiso   1.00
C114   C     0.32715   0.69546   0.59363   0.00000  Uiso   1.00
C115   C     0.37591   0.63186   0.60687   0.00000  Uiso   1.00
H116   H     0.38035   0.94809   0.69147   0.00000  Uiso   1.00
H117   H     0.41769   0.10925   0.64926   0.00000  Uiso   1.00
H118   H     0.29111   0.96483   0.74818   0.00000  Uiso   1.00
H119   H     0.44385   0.77843   0.68620   0.00000  Uiso   1.00
H120   H     0.44076   0.27492   0.58794   0.00000  Uiso   1.00
H121   H     0.17385   0.97037   0.79654   0.00000  Uiso   1.00
H122   H     0.49593   0.57732   0.66583   0.00000  Uiso   1.00
H123   H     0.23926   0.84780   0.57956   0.00000  Uiso   1.00
H124   H     0.26886   0.00345   0.53120   0.00000  Uiso   1.00
H125   H     0.14227   0.85904   0.63013   0.00000  Uiso   1.00
H126   H     0.29501   0.67264   0.56815   0.00000  Uiso   1.00
H127   H     0.31996   0.18906   0.49213   0.00000  Uiso   1.00
H128   H     0.05305   0.88451   0.70073   0.00000  Uiso   1.00
H129   H     0.37513   0.49146   0.57002   0.00000  Uiso   1.00
O130   O     0.40236   0.33622   0.51025   0.00000  Uiso   1.00
O131   O     0.05219   0.93664   0.78392   0.00000  Uiso   1.00
O132   O     0.47475   0.42098   0.61244   0.00000  Uiso   1.00
N133   N     0.40828   0.23334   0.57202   0.00000  Uiso   1.00
N134   N     0.15873   0.94862   0.76705   0.00000  Uiso   1.00
N135   N     0.45984   0.58114   0.64486   0.00000  Uiso   1.00
N136   N     0.34328   0.18714   0.52047   0.00000  Uiso   1.00
N137   N     0.09373   0.90242   0.71549   0.00000  Uiso   1.00
N138   N     0.39484   0.53494   0.59330   0.00000  Uiso   1.00
C139   C     0.65429   0.68202   0.66609   0.00000  Uiso   1.00
C140   C     0.65407   0.60750   0.62793   0.00000  Uiso   1.00
C141   C     0.61737   0.51968   0.62446   0.00000  Uiso   1.00
C142   C     0.62404   0.46165   0.58697   0.00000  Uiso   1.00
C143   C     0.61735   0.34153   0.53272   0.00000  Uiso   1.00
C144   C     0.72216   0.68731   0.68174   0.00000  Uiso   1.00
C145   C     0.74269   0.66661   0.72353   0.00000  Uiso   1.00
C146   C     0.80668   0.67578   0.73134   0.00000  Uiso   1.00
C147   C     0.90569   0.67964   0.76065   0.00000  Uiso   1.00
C148   C     0.63949   0.78764   0.64719   0.00000  Uiso   1.00
C149   C     0.59053   0.85130   0.65993   0.00000  Uiso   1.00
C150   C     0.58493   0.94496   0.63866   0.00000  Uiso   1.00
C151   C     0.55559   0.10459   0.61433   0.00000  Uiso   1.00
C152   C     0.73141   0.73514   0.60567   0.00000  Uiso   1.00
C153   C     0.69596   0.63636   0.59511   0.00000  Uiso   1.00
C154   C     0.70269   0.57845   0.55762   0.00000  Uiso   1.00
C155   C     0.66600   0.49056   0.55410   0.00000  Uiso   1.00
C156   C     0.76404   0.71616   0.64893   0.00000  Uiso   1.00
C157   C     0.82801   0.72538   0.65669   0.00000  Uiso   1.00
C158   C     0.84864   0.70469   0.69847   0.00000  Uiso   1.00
C159   C     0.68138   0.81649   0.61438   0.00000  Uiso   1.00
C160   C     0.67585   0.91007   0.59309   0.00000  Uiso   1.00
C161   C     0.62690   0.97386   0.60579   0.00000  Uiso   1.00
H162   H     0.62168   0.65955   0.69164   0.00000  Uiso   1.00
H163   H     0.58496   0.49737   0.64986   0.00000  Uiso   1.00
H164   H     0.71027   0.64429   0.74891   0.00000  Uiso   1.00
H165   H     0.55813   0.82895   0.68533   0.00000  Uiso   1.00
H166   H     0.56274   0.33027   0.58909   0.00000  Uiso   1.00
H167   H     0.82695   0.64008   0.79795   0.00000  Uiso   1.00
H168   H     0.50614   0.02948   0.66386   0.00000  Uiso   1.00
H169   H     0.76402   0.75761   0.58013   0.00000  Uiso   1.00
H170   H     0.73511   0.60080   0.53223   0.00000  Uiso   1.00
H171   H     0.86041   0.74772   0.63128   0.00000  Uiso   1.00
H172   H     0.70828   0.93238   0.56770   0.00000  Uiso   1.00
H173   H     0.68461   0.41421   0.49362   0.00000  Uiso   1.00
H174   H     0.94882   0.72403   0.70247   0.00000  Uiso   1.00
H175   H     0.62800   0.11342   0.56839   0.00000  Uiso   1.00
O176   O     0.60210   0.26730   0.51187   0.00000  Uiso   1.00
O177   O     0.94873   0.67378   0.78588   0.00000  Uiso   1.00
O178   O     0.52783   0.18466   0.60996   0.00000  Uiso   1.00
N179   N     0.59538   0.37155   0.57319   0.00000  Uiso   1.00
N180   N     0.84240   0.66119   0.76846   0.00000  Uiso   1.00
N181   N     0.54248   0.02526   0.64311   0.00000  Uiso   1.00
N182   N     0.66095   0.41672   0.52181   0.00000  Uiso   1.00
N183   N     0.90798   0.70637   0.71708   0.00000  Uiso   1.00
N184   N     0.60805   0.07043   0.59173   0.00000  Uiso   1.00
C185   C     0.84803   0.57489   0.33417   0.00000  Uiso   1.00
C186   C     0.84876   0.50124   0.37263   0.00000  Uiso   1.00
C187   C     0.88557   0.41357   0.37624   0.00000  Uiso   1.00
C188   C     0.87939   0.35639   0.41399   0.00000  Uiso   1.00
C189   C     0.88681   0.23751   0.46868   0.00000  Uiso   1.00
C190   C     0.77998   0.57969   0.31888   0.00000  Uiso   1.00
C191   C     0.75896   0.55800   0.27729   0.00000  Uiso   1.00
C192   C     0.69488   0.56687   0.26980   0.00000  Uiso   1.00
C193   C     0.59552   0.56987   0.24104   0.00000  Uiso   1.00
C194   C     0.86297   0.68096   0.35256   0.00000  Uiso   1.00
C195   C     0.91172   0.74443   0.33929   0.00000  Uiso   1.00
C196   C     0.91750   0.83857   0.36014   0.00000  Uiso   1.00
C197   C     0.94701   0.99880   0.38367   0.00000  Uiso   1.00
C198   C     0.77159   0.62922   0.39480   0.00000  Uiso   1.00
C199   C     0.80723   0.53075   0.40556   0.00000  Uiso   1.00
C200   C     0.80100   0.47369   0.44332   0.00000  Uiso   1.00
C201   C     0.83779   0.38595   0.44698   0.00000  Uiso   1.00
C202   C     0.73846   0.60920   0.35181   0.00000  Uiso   1.00
C203   C     0.67439   0.61812   0.34437   0.00000  Uiso   1.00
C204   C     0.65328   0.59644   0.30279   0.00000  Uiso   1.00
C205   C     0.82145   0.71047   0.38549   0.00000  Uiso   1.00
C206   C     0.82715   0.80454   0.40637   0.00000  Uiso   1.00
C207   C     0.87591   0.86814   0.39313   0.00000  Uiso   1.00
H208   H     0.88035   0.55191   0.30853   0.00000  Uiso   1.00
H209   H     0.91769   0.39075   0.35074   0.00000  Uiso   1.00
H210   H     0.79111   0.53517   0.25182   0.00000  Uiso   1.00
H211   H     0.94385   0.72157   0.31380   0.00000  Uiso   1.00
H212   H     0.94076   0.22508   0.41206   0.00000  Uiso   1.00
H213   H     0.67385   0.52963   0.20346   0.00000  Uiso   1.00
H214   H     0.99593   0.92268   0.33417   0.00000  Uiso   1.00
H215   H     0.73926   0.65220   0.42044   0.00000  Uiso   1.00
H216   H     0.76886   0.49655   0.46880   0.00000  Uiso   1.00
H217   H     0.64227   0.64096   0.36987   0.00000  Uiso   1.00
H218   H     0.79501   0.82736   0.43185   0.00000  Uiso   1.00
H219   H     0.81996   0.31094   0.50787   0.00000  Uiso   1.00
H220   H     0.55305   0.61549   0.29927   0.00000  Uiso   1.00
H221   H     0.87513   0.00854   0.42998   0.00000  Uiso   1.00
O222   O     0.90236   0.16378   0.48975   0.00000  Uiso   1.00
O223   O     0.55219   0.56336   0.21608   0.00000  Uiso   1.00
O224   O     0.97475   0.07902   0.38756   0.00000  Uiso   1.00
N225   N     0.90828   0.26666   0.42798   0.00000  Uiso   1.00
N226   N     0.65873   0.55138   0.23295   0.00000  Uiso   1.00
N227   N     0.95984   0.91886   0.35514   0.00000  Uiso   1.00
N228   N     0.84328   0.31286   0.47953   0.00000  Uiso   1.00
N229   N     0.59373   0.59758   0.28451   0.00000  Uiso   1.00
N230   N     0.89484   0.96506   0.40670   0.00000  Uiso   1.00
C231   C     0.15429   0.81798   0.33391   0.00000  Uiso   1.00
C232   C     0.15407   0.89250   0.37207   0.00000  Uiso   1.00
C233   C     0.11737   0.98032   0.37554   0.00000  Uiso   1.00
C234   C     0.12404   0.03835   0.41303   0.00000  Uiso   1.00
C235   C     0.11735   0.15847   0.46728   0.00000  Uiso   1.00
C236   C     0.22216   0.81269   0.31826   0.00000  Uiso   1.00
C237   C     0.24269   0.83339   0.27647   0.00000  Uiso   1.00
C238   C     0.30668   0.82422   0.26866   0.00000  Uiso   1.00
C239   C     0.40569   0.82036   0.23935   0.00000  Uiso   1.00
C240   C     0.13949   0.71236   0.35281   0.00000  Uiso   1.00
C241   C     0.09053   0.64870   0.34007   0.00000  Uiso   1.00
C242   C     0.08493   0.55504   0.36134   0.00000  Uiso   1.00
C243   C     0.05559   0.39541   0.38567   0.00000  Uiso   1.00
C244   C     0.23141   0.76486   0.39433   0.00000  Uiso   1.00
C245   C     0.19596   0.86364   0.40489   0.00000  Uiso   1.00
C246   C     0.20269   0.92155   0.44238   0.00000  Uiso   1.00
C247   C     0.16600   0.00944   0.44590   0.00000  Uiso   1.00
C248   C     0.26404   0.78384   0.35107   0.00000  Uiso   1.00
C249   C     0.32801   0.77462   0.34331   0.00000  Uiso   1.00
C250   C     0.34864   0.79531   0.30153   0.00000  Uiso   1.00
C251   C     0.18138   0.68351   0.38562   0.00000  Uiso   1.00
C252   C     0.17585   0.58993   0.40691   0.00000  Uiso   1.00
C253   C     0.12690   0.52614   0.39421   0.00000  Uiso   1.00
H254   H     0.12168   0.84045   0.30836   0.00000  Uiso   1.00
H255   H     0.08496   0.00263   0.35014   0.00000  Uiso   1.00
H256   H     0.21027   0.85571   0.25109   0.00000  Uiso   1.00
H257   H     0.05813   0.67105   0.31467   0.00000  Uiso   1.00
H258   H     0.06274   0.16973   0.41091   0.00000  Uiso   1.00
H259   H     0.32695   0.85992   0.20205   0.00000  Uiso   1.00
H260   H     0.00614   0.47052   0.33614   0.00000  Uiso   1.00
H261   H     0.26402   0.74239   0.41987   0.00000  Uiso   1.00
H262   H     0.23511   0.89920   0.46777   0.00000  Uiso   1.00
H263   H     0.36041   0.75228   0.36872   0.00000  Uiso   1.00
H264   H     0.20828   0.56762   0.43230   0.00000  Uiso   1.00
H265   H     0.18461   0.08579   0.50638   0.00000  Uiso   1.00
H266   H     0.44882   0.77597   0.29753   0.00000  Uiso   1.00
H267   H     0.12800   0.38658   0.43161   0.00000  Uiso   1.00
O268   O     0.10210   0.23270   0.48813   0.00000  Uiso   1.00
O269   O     0.44873   0.82622   0.21412   0.00000  Uiso   1.00
O270   O     0.02783   0.31534   0.39004   0.00000  Uiso   1.00
N271   N     0.09538   0.12845   0.42681   0.00000  Uiso   1.00
N272   N     0.34240   0.83881   0.23154   0.00000  Uiso   1.00
N273   N     0.04248   0.47474   0.35689   0.00000  Uiso   1.00
N274   N     0.16095   0.08328   0.47819   0.00000  Uiso   1.00
N275   N     0.40798   0.79363   0.28292   0.00000  Uiso   1.00
N276   N     0.10805   0.42957   0.40827   0.00000  Uiso   1.00
C277   C     0.65197   0.92511   0.83417   0.00000  Uiso   1.00
C278   C     0.65124   0.99876   0.87263   0.00000  Uiso   1.00
C279   C     0.61443   0.08643   0.87624   0.00000  Uiso   1.00
C280   C     0.62061   0.14361   0.91399   0.00000  Uiso   1.00
C281   C     0.61319   0.26249   0.96868   0.00000  Uiso   1.00
C282   C     0.72002   0.92031   0.81888   0.00000  Uiso   1.00
C283   C     0.74104   0.94200   0.77729   0.00000  Uiso   1.00
C284   C     0.80512   0.93313   0.76980   0.00000  Uiso   1.00
C285   C     0.90448   0.93013   0.74104   0.00000  Uiso   1.00
C286   C     0.63703   0.81904   0.85256   0.00000  Uiso   1.00
C287   C     0.58828   0.75557   0.83929   0.00000  Uiso   1.00
C288   C     0.58250   0.66143   0.86014   0.00000  Uiso   1.00
C289   C     0.55299   0.50120   0.88367   0.00000  Uiso   1.00
C290   C     0.72841   0.87078   0.89480   0.00000  Uiso   1.00
C291   C     0.69277   0.96925   0.90556   0.00000  Uiso   1.00
C292   C     0.69900   0.02631   0.94332   0.00000  Uiso   1.00
C293   C     0.66221   0.11405   0.94698   0.00000  Uiso   1.00
C294   C     0.76154   0.89080   0.85181   0.00000  Uiso   1.00
C295   C     0.82561   0.88188   0.84437   0.00000  Uiso   1.00
C296   C     0.84672   0.90356   0.80279   0.00000  Uiso   1.00
C297   C     0.67855   0.78953   0.88549   0.00000  Uiso   1.00
C298   C     0.67285   0.69546   0.90637   0.00000  Uiso   1.00
C299   C     0.62409   0.63186   0.89313   0.00000  Uiso   1.00
H300   H     0.61965   0.94809   0.80853   0.00000  Uiso   1.00
H301   H     0.58231   0.10925   0.85074   0.00000  Uiso   1.00
H302   H     0.70889   0.96483   0.75182   0.00000  Uiso   1.00
H303   H     0.55615   0.77843   0.81380   0.00000  Uiso   1.00
H304   H     0.55924   0.27492   0.91206   0.00000  Uiso   1.00
H305   H     0.82615   0.97037   0.70346   0.00000  Uiso   1.00
H306   H     0.50407   0.57732   0.83417   0.00000  Uiso   1.00
H307   H     0.76074   0.84780   0.92044   0.00000  Uiso   1.00
H308   H     0.73114   0.00345   0.96880   0.00000  Uiso   1.00
H309   H     0.85773   0.85904   0.86987   0.00000  Uiso   1.00
H310   H     0.70499   0.67264   0.93185   0.00000  Uiso   1.00
H311   H     0.68004   0.18906   0.00787   0.00000  Uiso   1.00
H312   H     0.94695   0.88451   0.79927   0.00000  Uiso   1.00
H313   H     0.62487   0.49146   0.92998   0.00000  Uiso   1.00
O314   O     0.59764   0.33622   0.98975   0.00000  Uiso   1.00
O315   O     0.94781   0.93664   0.71608   0.00000  Uiso   1.00
O316   O     0.52525   0.42098   0.88756   0.00000  Uiso   1.00
N317   N     0.59172   0.23334   0.92798   0.00000  Uiso   1.00
N318   N     0.84127   0.94862   0.73295   0.00000  Uiso   1.00
N319   N     0.54016   0.58114   0.85514   0.00000  Uiso   1.00
N320   N     0.65672   0.18714   0.97953   0.00000  Uiso   1.00
N321   N     0.90627   0.90242   0.78451   0.00000  Uiso   1.00
N322   N     0.60516   0.53494   0.90670   0.00000  Uiso   1.00
C323   C     0.34571   0.68202   0.83391   0.00000  Uiso   1.00
C324   C     0.34593   0.60750   0.87207   0.00000  Uiso   1.00
C325   C     0.38263   0.51968   0.87554   0.00000  Uiso   1.00
C326   C     0.37596   0.46165   0.91303   0.00000  Uiso   1.00
C327   C     0.38265   0.34153   0.96728   0.00000  Uiso   1.00
C328   C     0.27784   0.68731   0.81826   0.00000  Uiso   1.00
C329   C     0.25731   0.66661   0.77647   0.00000  Uiso   1.00
C330   C     0.19332   0.67578   0.76866   0.00000  Uiso   1.00
C331   C     0.09431   0.67964   0.73935   0.00000  Uiso   1.00
C332   C     0.36051   0.78764   0.85281   0.00000  Uiso   1.00
C333   C     0.40947   0.85130   0.84007   0.00000  Uiso   1.00
C334   C     0.41507   0.94496   0.86134   0.00000  Uiso   1.00
C335   C     0.44441   0.10459   0.88567   0.00000  Uiso   1.00
C336   C     0.26859   0.73514   0.89433   0.00000  Uiso   1.00
C337   C     0.30404   0.63636   0.90489   0.00000  Uiso   1.00
C338   C     0.29731   0.57845   0.94238   0.00000  Uiso   1.00
C339   C     0.33400   0.49056   0.94590   0.00000  Uiso   1.00
C340   C     0.23596   0.71616   0.85107   0.00000  Uiso   1.00
C341   C     0.17199   0.72538   0.84331   0.00000  Uiso   1.00
C342   C     0.15136   0.70469   0.80153   0.00000  Uiso   1.00
C343   C     0.31862   0.81649   0.88562   0.00000  Uiso   1.00
C344   C     0.32415   0.91007   0.90691   0.00000  Uiso   1.00
C345   C     0.37310   0.97386   0.89421   0.00000  Uiso   1.00
H346   H     0.37832   0.65955   0.80836   0.00000  Uiso   1.00
H347   H     0.41504   0.49737   0.85014   0.00000  Uiso   1.00
H348   H     0.28973   0.64429   0.75109   0.00000  Uiso   1.00
H349   H     0.44187   0.82895   0.81467   0.00000  Uiso   1.00
H350   H     0.43726   0.33027   0.91091   0.00000  Uiso   1.00
H351   H     0.17305   0.64008   0.70205   0.00000  Uiso   1.00
H352   H     0.49386   0.02948   0.83614   0.00000  Uiso   1.00
H353   H     0.23598   0.75761   0.91987   0.00000  Uiso   1.00
H354   H     0.26489   0.60080   0.96777   0.00000  Uiso   1.00
H355   H     0.13959   0.74772   0.86872   0.00000  Uiso   1.00
H356   H     0.29172   0.93238   0.93230   0.00000  Uiso   1.00
H357   H     0.31539   0.41421   0.00638   0.00000  Uiso   1.00
H358   H     0.05118   0.72403   0.79753   0.00000  Uiso   1.00
H359   H     0.37200   0.11342   0.93161   0.00000  Uiso   1.00
O360   O     0.39790   0.26730   0.98813   0.00000  Uiso   1.00
O361   O     0.05127   0.67378   0.71412   0.00000  Uiso   1.00
O362   O     0.47217   0.18466   0.89004   0.00000  Uiso   1.00
N363   N     0.40462   0.37155   0.92681   0.00000  Uiso   1.00
N364   N     0.15760   0.66119   0.73154   0.00000  Uiso   1.00
N365   N     0.45752   0.02526   0.85689   0.00000  Uiso   1.00
N366   N     0.33905   0.41672   0.97819   0.00000  Uiso   1.00
N367   N     0.09202   0.70637   0.78292   0.00000  Uiso   1.00
N368   N     0.39195   0.07043   0.90827   0.00000  Uiso   1.00
C369   C     0.84803   0.42511   0.83417   0.00000  Uiso   1.00
C370   C     0.84876   0.49876   0.87263   0.00000  Uiso   1.00
C371   C     0.88557   0.58643   0.87624   0.00000  Uiso   1.00
C372   C     0.87939   0.64361   0.91399   0.00000  Uiso   1.00
C373   C     0.88681   0.76249   0.96868   0.00000  Uiso   1.00
C374   C     0.77998   0.42031   0.81888   0.00000  Uiso   1.00
C375   C     0.75896   0.44200   0.77729   0.00000  Uiso   1.00
C376   C     0.69488   0.43313   0.76980   0.00000  Uiso   1.00
C377   C     0.59552   0.43013   0.74104   0.00000  Uiso   1.00
C378   C     0.86297   0.31904   0.85256   0.00000  Uiso   1.00
C379   C     0.91172   0.25557   0.83929   0.00000  Uiso   1.00
C380   C     0.91750   0.16143   0.86014   0.00000  Uiso   1.00
C381   C     0.94701   0.00120   0.88367   0.00000  Uiso   1.00
C382   C     0.77159   0.37078   0.89480   0.00000  Uiso   1.00
C383   C     0.80723   0.46925   0.90556   0.00000  Uiso   1.00
C384   C     0.80100   0.52631   0.94332   0.00000  Uiso   1.00
C385   C     0.83779   0.61405   0.94698   0.00000  Uiso   1.00
C386   C     0.73846   0.39080   0.85181   0.00000  Uiso   1.00
C387   C     0.67439   0.38188   0.84437   0.00000  Uiso   1.00
C388   C     0.65328   0.40356   0.80279   0.00000  Uiso   1.00
C389   C     0.82145   0.28953   0.88549   0.00000  Uiso   1.00
C390   C     0.82715   0.19546   0.90637   0.00000  Uiso   1.00
C391   C     0.87591   0.13186   0.89313   0.00000  Uiso   1.00
H392   H     0.88035   0.44809   0.80853   0.00000  Uiso   1.00
H393   H     0.91769   0.60925   0.85074   0.00000  Uiso   1.00
H394   H     0.79111   0.46483   0.75182   0.00000  Uiso   1.00
H395   H     0.94385   0.27843   0.81380   0.00000  Uiso   1.00
H396   H     0.94076   0.77492   0.91206   0.00000  Uiso   1.00
H397   H     0.67385   0.47037   0.70346   0.00000  Uiso   1.00
H398   H     0.99593   0.07732   0.83417   0.00000  Uiso   1.00
H399   H     0.73926   0.34780   0.92044   0.00000  Uiso   1.00
H400   H     0.76886   0.50345   0.96880   0.00000  Uiso   1.00
H401   H     0.64227   0.35904   0.86987   0.00000  Uiso   1.00
H402   H     0.79501   0.17264   0.93185   0.00000  Uiso   1.00
H403   H     0.81996   0.68906   0.00787   0.00000  Uiso   1.00
H404   H     0.55305   0.38451   0.79927   0.00000  Uiso   1.00
H405   H     0.87513   0.99146   0.92998   0.00000  Uiso   1.00
O406   O     0.90236   0.83622   0.98975   0.00000  Uiso   1.00
O407   O     0.55219   0.43664   0.71608   0.00000  Uiso   1.00
O408   O     0.97475   0.92098   0.88756   0.00000  Uiso   1.00
N409   N     0.90828   0.73334   0.92798   0.00000  Uiso   1.00
N410   N     0.65873   0.44862   0.73295   0.00000  Uiso   1.00
N411   N     0.95984   0.08114   0.85514   0.00000  Uiso   1.00
N412   N     0.84328   0.68714   0.97953   0.00000  Uiso   1.00
N413   N     0.59373   0.40242   0.78451   0.00000  Uiso   1.00
N414   N     0.89484   0.03494   0.90670   0.00000  Uiso   1.00
C415   C     0.15429   0.18202   0.83391   0.00000  Uiso   1.00
C416   C     0.15407   0.10750   0.87207   0.00000  Uiso   1.00
C417   C     0.11737   0.01968   0.87554   0.00000  Uiso   1.00
C418   C     0.12404   0.96165   0.91303   0.00000  Uiso   1.00
C419   C     0.11735   0.84153   0.96728   0.00000  Uiso   1.00
C420   C     0.22216   0.18731   0.81826   0.00000  Uiso   1.00
C421   C     0.24269   0.16661   0.77647   0.00000  Uiso   1.00
C422   C     0.30668   0.17578   0.76866   0.00000  Uiso   1.00
C423   C     0.40569   0.17964   0.73935   0.00000  Uiso   1.00
C424   C     0.13949   0.28764   0.85281   0.00000  Uiso   1.00
C425   C     0.09053   0.35130   0.84007   0.00000  Uiso   1.00
C426   C     0.08493   0.44496   0.86134   0.00000  Uiso   1.00
C427   C     0.05559   0.60459   0.88567   0.00000  Uiso   1.00
C428   C     0.23141   0.23514   0.89433   0.00000  Uiso   1.00
C429   C     0.19596   0.13636   0.90489   0.00000  Uiso   1.00
C430   C     0.20269   0.07845   0.94238   0.00000  Uiso   1.00
C431   C     0.16600   0.99056   0.94590   0.00000  Uiso   1.00
C432   C     0.26404   0.21616   0.85107   0.00000  Uiso   1.00
C433   C     0.32801   0.22538   0.84331   0.00000  Uiso   1.00
C434   C     0.34864   0.20469   0.80153   0.00000  Uiso   1.00
C435   C     0.18138   0.31649   0.88562   0.00000  Uiso   1.00
C436   C     0.17585   0.41007   0.90691   0.00000  Uiso   1.00
C437   C     0.12690   0.47386   0.89421   0.00000  Uiso   1.00
H438   H     0.12168   0.15955   0.80836   0.00000  Uiso   1.00
H439   H     0.08496   0.99737   0.85014   0.00000  Uiso   1.00
H440   H     0.21027   0.14429   0.75109   0.00000  Uiso   1.00
H441   H     0.05813   0.32895   0.81467   0.00000  Uiso   1.00
H442   H     0.06274   0.83027   0.91091   0.00000  Uiso   1.00
H443   H     0.32695   0.14008   0.70205   0.00000  Uiso   1.00
H444   H     0.00614   0.52948   0.83614   0.00000  Uiso   1.00
H445   H     0.26402   0.25761   0.91987   0.00000  Uiso   1.00
H446   H     0.23511   0.10080   0.96777   0.00000  Uiso   1.00
H447   H     0.36041   0.24772   0.86872   0.00000  Uiso   1.00
H448   H     0.20828   0.43238   0.93230   0.00000  Uiso   1.00
H449   H     0.18461   0.91421   0.00638   0.00000  Uiso   1.00
H450   H     0.44882   0.22403   0.79753   0.00000  Uiso   1.00
H451   H     0.12800   0.61342   0.93161   0.00000  Uiso   1.00
O452   O     0.10210   0.76730   0.98813   0.00000  Uiso   1.00
O453   O     0.44873   0.17378   0.71412   0.00000  Uiso   1.00
O454   O     0.02783   0.68466   0.89004   0.00000  Uiso   1.00
N455   N     0.09538   0.87155   0.92681   0.00000  Uiso   1.00
N456   N     0.34240   0.16119   0.73154   0.00000  Uiso   1.00
N457   N     0.04248   0.52526   0.85689   0.00000  Uiso   1.00
N458   N     0.16095   0.91672   0.97819   0.00000  Uiso   1.00
N459   N     0.40798   0.20637   0.78292   0.00000  Uiso   1.00
N460   N     0.10805   0.57043   0.90827   0.00000  Uiso   1.00
C461   C     0.65197   0.07489   0.33417   0.00000  Uiso   1.00
C462   C     0.65124   0.00124   0.37263   0.00000  Uiso   1.00
C463   C     0.61443   0.91357   0.37624   0.00000  Uiso   1.00
C464   C     0.62061   0.85639   0.41399   0.00000  Uiso   1.00
C465   C     0.61319   0.73751   0.46868   0.00000  Uiso   1.00
C466   C     0.72002   0.07969   0.31888   0.00000  Uiso   1.00
C467   C     0.74104   0.05800   0.27729   0.00000  Uiso   1.00
C468   C     0.80512   0.06687   0.26980   0.00000  Uiso   1.00
C469   C     0.90448   0.06987   0.24104   0.00000  Uiso   1.00
C470   C     0.63703   0.18096   0.35256   0.00000  Uiso   1.00
C471   C     0.58828   0.24443   0.33929   0.00000  Uiso   1.00
C472   C     0.58250   0.33857   0.36014   0.00000  Uiso   1.00
C473   C     0.55299   0.49880   0.38367   0.00000  Uiso   1.00
C474   C     0.72841   0.12922   0.39480   0.00000  Uiso   1.00
C475   C     0.69277   0.03075   0.40556   0.00000  Uiso   1.00
C476   C     0.69900   0.97369   0.44332   0.00000  Uiso   1.00
C477   C     0.66221   0.88595   0.44698   0.00000  Uiso   1.00
C478   C     0.76154   0.10920   0.35181   0.00000  Uiso   1.00
C479   C     0.82561   0.11812   0.34437   0.00000  Uiso   1.00
C480   C     0.84672   0.09644   0.30279   0.00000  Uiso   1.00
C481   C     0.67855   0.21047   0.38549   0.00000  Uiso   1.00
C482   C     0.67285   0.30454   0.40637   0.00000  Uiso   1.00
C483   C     0.62409   0.36814   0.39313   0.00000  Uiso   1.00
H484   H     0.61965   0.05191   0.30853   0.00000  Uiso   1.00
H485   H     0.58231   0.89075   0.35074   0.00000  Uiso   1.00
H486   H     0.70889   0.03517   0.25182   0.00000  Uiso   1.00
H487   H     0.55615   0.22157   0.31380   0.00000  Uiso   1.00
H488   H     0.55924   0.72508   0.41206   0.00000  Uiso   1.00
H489   H     0.82615   0.02963   0.20346   0.00000  Uiso   1.00
H490   H     0.50407   0.42268   0.33417   0.00000  Uiso   1.00
H491   H     0.76074   0.15220   0.42044   0.00000  Uiso   1.00
H492   H     0.73114   0.99655   0.46880   0.00000  Uiso   1.00
H493   H     0.85773   0.14096   0.36987   0.00000  Uiso   1.00
H494   H     0.70499   0.32736   0.43185   0.00000  Uiso   1.00
H495   H     0.68004   0.81094   0.50787   0.00000  Uiso   1.00
H496   H     0.94695   0.11549   0.29927   0.00000  Uiso   1.00
H497   H     0.62487   0.50854   0.42998   0.00000  Uiso   1.00
O498   O     0.59764   0.66378   0.48975   0.00000  Uiso   1.00
O499   O     0.94781   0.06336   0.21608   0.00000  Uiso   1.00
O500   O     0.52525   0.57902   0.38756   0.00000  Uiso   1.00
N501   N     0.59172   0.76666   0.42798   0.00000  Uiso   1.00
N502   N     0.84127   0.05138   0.23295   0.00000  Uiso   1.00
N503   N     0.54016   0.41886   0.35514   0.00000  Uiso   1.00
N504   N     0.65672   0.81286   0.47953   0.00000  Uiso   1.00
N505   N     0.90627   0.09758   0.28451   0.00000  Uiso   1.00
N506   N     0.60516   0.46506   0.40670   0.00000  Uiso   1.00
C507   C     0.34571   0.31798   0.33391   0.00000  Uiso   1.00
C508   C     0.34593   0.39250   0.37207   0.00000  Uiso   1.00
C509   C     0.38263   0.48032   0.37554   0.00000  Uiso   1.00
C510   C     0.37596   0.53835   0.41303   0.00000  Uiso   1.00
C511   C     0.38265   0.65847   0.46728   0.00000  Uiso   1.00
C512   C     0.27784   0.31269   0.31826   0.00000  Uiso   1.00
C513   C     0.25731   0.33339   0.27647   0.00000  Uiso   1.00
C514   C     0.19332   0.32422   0.26866   0.00000  Uiso   1.00
C515   C     0.09431   0.32036   0.23935   0.00000  Uiso   1.00
C516   C     0.36051   0.21236   0.35281   0.00000  Uiso   1.00
C517   C     0.40947   0.14870   0.34007   0.00000  Uiso   1.00
C518   C     0.41507   0.05504   0.36134   0.00000  Uiso   1.00
C519   C     0.44441   0.89541   0.38567   0.00000  Uiso   1.00
C520   C     0.26859   0.26486   0.39433   0.00000  Uiso   1.00
C521   C     0.30404   0.36364   0.40489   0.00000  Uiso   1.00
C522   C     0.29731   0.42155   0.44238   0.00000  Uiso   1.00
C523   C     0.33400   0.50944   0.44590   0.00000  Uiso   1.00
C524   C     0.23596   0.28384   0.35107   0.00000  Uiso   1.00
C525   C     0.17199   0.27462   0.34331   0.00000  Uiso   1.00
C526   C     0.15136   0.29531   0.30153   0.00000  Uiso   1.00
C527   C     0.31862   0.18351   0.38562   0.00000  Uiso   1.00
C528   C     0.32415   0.08993   0.40691   0.00000  Uiso   1.00
C529   C     0.37310   0.02614   0.39421   0.00000  Uiso   1.00
H530   H     0.37832   0.34045   0.30836   0.00000  Uiso   1.00
H531   H     0.41504   0.50263   0.35014   0.00000  Uiso   1.00
H532   H     0.28973   0.35571   0.25109   0.00000  Uiso   1.00
H533   H     0.44187   0.17105   0.31467   0.00000  Uiso   1.00
H534   H     0.43726   0.66973   0.41091   0.00000  Uiso   1.00
H535   H     0.17305   0.35992   0.20205   0.00000  Uiso   1.00
H536   H     0.49386   0.97052   0.33614   0.00000  Uiso   1.00
H537   H     0.23598   0.24239   0.41987   0.00000  Uiso   1.00
H538   H     0.26489   0.39920   0.46777   0.00000  Uiso   1.00
H539   H     0.13959   0.25228   0.36872   0.00000  Uiso   1.00
H540   H     0.29172   0.06762   0.43230   0.00000  Uiso   1.00
H541   H     0.31539   0.58579   0.50638   0.00000  Uiso   1.00
H542   H     0.05118   0.27597   0.29753   0.00000  Uiso   1.00
H543   H     0.37200   0.88658   0.43161   0.00000  Uiso   1.00
O544   O     0.39790   0.73270   0.48813   0.00000  Uiso   1.00
O545   O     0.05127   0.32622   0.21412   0.00000  Uiso   1.00
O546   O     0.47217   0.81534   0.39004   0.00000  Uiso   1.00
N547   N     0.40462   0.62845   0.42681   0.00000  Uiso   1.00
N548   N     0.15760   0.33881   0.23154   0.00000  Uiso   1.00
N549   N     0.45752   0.97474   0.35689   0.00000  Uiso   1.00
N550   N     0.33905   0.58328   0.47819   0.00000  Uiso   1.00
N551   N     0.09202   0.29363   0.28292   0.00000  Uiso   1.00
N552   N     0.39195   0.92957   0.40827   0.00000  Uiso   1.00
C553   C     0.15197   0.42511   0.66583   0.00000  Uiso   1.00
C554   C     0.15124   0.49876   0.62737   0.00000  Uiso   1.00
C555   C     0.11443   0.58643   0.62376   0.00000  Uiso   1.00
C556   C     0.12061   0.64361   0.58601   0.00000  Uiso   1.00
C557   C     0.11319   0.76249   0.53132   0.00000  Uiso   1.00
C558   C     0.22002   0.42031   0.68112   0.00000  Uiso   1.00
C559   C     0.24104   0.44200   0.72271   0.00000  Uiso   1.00
C560   C     0.30512   0.43313   0.73020   0.00000  Uiso   1.00
C561   C     0.40448   0.43013   0.75896   0.00000  Uiso   1.00
C562   C     0.13703   0.31904   0.64744   0.00000  Uiso   1.00
C563   C     0.08828   0.25557   0.66071   0.00000  Uiso   1.00
C564   C     0.08250   0.16143   0.63986   0.00000  Uiso   1.00
C565   C     0.05299   0.00120   0.61633   0.00000  Uiso   1.00
C566   C     0.22841   0.37078   0.60520   0.00000  Uiso   1.00
C567   C     0.19277   0.46925   0.59444   0.00000  Uiso   1.00
C568   C     0.19900   0.52631   0.55668   0.00000  Uiso   1.00
C569   C     0.16221   0.61405   0.55302   0.00000  Uiso   1.00
C570   C     0.26154   0.39080   0.64819   0.00000  Uiso   1.00
C571   C     0.32561   0.38188   0.65563   0.00000  Uiso   1.00
C572   C     0.34672   0.40356   0.69721   0.00000  Uiso   1.00
C573   C     0.17855   0.28953   0.61451   0.00000  Uiso   1.00
C574   C     0.17285   0.19546   0.59363   0.00000  Uiso   1.00
C575   C     0.12409   0.13186   0.60687   0.00000  Uiso   1.00
H576   H     0.11965   0.44809   0.69147   0.00000  Uiso   1.00
H577   H     0.08231   0.60925   0.64926   0.00000  Uiso   1.00
H578   H     0.20889   0.46483   0.74818   0.00000  Uiso   1.00
H579   H     0.05615   0.27843   0.68620   0.00000  Uiso   1.00
H580   H     0.05924   0.77492   0.58794   0.00000  Uiso   1.00
H581   H     0.32615   0.47037   0.79654   0.00000  Uiso   1.00
H582   H     0.00407   0.07732   0.66583   0.00000  Uiso   1.00
H583   H     0.26074   0.34780   0.57956   0.00000  Uiso   1.00
H584   H     0.23114   0.50345   0.53120   0.00000  Uiso   1.00
H585   H     0.35773   0.35904   0.63013   0.00000  Uiso   1.00
H586   H     0.20499   0.17264   0.56815   0.00000  Uiso   1.00
H587   H     0.18004   0.68906   0.49213   0.00000  Uiso   1.00
H588   H     0.44695   0.38451   0.70073   0.00000  Uiso   1.00
H589   H     0.12487   0.99146   0.57002   0.00000  Uiso   1.00
O590   O     0.09764   0.83622   0.51025   0.00000  Uiso   1.00
O591   O     0.44781   0.43664   0.78392   0.00000  Uiso   1.00
O592   O     0.02525   0.92098   0.61244   0.00000  Uiso   1.00
N593   N     0.09172   0.73334   0.57202   0.00000  Uiso   1.00
N594   N     0.34127   0.44862   0.76705   0.00000  Uiso   1.00
N595   N     0.04016   0.08114   0.64486   0.00000  Uiso   1.00
N596   N     0.15672   0.68714   0.52047   0.00000  Uiso   1.00
N597   N     0.40627   0.40242   0.71549   0.00000  Uiso   1.00
N598   N     0.10516   0.03494   0.59330   0.00000  Uiso   1.00
C599   C     0.84571   0.18202   0.66609   0.00000  Uiso   1.00
C600   C     0.84593   0.10750   0.62793   0.00000  Uiso   1.00
C601   C     0.88263   0.01968   0.62446   0.00000  Uiso   1.00
C602   C     0.87596   0.96165   0.58697   0.00000  Uiso   1.00
C603   C     0.88265   0.84153   0.53272   0.00000  Uiso   1.00
C604   C     0.77784   0.18731   0.68174   0.00000  Uiso   1.00
C605   C     0.75731   0.16661   0.72353   0.00000  Uiso   1.00
C606   C     0.69332   0.17578   0.73134   0.00000  Uiso   1.00
C607   C     0.59431   0.17964   0.76065   0.00000  Uiso   1.00
C608   C     0.86051   0.28764   0.64719   0.00000  Uiso   1.00
C609   C     0.90947   0.35130   0.65993   0.00000  Uiso   1.00
C610   C     0.91507   0.44496   0.63866   0.00000  Uiso   1.00
C611   C     0.94441   0.60459   0.61433   0.00000  Uiso   1.00
C612   C     0.76859   0.23514   0.60567   0.00000  Uiso   1.00
C613   C     0.80404   0.13636   0.59511   0.00000  Uiso   1.00
C614   C     0.79731   0.07845   0.55762   0.00000  Uiso   1.00
C615   C     0.83400   0.99056   0.55410   0.00000  Uiso   1.00
C616   C     0.73596   0.21616   0.64893   0.00000  Uiso   1.00
C617   C     0.67199   0.22538   0.65669   0.00000  Uiso   1.00
C618   C     0.65136   0.20469   0.69847   0.00000  Uiso   1.00
C619   C     0.81862   0.31649   0.61438   0.00000  Uiso   1.00
C620   C     0.82415   0.41007   0.59309   0.00000  Uiso   1.00
C621   C     0.87310   0.47386   0.60579   0.00000  Uiso   1.00
H622   H     0.87832   0.15955   0.69164   0.00000  Uiso   1.00
H623   H     0.91504   0.99737   0.64986   0.00000  Uiso   1.00
H624   H     0.78973   0.14429   0.74891   0.00000  Uiso   1.00
H625   H     0.94187   0.32895   0.68533   0.00000  Uiso   1.00
H626   H     0.93726   0.83027   0.58909   0.00000  Uiso   1.00
H627   H     0.67305   0.14008   0.79795   0.00000  Uiso   1.00
H628   H     0.99386   0.52948   0.66386   0.00000  Uiso   1.00
H629   H     0.73598   0.25761   0.58013   0.00000  Uiso   1.00
H630   H     0.76489   0.10080   0.53223   0.00000  Uiso   1.00
H631   H     0.63959   0.24772   0.63128   0.00000  Uiso   1.00
H632   H     0.79172   0.43238   0.56770   0.00000  Uiso   1.00
H633   H     0.81539   0.91421   0.49362   0.00000  Uiso   1.00
H634   H     0.55118   0.22403   0.70247   0.00000  Uiso   1.00
H635   H     0.87200   0.61342   0.56839   0.00000  Uiso   1.00
O636   O     0.89790   0.76730   0.51187   0.00000  Uiso   1.00
O637   O     0.55127   0.17378   0.78588   0.00000  Uiso   1.00
O638   O     0.97217   0.68466   0.60996   0.00000  Uiso   1.00
N639   N     0.90462   0.87155   0.57319   0.00000  Uiso   1.00
N640   N     0.65760   0.16119   0.76846   0.00000  Uiso   1.00
N641   N     0.95752   0.52526   0.64311   0.00000  Uiso   1.00
N642   N     0.83905   0.91672   0.52181   0.00000  Uiso   1.00
N643   N     0.59202   0.20637   0.71708   0.00000  Uiso   1.00
N644   N     0.89195   0.57043   0.59173   0.00000  Uiso   1.00
C645   C     0.34803   0.07489   0.16583   0.00000  Uiso   1.00
C646   C     0.34876   0.00124   0.12737   0.00000  Uiso   1.00
C647   C     0.38557   0.91357   0.12376   0.00000  Uiso   1.00
C648   C     0.37939   0.85639   0.08601   0.00000  Uiso   1.00
C649   C     0.38681   0.73751   0.03132   0.00000  Uiso   1.00
C650   C     0.27998   0.07969   0.18112   0.00000  Uiso   1.00
C651   C     0.25896   0.05800   0.22271   0.00000  Uiso   1.00
C652   C     0.19488   0.06687   0.23020   0.00000  Uiso   1.00
C653   C     0.09552   0.06987   0.25896   0.00000  Uiso   1.00
C654   C     0.36297   0.18096   0.14744   0.00000  Uiso   1.00
C655   C     0.41172   0.24443   0.16071   0.00000  Uiso   1.00
C656   C     0.41750   0.33857   0.13986   0.00000  Uiso   1.00
C657   C     0.44701   0.49880   0.11633   0.00000  Uiso   1.00
C658   C     0.27159   0.12922   0.10520   0.00000  Uiso   1.00
C659   C     0.30723   0.03075   0.09444   0.00000  Uiso   1.00
C660   C     0.30100   0.97369   0.05668   0.00000  Uiso   1.00
C661   C     0.33779   0.88595   0.05302   0.00000  Uiso   1.00
C662   C     0.23846   0.10920   0.14819   0.00000  Uiso   1.00
C663   C     0.17439   0.11812   0.15563   0.00000  Uiso   1.00
C664   C     0.15328   0.09644   0.19721   0.00000  Uiso   1.00
C665   C     0.32145   0.21047   0.11451   0.00000  Uiso   1.00
C666   C     0.32715   0.30454   0.09363   0.00000  Uiso   1.00
C667   C     0.37591   0.36814   0.10687   0.00000  Uiso   1.00
H668   H     0.38035   0.05191   0.19147   0.00000  Uiso   1.00
H669   H     0.41769   0.89075   0.14926   0.00000  Uiso   1.00
H670   H     0.29111   0.03517   0.24818   0.00000  Uiso   1.00
H671   H     0.44385   0.22157   0.18620   0.00000  Uiso   1.00
H672   H     0.44076   0.72508   0.08794   0.00000  Uiso   1.00
H673   H     0.17385   0.02963   0.29654   0.00000  Uiso   1.00
H674   H     0.49593   0.42268   0.16583   0.00000  Uiso   1.00
H675   H     0.23926   0.15220   0.07956   0.00000  Uiso   1.00
H676   H     0.26886   0.99655   0.03120   0.00000  Uiso   1.00
H677   H     0.14227   0.14096   0.13013   0.00000  Uiso   1.00
H678   H     0.29501   0.32736   0.06815   0.00000  Uiso   1.00
H679   H     0.31996   0.81094   0.99213   0.00000  Uiso   1.00
H680   H     0.05305   0.11549   0.20073   0.00000  Uiso   1.00
H681   H     0.37513   0.50854   0.07002   0.00000  Uiso   1.00
O682   O     0.40236   0.66378   0.01025   0.00000  Uiso   1.00
O683   O     0.05219   0.06336   0.28392   0.00000  Uiso   1.00
O684   O     0.47475   0.57902   0.11244   0.00000  Uiso   1.00
N685   N     0.40828   0.76666   0.07202   0.00000  Uiso   1.00
N686   N     0.15873   0.05138   0.26705   0.00000  Uiso   1.00
N687   N     0.45984   0.41886   0.14486   0.00000  Uiso   1.00
N688   N     0.34328   0.81286   0.02047   0.00000  Uiso   1.00
N689   N     0.09373   0.09758   0.21549   0.00000  Uiso   1.00
N690   N     0.39484   0.46506   0.09330   0.00000  Uiso   1.00
C691   C     0.65429   0.31798   0.16609   0.00000  Uiso   1.00
C692   C     0.65407   0.39250   0.12793   0.00000  Uiso   1.00
C693   C     0.61737   0.48032   0.12446   0.00000  Uiso   1.00
C694   C     0.62404   0.53835   0.08697   0.00000  Uiso   1.00
C695   C     0.61735   0.65847   0.03272   0.00000  Uiso   1.00
C696   C     0.72216   0.31269   0.18174   0.00000  Uiso   1.00
C697   C     0.74269   0.33339   0.22353   0.00000  Uiso   1.00
C698   C     0.80668   0.32422   0.23134   0.00000  Uiso   1.00
C699   C     0.90569   0.32036   0.26065   0.00000  Uiso   1.00
C700   C     0.63949   0.21236   0.14719   0.00000  Uiso   1.00
C701   C     0.59053   0.14870   0.15993   0.00000  Uiso   1.00
C702   C     0.58493   0.05504   0.13866   0.00000  Uiso   1.00
C703   C     0.55559   0.89541   0.11433   0.00000  Uiso   1.00
C704   C     0.73141   0.26486   0.10567   0.00000  Uiso   1.00
C705   C     0.69596   0.36364   0.09511   0.00000  Uiso   1.00
C706   C     0.70269   0.42155   0.05762   0.00000  Uiso   1.00
C707   C     0.66600   0.50944   0.05410   0.00000  Uiso   1.00
C708   C     0.76404   0.28384   0.14893   0.00000  Uiso   1.00
C709   C     0.82801   0.27462   0.15669   0.00000  Uiso   1.00
C710   C     0.84864   0.29531   0.19847   0.00000  Uiso   1.00
C711   C     0.68138   0.18351   0.11438   0.00000  Uiso   1.00
C712   C     0.67585   0.08993   0.09309   0.00000  Uiso   1.00
C713   C     0.62690   0.02614   0.10579   0.00000  Uiso   1.00
H714   H     0.62168   0.34045   0.19164   0.00000  Uiso   1.00
H715   H     0.58496   0.50263   0.14986   0.00000  Uiso   1.00
H716   H     0.71027   0.35571   0.24891   0.00000  Uiso   1.00
H717   H     0.55813   0.17105   0.18533   0.00000  Uiso   1.00
H718   H     0.56274   0.66973   0.08909   0.00000  Uiso   1.00
H719   H     0.82695   0.35992   0.29795   0.00000  Uiso   1.00
H720   H     0.50614   0.97052   0.16386   0.00000  Uiso   1.00
H721   H     0.76402   0.24239   0.08013   0.00000  Uiso   1.00
H722   H     0.73511   0.39920   0.03223   0.00000  Uiso   1.00
H723   H     0.86041   0.25228   0.13128   0.00000  Uiso   1.00
H724   H     0.70828   0.06762   0.06770   0.00000  Uiso   1.00
H725   H     0.68461   0.58579   0.99362   0.00000  Uiso   1.00
H726   H     0.94882   0.27597   0.20247   0.00000  Uiso   1.00
H727   H     0.62800   0.88658   0.06839   0.00000  Uiso   1.00
O728   O     0.60210   0.73270   0.01187   0.00000  Uiso   1.00
O729   O     0.94873   0.32622   0.28588   0.00000  Uiso   1.00
O730   O     0.52783   0.81534   0.10996   0.00000  Uiso   1.00
N731   N     0.59538   0.62845   0.07319   0.00000  Uiso   1.00
N732   N     0.84240   0.33881   0.26846   0.00000  Uiso   1.00
N733   N     0.54248   0.97474   0.14311   0.00000  Uiso   1.00
N734   N     0.66095   0.58328   0.02181   0.00000  Uiso   1.00
N735   N     0.90798   0.29363   0.21708   0.00000  Uiso   1.00
N736   N     0.60805   0.92957   0.09173   0.00000  Uiso   1.00
