data_job_03197
_audit_creation_date              2018-12-19
_audit_creation_method            'Materials Studio'
_symmetry_space_group_name_H-M    'P1'
_symmetry_Int_Tables_number       1
_symmetry_cell_setting            triclinic
loop_
_symmetry_equiv_pos_as_xyz
  x,y,z
_cell_length_a                    18.7695
_cell_length_b                    17.3811
_cell_length_c                    29.5936
_cell_angle_alpha                 90.0000
_cell_angle_beta                  90.0000
_cell_angle_gamma                 90.0000
loop_
_atom_site_label
_atom_site_type_symbol
_atom_site_fract_x
_atom_site_fract_y
_atom_site_fract_z
_atom_site_U_iso_or_equiv
_atom_site_adp_type
_atom_site_occupancy
C1     C     0.12596   0.26363   0.85399   0.00000  Uiso   1.00
C2     C     0.04954   0.28923   0.84505   0.00000  Uiso   1.00
C3     C     0.02693   0.33365   0.80882   0.00000  Uiso   1.00
C4     C     0.95479   0.35092   0.80668   0.00000  Uiso   1.00
C5     C     0.84339   0.39468   0.78781   0.00000  Uiso   1.00
C6     C     0.14435   0.29245   0.90125   0.00000  Uiso   1.00
C7     C     0.20146   0.33957   0.91226   0.00000  Uiso   1.00
C8     C     0.20914   0.35953   0.95743   0.00000  Uiso   1.00
C9     C     0.24497   0.40825   0.02580   0.00000  Uiso   1.00
C10    C     0.12375   0.17611   0.85723   0.00000  Uiso   1.00
C11    C     0.16356   0.12540   0.83125   0.00000  Uiso   1.00
C12    C     0.15390   0.04742   0.83936   0.00000  Uiso   1.00
C13    C     0.15775   0.91550   0.83939   0.00000  Uiso   1.00
C14    C     0.03805   0.21529   0.91462   0.00000  Uiso   1.00
C15    C     0.00179   0.26297   0.87799   0.00000  Uiso   1.00
C16    C     0.92966   0.28017   0.87590   0.00000  Uiso   1.00
C17    C     0.90695   0.32461   0.83967   0.00000  Uiso   1.00
C18    C     0.09661   0.26619   0.93418   0.00000  Uiso   1.00
C19    C     0.10420   0.28609   0.97934   0.00000  Uiso   1.00
C20    C     0.16130   0.33323   0.99042   0.00000  Uiso   1.00
C21    C     0.07600   0.14985   0.89016   0.00000  Uiso   1.00
C22    C     0.06629   0.07193   0.89832   0.00000  Uiso   1.00
C23    C     0.10606   0.02112   0.87235   0.00000  Uiso   1.00
H24    H     0.16314   0.28407   0.82836   0.00000  Uiso   1.00
H25    H     0.06390   0.35396   0.78335   0.00000  Uiso   1.00
H26    H     0.23841   0.35987   0.88677   0.00000  Uiso   1.00
H27    H     0.20050   0.14574   0.80577   0.00000  Uiso   1.00
H28    H     0.93282   0.41989   0.74798   0.00000  Uiso   1.00
H29    H     0.30080   0.43233   0.96605   0.00000  Uiso   1.00
H30    H     0.22087   0.98080   0.79524   0.00000  Uiso   1.00
H31    H     0.00088   0.19485   0.94026   0.00000  Uiso   1.00
H32    H     0.89272   0.25984   0.90139   0.00000  Uiso   1.00
H33    H     0.06724   0.26576   0.00481   0.00000  Uiso   1.00
H34    H     0.02933   0.05163   0.92381   0.00000  Uiso   1.00
H35    H     0.79389   0.34351   0.84378   0.00000  Uiso   1.00
H36    H     0.16187   0.35594   0.06186   0.00000  Uiso   1.00
H37    H     0.08194   0.90441   0.89105   0.00000  Uiso   1.00
O38    O     0.79514   0.42609   0.76830   0.00000  Uiso   1.00
O39    O     0.27792   0.44239   0.05441   0.00000  Uiso   1.00
O40    O     0.17305   0.84999   0.83030   0.00000  Uiso   1.00
N41    N     0.91496   0.39298   0.77586   0.00000  Uiso   1.00
N42    N     0.25899   0.40462   0.97974   0.00000  Uiso   1.00
N43    N     0.18428   0.98248   0.82005   0.00000  Uiso   1.00
N44    N     0.84020   0.35188   0.82741   0.00000  Uiso   1.00
N45    N     0.18424   0.36352   0.03129   0.00000  Uiso   1.00
N46    N     0.10952   0.94137   0.87161   0.00000  Uiso   1.00
C47    C     0.62596   0.76363   0.85399   0.00000  Uiso   1.00
C48    C     0.54954   0.78923   0.84505   0.00000  Uiso   1.00
C49    C     0.52693   0.83365   0.80882   0.00000  Uiso   1.00
C50    C     0.45479   0.85092   0.80668   0.00000  Uiso   1.00
C51    C     0.34339   0.89468   0.78781   0.00000  Uiso   1.00
C52    C     0.64435   0.79245   0.90125   0.00000  Uiso   1.00
C53    C     0.70146   0.83957   0.91226   0.00000  Uiso   1.00
C54    C     0.70914   0.85953   0.95743   0.00000  Uiso   1.00
C55    C     0.74497   0.90825   0.02580   0.00000  Uiso   1.00
C56    C     0.62375   0.67611   0.85723   0.00000  Uiso   1.00
C57    C     0.66356   0.62540   0.83125   0.00000  Uiso   1.00
C58    C     0.65390   0.54742   0.83936   0.00000  Uiso   1.00
C59    C     0.65775   0.41550   0.83939   0.00000  Uiso   1.00
C60    C     0.53805   0.71529   0.91462   0.00000  Uiso   1.00
C61    C     0.50179   0.76297   0.87799   0.00000  Uiso   1.00
C62    C     0.42966   0.78017   0.87590   0.00000  Uiso   1.00
C63    C     0.40695   0.82461   0.83967   0.00000  Uiso   1.00
C64    C     0.59661   0.76619   0.93418   0.00000  Uiso   1.00
C65    C     0.60420   0.78609   0.97934   0.00000  Uiso   1.00
C66    C     0.66130   0.83323   0.99042   0.00000  Uiso   1.00
C67    C     0.57600   0.64985   0.89016   0.00000  Uiso   1.00
C68    C     0.56629   0.57193   0.89832   0.00000  Uiso   1.00
C69    C     0.60606   0.52112   0.87235   0.00000  Uiso   1.00
H70    H     0.66314   0.78407   0.82836   0.00000  Uiso   1.00
H71    H     0.56390   0.85396   0.78335   0.00000  Uiso   1.00
H72    H     0.73841   0.85987   0.88677   0.00000  Uiso   1.00
H73    H     0.70050   0.64574   0.80577   0.00000  Uiso   1.00
H74    H     0.43282   0.91989   0.74798   0.00000  Uiso   1.00
H75    H     0.80080   0.93233   0.96605   0.00000  Uiso   1.00
H76    H     0.72087   0.48080   0.79524   0.00000  Uiso   1.00
H77    H     0.50088   0.69485   0.94026   0.00000  Uiso   1.00
H78    H     0.39272   0.75984   0.90139   0.00000  Uiso   1.00
H79    H     0.56724   0.76576   0.00481   0.00000  Uiso   1.00
H80    H     0.52933   0.55163   0.92381   0.00000  Uiso   1.00
H81    H     0.29389   0.84351   0.84378   0.00000  Uiso   1.00
H82    H     0.66187   0.85594   0.06186   0.00000  Uiso   1.00
H83    H     0.58194   0.40441   0.89105   0.00000  Uiso   1.00
O84    O     0.29514   0.92609   0.76830   0.00000  Uiso   1.00
O85    O     0.77792   0.94239   0.05441   0.00000  Uiso   1.00
O86    O     0.67305   0.34999   0.83030   0.00000  Uiso   1.00
N87    N     0.41496   0.89298   0.77586   0.00000  Uiso   1.00
N88    N     0.75899   0.90462   0.97974   0.00000  Uiso   1.00
N89    N     0.68428   0.48248   0.82005   0.00000  Uiso   1.00
N90    N     0.34020   0.85188   0.82741   0.00000  Uiso   1.00
N91    N     0.68424   0.86352   0.03129   0.00000  Uiso   1.00
N92    N     0.60952   0.44137   0.87161   0.00000  Uiso   1.00
C93    C     0.37404   0.23637   0.85399   0.00000  Uiso   1.00
C94    C     0.45046   0.21077   0.84505   0.00000  Uiso   1.00
C95    C     0.47307   0.16635   0.80882   0.00000  Uiso   1.00
C96    C     0.54521   0.14908   0.80668   0.00000  Uiso   1.00
C97    C     0.65661   0.10532   0.78781   0.00000  Uiso   1.00
C98    C     0.35565   0.20755   0.90125   0.00000  Uiso   1.00
C99    C     0.29854   0.16043   0.91226   0.00000  Uiso   1.00
C100   C     0.29086   0.14047   0.95743   0.00000  Uiso   1.00
C101   C     0.25503   0.09175   0.02580   0.00000  Uiso   1.00
C102   C     0.37625   0.32389   0.85723   0.00000  Uiso   1.00
C103   C     0.33644   0.37460   0.83125   0.00000  Uiso   1.00
C104   C     0.34610   0.45258   0.83936   0.00000  Uiso   1.00
C105   C     0.34225   0.58450   0.83939   0.00000  Uiso   1.00
C106   C     0.46195   0.28471   0.91462   0.00000  Uiso   1.00
C107   C     0.49821   0.23703   0.87799   0.00000  Uiso   1.00
C108   C     0.57034   0.21983   0.87590   0.00000  Uiso   1.00
C109   C     0.59305   0.17539   0.83967   0.00000  Uiso   1.00
C110   C     0.40339   0.23381   0.93418   0.00000  Uiso   1.00
C111   C     0.39580   0.21391   0.97934   0.00000  Uiso   1.00
C112   C     0.33870   0.16677   0.99042   0.00000  Uiso   1.00
C113   C     0.42400   0.35015   0.89016   0.00000  Uiso   1.00
C114   C     0.43371   0.42807   0.89832   0.00000  Uiso   1.00
C115   C     0.39394   0.47888   0.87235   0.00000  Uiso   1.00
H116   H     0.33686   0.21593   0.82836   0.00000  Uiso   1.00
H117   H     0.43610   0.14604   0.78335   0.00000  Uiso   1.00
H118   H     0.26159   0.14013   0.88677   0.00000  Uiso   1.00
H119   H     0.29950   0.35426   0.80577   0.00000  Uiso   1.00
H120   H     0.56718   0.08011   0.74798   0.00000  Uiso   1.00
H121   H     0.19920   0.06767   0.96605   0.00000  Uiso   1.00
H122   H     0.27913   0.51920   0.79524   0.00000  Uiso   1.00
H123   H     0.49912   0.30515   0.94026   0.00000  Uiso   1.00
H124   H     0.60728   0.24016   0.90139   0.00000  Uiso   1.00
H125   H     0.43276   0.23424   0.00481   0.00000  Uiso   1.00
H126   H     0.47067   0.44837   0.92381   0.00000  Uiso   1.00
H127   H     0.70611   0.15649   0.84378   0.00000  Uiso   1.00
H128   H     0.33813   0.14406   0.06186   0.00000  Uiso   1.00
H129   H     0.41806   0.59559   0.89105   0.00000  Uiso   1.00
O130   O     0.70486   0.07391   0.76830   0.00000  Uiso   1.00
O131   O     0.22208   0.05761   0.05441   0.00000  Uiso   1.00
O132   O     0.32695   0.65001   0.83030   0.00000  Uiso   1.00
N133   N     0.58504   0.10702   0.77586   0.00000  Uiso   1.00
N134   N     0.24101   0.09538   0.97974   0.00000  Uiso   1.00
N135   N     0.31572   0.51752   0.82005   0.00000  Uiso   1.00
N136   N     0.65980   0.14812   0.82741   0.00000  Uiso   1.00
N137   N     0.31576   0.13648   0.03129   0.00000  Uiso   1.00
N138   N     0.39048   0.55863   0.87161   0.00000  Uiso   1.00
C139   C     0.87404   0.73637   0.85399   0.00000  Uiso   1.00
C140   C     0.95046   0.71077   0.84505   0.00000  Uiso   1.00
C141   C     0.97307   0.66635   0.80882   0.00000  Uiso   1.00
C142   C     0.04521   0.64908   0.80668   0.00000  Uiso   1.00
C143   C     0.15661   0.60532   0.78781   0.00000  Uiso   1.00
C144   C     0.85565   0.70755   0.90125   0.00000  Uiso   1.00
C145   C     0.79854   0.66043   0.91226   0.00000  Uiso   1.00
C146   C     0.79086   0.64047   0.95743   0.00000  Uiso   1.00
C147   C     0.75503   0.59175   0.02580   0.00000  Uiso   1.00
C148   C     0.87625   0.82389   0.85723   0.00000  Uiso   1.00
C149   C     0.83644   0.87460   0.83125   0.00000  Uiso   1.00
C150   C     0.84610   0.95258   0.83936   0.00000  Uiso   1.00
C151   C     0.84225   0.08450   0.83939   0.00000  Uiso   1.00
C152   C     0.96195   0.78471   0.91462   0.00000  Uiso   1.00
C153   C     0.99821   0.73703   0.87799   0.00000  Uiso   1.00
C154   C     0.07034   0.71983   0.87590   0.00000  Uiso   1.00
C155   C     0.09305   0.67539   0.83967   0.00000  Uiso   1.00
C156   C     0.90339   0.73381   0.93418   0.00000  Uiso   1.00
C157   C     0.89580   0.71391   0.97934   0.00000  Uiso   1.00
C158   C     0.83870   0.66677   0.99042   0.00000  Uiso   1.00
C159   C     0.92400   0.85015   0.89016   0.00000  Uiso   1.00
C160   C     0.93371   0.92807   0.89832   0.00000  Uiso   1.00
C161   C     0.89394   0.97888   0.87235   0.00000  Uiso   1.00
H162   H     0.83686   0.71593   0.82836   0.00000  Uiso   1.00
H163   H     0.93610   0.64604   0.78335   0.00000  Uiso   1.00
H164   H     0.76159   0.64013   0.88677   0.00000  Uiso   1.00
H165   H     0.79950   0.85426   0.80577   0.00000  Uiso   1.00
H166   H     0.06718   0.58011   0.74798   0.00000  Uiso   1.00
H167   H     0.69920   0.56767   0.96605   0.00000  Uiso   1.00
H168   H     0.77913   0.01920   0.79524   0.00000  Uiso   1.00
H169   H     0.99912   0.80515   0.94026   0.00000  Uiso   1.00
H170   H     0.10728   0.74016   0.90139   0.00000  Uiso   1.00
H171   H     0.93276   0.73424   0.00481   0.00000  Uiso   1.00
H172   H     0.97067   0.94837   0.92381   0.00000  Uiso   1.00
H173   H     0.20611   0.65649   0.84378   0.00000  Uiso   1.00
H174   H     0.83813   0.64406   0.06186   0.00000  Uiso   1.00
H175   H     0.91806   0.09559   0.89105   0.00000  Uiso   1.00
O176   O     0.20486   0.57391   0.76830   0.00000  Uiso   1.00
O177   O     0.72208   0.55761   0.05441   0.00000  Uiso   1.00
O178   O     0.82695   0.15001   0.83030   0.00000  Uiso   1.00
N179   N     0.08504   0.60702   0.77586   0.00000  Uiso   1.00
N180   N     0.74101   0.59538   0.97974   0.00000  Uiso   1.00
N181   N     0.81572   0.01752   0.82005   0.00000  Uiso   1.00
N182   N     0.15980   0.64812   0.82741   0.00000  Uiso   1.00
N183   N     0.81576   0.63648   0.03129   0.00000  Uiso   1.00
N184   N     0.89048   0.05863   0.87161   0.00000  Uiso   1.00
C185   C     0.87404   0.26363   0.14601   0.00000  Uiso   1.00
C186   C     0.95046   0.28923   0.15495   0.00000  Uiso   1.00
C187   C     0.97307   0.33365   0.19118   0.00000  Uiso   1.00
C188   C     0.04521   0.35092   0.19332   0.00000  Uiso   1.00
C189   C     0.15661   0.39468   0.21219   0.00000  Uiso   1.00
C190   C     0.85565   0.29245   0.09875   0.00000  Uiso   1.00
C191   C     0.79854   0.33957   0.08774   0.00000  Uiso   1.00
C192   C     0.79086   0.35953   0.04257   0.00000  Uiso   1.00
C193   C     0.75503   0.40825   0.97420   0.00000  Uiso   1.00
C194   C     0.87625   0.17611   0.14277   0.00000  Uiso   1.00
C195   C     0.83644   0.12540   0.16875   0.00000  Uiso   1.00
C196   C     0.84610   0.04742   0.16064   0.00000  Uiso   1.00
C197   C     0.84225   0.91550   0.16061   0.00000  Uiso   1.00
C198   C     0.96195   0.21529   0.08538   0.00000  Uiso   1.00
C199   C     0.99821   0.26297   0.12201   0.00000  Uiso   1.00
C200   C     0.07034   0.28017   0.12410   0.00000  Uiso   1.00
C201   C     0.09305   0.32461   0.16033   0.00000  Uiso   1.00
C202   C     0.90339   0.26619   0.06582   0.00000  Uiso   1.00
C203   C     0.89580   0.28609   0.02066   0.00000  Uiso   1.00
C204   C     0.83870   0.33323   0.00958   0.00000  Uiso   1.00
C205   C     0.92400   0.14985   0.10984   0.00000  Uiso   1.00
C206   C     0.93371   0.07193   0.10168   0.00000  Uiso   1.00
C207   C     0.89394   0.02112   0.12765   0.00000  Uiso   1.00
H208   H     0.83686   0.28407   0.17164   0.00000  Uiso   1.00
H209   H     0.93610   0.35396   0.21665   0.00000  Uiso   1.00
H210   H     0.76159   0.35987   0.11323   0.00000  Uiso   1.00
H211   H     0.79950   0.14574   0.19423   0.00000  Uiso   1.00
H212   H     0.06718   0.41989   0.25202   0.00000  Uiso   1.00
H213   H     0.69920   0.43233   0.03395   0.00000  Uiso   1.00
H214   H     0.77913   0.98080   0.20476   0.00000  Uiso   1.00
H215   H     0.99912   0.19485   0.05974   0.00000  Uiso   1.00
H216   H     0.10728   0.25984   0.09861   0.00000  Uiso   1.00
H217   H     0.93276   0.26576   0.99519   0.00000  Uiso   1.00
H218   H     0.97067   0.05163   0.07619   0.00000  Uiso   1.00
H219   H     0.20611   0.34351   0.15622   0.00000  Uiso   1.00
H220   H     0.83813   0.35594   0.93814   0.00000  Uiso   1.00
H221   H     0.91806   0.90441   0.10895   0.00000  Uiso   1.00
O222   O     0.20486   0.42609   0.23170   0.00000  Uiso   1.00
O223   O     0.72208   0.44239   0.94559   0.00000  Uiso   1.00
O224   O     0.82695   0.84999   0.16970   0.00000  Uiso   1.00
N225   N     0.08504   0.39298   0.22414   0.00000  Uiso   1.00
N226   N     0.74101   0.40462   0.02026   0.00000  Uiso   1.00
N227   N     0.81572   0.98248   0.17995   0.00000  Uiso   1.00
N228   N     0.15980   0.35188   0.17259   0.00000  Uiso   1.00
N229   N     0.81576   0.36352   0.96871   0.00000  Uiso   1.00
N230   N     0.89048   0.94137   0.12839   0.00000  Uiso   1.00
C231   C     0.37404   0.76363   0.14601   0.00000  Uiso   1.00
C232   C     0.45046   0.78923   0.15495   0.00000  Uiso   1.00
C233   C     0.47307   0.83365   0.19118   0.00000  Uiso   1.00
C234   C     0.54521   0.85092   0.19332   0.00000  Uiso   1.00
C235   C     0.65661   0.89468   0.21219   0.00000  Uiso   1.00
C236   C     0.35565   0.79245   0.09875   0.00000  Uiso   1.00
C237   C     0.29854   0.83957   0.08774   0.00000  Uiso   1.00
C238   C     0.29086   0.85953   0.04257   0.00000  Uiso   1.00
C239   C     0.25503   0.90825   0.97420   0.00000  Uiso   1.00
C240   C     0.37625   0.67611   0.14277   0.00000  Uiso   1.00
C241   C     0.33644   0.62540   0.16875   0.00000  Uiso   1.00
C242   C     0.34610   0.54742   0.16064   0.00000  Uiso   1.00
C243   C     0.34225   0.41550   0.16061   0.00000  Uiso   1.00
C244   C     0.46195   0.71529   0.08538   0.00000  Uiso   1.00
C245   C     0.49821   0.76297   0.12201   0.00000  Uiso   1.00
C246   C     0.57034   0.78017   0.12410   0.00000  Uiso   1.00
C247   C     0.59305   0.82461   0.16033   0.00000  Uiso   1.00
C248   C     0.40339   0.76619   0.06582   0.00000  Uiso   1.00
C249   C     0.39580   0.78609   0.02066   0.00000  Uiso   1.00
C250   C     0.33870   0.83323   0.00958   0.00000  Uiso   1.00
C251   C     0.42400   0.64985   0.10984   0.00000  Uiso   1.00
C252   C     0.43371   0.57193   0.10168   0.00000  Uiso   1.00
C253   C     0.39394   0.52112   0.12765   0.00000  Uiso   1.00
H254   H     0.33686   0.78407   0.17164   0.00000  Uiso   1.00
H255   H     0.43610   0.85396   0.21665   0.00000  Uiso   1.00
H256   H     0.26159   0.85987   0.11323   0.00000  Uiso   1.00
H257   H     0.29950   0.64574   0.19423   0.00000  Uiso   1.00
H258   H     0.56718   0.91989   0.25202   0.00000  Uiso   1.00
H259   H     0.19920   0.93233   0.03395   0.00000  Uiso   1.00
H260   H     0.27913   0.48080   0.20476   0.00000  Uiso   1.00
H261   H     0.49912   0.69485   0.05974   0.00000  Uiso   1.00
H262   H     0.60728   0.75984   0.09861   0.00000  Uiso   1.00
H263   H     0.43276   0.76576   0.99519   0.00000  Uiso   1.00
H264   H     0.47067   0.55163   0.07619   0.00000  Uiso   1.00
H265   H     0.70611   0.84351   0.15622   0.00000  Uiso   1.00
H266   H     0.33813   0.85594   0.93814   0.00000  Uiso   1.00
H267   H     0.41806   0.40441   0.10895   0.00000  Uiso   1.00
O268   O     0.70486   0.92609   0.23170   0.00000  Uiso   1.00
O269   O     0.22208   0.94239   0.94559   0.00000  Uiso   1.00
O270   O     0.32695   0.34999   0.16970   0.00000  Uiso   1.00
N271   N     0.58504   0.89298   0.22414   0.00000  Uiso   1.00
N272   N     0.24101   0.90462   0.02026   0.00000  Uiso   1.00
N273   N     0.31572   0.48248   0.17995   0.00000  Uiso   1.00
N274   N     0.65980   0.85188   0.17259   0.00000  Uiso   1.00
N275   N     0.31576   0.86352   0.96871   0.00000  Uiso   1.00
N276   N     0.39048   0.44137   0.12839   0.00000  Uiso   1.00
C277   C     0.62596   0.23637   0.14601   0.00000  Uiso   1.00
C278   C     0.54954   0.21077   0.15495   0.00000  Uiso   1.00
C279   C     0.52693   0.16635   0.19118   0.00000  Uiso   1.00
C280   C     0.45479   0.14908   0.19332   0.00000  Uiso   1.00
C281   C     0.34339   0.10532   0.21219   0.00000  Uiso   1.00
C282   C     0.64435   0.20755   0.09875   0.00000  Uiso   1.00
C283   C     0.70146   0.16043   0.08774   0.00000  Uiso   1.00
C284   C     0.70914   0.14047   0.04257   0.00000  Uiso   1.00
C285   C     0.74497   0.09175   0.97420   0.00000  Uiso   1.00
C286   C     0.62375   0.32389   0.14277   0.00000  Uiso   1.00
C287   C     0.66356   0.37460   0.16875   0.00000  Uiso   1.00
C288   C     0.65390   0.45258   0.16064   0.00000  Uiso   1.00
C289   C     0.65775   0.58450   0.16061   0.00000  Uiso   1.00
C290   C     0.53805   0.28471   0.08538   0.00000  Uiso   1.00
C291   C     0.50179   0.23703   0.12201   0.00000  Uiso   1.00
C292   C     0.42966   0.21983   0.12410   0.00000  Uiso   1.00
C293   C     0.40695   0.17539   0.16033   0.00000  Uiso   1.00
C294   C     0.59661   0.23381   0.06582   0.00000  Uiso   1.00
C295   C     0.60420   0.21391   0.02066   0.00000  Uiso   1.00
C296   C     0.66130   0.16677   0.00958   0.00000  Uiso   1.00
C297   C     0.57600   0.35015   0.10984   0.00000  Uiso   1.00
C298   C     0.56629   0.42807   0.10168   0.00000  Uiso   1.00
C299   C     0.60606   0.47888   0.12765   0.00000  Uiso   1.00
H300   H     0.66314   0.21593   0.17164   0.00000  Uiso   1.00
H301   H     0.56390   0.14604   0.21665   0.00000  Uiso   1.00
H302   H     0.73841   0.14013   0.11323   0.00000  Uiso   1.00
H303   H     0.70050   0.35426   0.19423   0.00000  Uiso   1.00
H304   H     0.43282   0.08011   0.25202   0.00000  Uiso   1.00
H305   H     0.80080   0.06767   0.03395   0.00000  Uiso   1.00
H306   H     0.72087   0.51920   0.20476   0.00000  Uiso   1.00
H307   H     0.50088   0.30515   0.05974   0.00000  Uiso   1.00
H308   H     0.39272   0.24016   0.09861   0.00000  Uiso   1.00
H309   H     0.56724   0.23424   0.99519   0.00000  Uiso   1.00
H310   H     0.52933   0.44837   0.07619   0.00000  Uiso   1.00
H311   H     0.29389   0.15649   0.15622   0.00000  Uiso   1.00
H312   H     0.66187   0.14406   0.93814   0.00000  Uiso   1.00
H313   H     0.58194   0.59559   0.10895   0.00000  Uiso   1.00
O314   O     0.29514   0.07391   0.23170   0.00000  Uiso   1.00
O315   O     0.77792   0.05761   0.94559   0.00000  Uiso   1.00
O316   O     0.67305   0.65001   0.16970   0.00000  Uiso   1.00
N317   N     0.41496   0.10702   0.22414   0.00000  Uiso   1.00
N318   N     0.75899   0.09538   0.02026   0.00000  Uiso   1.00
N319   N     0.68428   0.51752   0.17995   0.00000  Uiso   1.00
N320   N     0.34020   0.14812   0.17259   0.00000  Uiso   1.00
N321   N     0.68424   0.13648   0.96871   0.00000  Uiso   1.00
N322   N     0.60952   0.55863   0.12839   0.00000  Uiso   1.00
C323   C     0.12596   0.73637   0.14601   0.00000  Uiso   1.00
C324   C     0.04954   0.71077   0.15495   0.00000  Uiso   1.00
C325   C     0.02693   0.66635   0.19118   0.00000  Uiso   1.00
C326   C     0.95479   0.64908   0.19332   0.00000  Uiso   1.00
C327   C     0.84339   0.60532   0.21219   0.00000  Uiso   1.00
C328   C     0.14435   0.70755   0.09875   0.00000  Uiso   1.00
C329   C     0.20146   0.66043   0.08774   0.00000  Uiso   1.00
C330   C     0.20914   0.64047   0.04257   0.00000  Uiso   1.00
C331   C     0.24497   0.59175   0.97420   0.00000  Uiso   1.00
C332   C     0.12375   0.82389   0.14277   0.00000  Uiso   1.00
C333   C     0.16356   0.87460   0.16875   0.00000  Uiso   1.00
C334   C     0.15390   0.95258   0.16064   0.00000  Uiso   1.00
C335   C     0.15775   0.08450   0.16061   0.00000  Uiso   1.00
C336   C     0.03805   0.78471   0.08538   0.00000  Uiso   1.00
C337   C     0.00179   0.73703   0.12201   0.00000  Uiso   1.00
C338   C     0.92966   0.71983   0.12410   0.00000  Uiso   1.00
C339   C     0.90695   0.67539   0.16033   0.00000  Uiso   1.00
C340   C     0.09661   0.73381   0.06582   0.00000  Uiso   1.00
C341   C     0.10420   0.71391   0.02066   0.00000  Uiso   1.00
C342   C     0.16130   0.66677   0.00958   0.00000  Uiso   1.00
C343   C     0.07600   0.85015   0.10984   0.00000  Uiso   1.00
C344   C     0.06629   0.92807   0.10168   0.00000  Uiso   1.00
C345   C     0.10606   0.97888   0.12765   0.00000  Uiso   1.00
H346   H     0.16314   0.71593   0.17164   0.00000  Uiso   1.00
H347   H     0.06390   0.64604   0.21665   0.00000  Uiso   1.00
H348   H     0.23841   0.64013   0.11323   0.00000  Uiso   1.00
H349   H     0.20050   0.85426   0.19423   0.00000  Uiso   1.00
H350   H     0.93282   0.58011   0.25202   0.00000  Uiso   1.00
H351   H     0.30080   0.56767   0.03395   0.00000  Uiso   1.00
H352   H     0.22087   0.01920   0.20476   0.00000  Uiso   1.00
H353   H     0.00088   0.80515   0.05974   0.00000  Uiso   1.00
H354   H     0.89272   0.74016   0.09861   0.00000  Uiso   1.00
H355   H     0.06724   0.73424   0.99519   0.00000  Uiso   1.00
H356   H     0.02933   0.94837   0.07619   0.00000  Uiso   1.00
H357   H     0.79389   0.65649   0.15622   0.00000  Uiso   1.00
H358   H     0.16187   0.64406   0.93814   0.00000  Uiso   1.00
H359   H     0.08194   0.09559   0.10895   0.00000  Uiso   1.00
O360   O     0.79514   0.57391   0.23170   0.00000  Uiso   1.00
O361   O     0.27792   0.55761   0.94559   0.00000  Uiso   1.00
O362   O     0.17305   0.15001   0.16970   0.00000  Uiso   1.00
N363   N     0.91496   0.60702   0.22414   0.00000  Uiso   1.00
N364   N     0.25899   0.59538   0.02026   0.00000  Uiso   1.00
N365   N     0.18428   0.01752   0.17995   0.00000  Uiso   1.00
N366   N     0.84020   0.64812   0.17259   0.00000  Uiso   1.00
N367   N     0.18424   0.63648   0.96871   0.00000  Uiso   1.00
N368   N     0.10952   0.05863   0.12839   0.00000  Uiso   1.00
C369   C     0.87404   0.23637   0.64601   0.00000  Uiso   1.00
C370   C     0.95046   0.21077   0.65495   0.00000  Uiso   1.00
C371   C     0.97307   0.16635   0.69118   0.00000  Uiso   1.00
C372   C     0.04521   0.14908   0.69332   0.00000  Uiso   1.00
C373   C     0.15661   0.10532   0.71219   0.00000  Uiso   1.00
C374   C     0.85565   0.20755   0.59875   0.00000  Uiso   1.00
C375   C     0.79854   0.16043   0.58774   0.00000  Uiso   1.00
C376   C     0.79086   0.14047   0.54257   0.00000  Uiso   1.00
C377   C     0.75503   0.09175   0.47420   0.00000  Uiso   1.00
C378   C     0.87625   0.32389   0.64277   0.00000  Uiso   1.00
C379   C     0.83644   0.37460   0.66875   0.00000  Uiso   1.00
C380   C     0.84610   0.45258   0.66064   0.00000  Uiso   1.00
C381   C     0.84225   0.58450   0.66061   0.00000  Uiso   1.00
C382   C     0.96195   0.28471   0.58538   0.00000  Uiso   1.00
C383   C     0.99821   0.23703   0.62201   0.00000  Uiso   1.00
C384   C     0.07034   0.21983   0.62410   0.00000  Uiso   1.00
C385   C     0.09305   0.17539   0.66033   0.00000  Uiso   1.00
C386   C     0.90339   0.23381   0.56582   0.00000  Uiso   1.00
C387   C     0.89580   0.21391   0.52066   0.00000  Uiso   1.00
C388   C     0.83870   0.16677   0.50958   0.00000  Uiso   1.00
C389   C     0.92400   0.35015   0.60984   0.00000  Uiso   1.00
C390   C     0.93371   0.42807   0.60168   0.00000  Uiso   1.00
C391   C     0.89394   0.47888   0.62765   0.00000  Uiso   1.00
H392   H     0.83686   0.21593   0.67164   0.00000  Uiso   1.00
H393   H     0.93610   0.14604   0.71665   0.00000  Uiso   1.00
H394   H     0.76159   0.14013   0.61323   0.00000  Uiso   1.00
H395   H     0.79950   0.35426   0.69423   0.00000  Uiso   1.00
H396   H     0.06718   0.08011   0.75202   0.00000  Uiso   1.00
H397   H     0.69920   0.06767   0.53395   0.00000  Uiso   1.00
H398   H     0.77913   0.51920   0.70476   0.00000  Uiso   1.00
H399   H     0.99912   0.30515   0.55974   0.00000  Uiso   1.00
H400   H     0.10728   0.24016   0.59861   0.00000  Uiso   1.00
H401   H     0.93276   0.23424   0.49519   0.00000  Uiso   1.00
H402   H     0.97067   0.44837   0.57619   0.00000  Uiso   1.00
H403   H     0.20611   0.15649   0.65622   0.00000  Uiso   1.00
H404   H     0.83813   0.14406   0.43814   0.00000  Uiso   1.00
H405   H     0.91806   0.59559   0.60895   0.00000  Uiso   1.00
O406   O     0.20486   0.07391   0.73170   0.00000  Uiso   1.00
O407   O     0.72208   0.05761   0.44559   0.00000  Uiso   1.00
O408   O     0.82695   0.65001   0.66970   0.00000  Uiso   1.00
N409   N     0.08504   0.10702   0.72414   0.00000  Uiso   1.00
N410   N     0.74101   0.09538   0.52026   0.00000  Uiso   1.00
N411   N     0.81572   0.51752   0.67995   0.00000  Uiso   1.00
N412   N     0.15980   0.14812   0.67259   0.00000  Uiso   1.00
N413   N     0.81576   0.13648   0.46871   0.00000  Uiso   1.00
N414   N     0.89048   0.55863   0.62839   0.00000  Uiso   1.00
C415   C     0.37404   0.73637   0.64601   0.00000  Uiso   1.00
C416   C     0.45046   0.71077   0.65495   0.00000  Uiso   1.00
C417   C     0.47307   0.66635   0.69118   0.00000  Uiso   1.00
C418   C     0.54521   0.64908   0.69332   0.00000  Uiso   1.00
C419   C     0.65661   0.60532   0.71219   0.00000  Uiso   1.00
C420   C     0.35565   0.70755   0.59875   0.00000  Uiso   1.00
C421   C     0.29854   0.66043   0.58774   0.00000  Uiso   1.00
C422   C     0.29086   0.64047   0.54257   0.00000  Uiso   1.00
C423   C     0.25503   0.59175   0.47420   0.00000  Uiso   1.00
C424   C     0.37625   0.82389   0.64277   0.00000  Uiso   1.00
C425   C     0.33644   0.87460   0.66875   0.00000  Uiso   1.00
C426   C     0.34610   0.95258   0.66064   0.00000  Uiso   1.00
C427   C     0.34225   0.08450   0.66061   0.00000  Uiso   1.00
C428   C     0.46195   0.78471   0.58538   0.00000  Uiso   1.00
C429   C     0.49821   0.73703   0.62201   0.00000  Uiso   1.00
C430   C     0.57034   0.71983   0.62410   0.00000  Uiso   1.00
C431   C     0.59305   0.67539   0.66033   0.00000  Uiso   1.00
C432   C     0.40339   0.73381   0.56582   0.00000  Uiso   1.00
C433   C     0.39580   0.71391   0.52066   0.00000  Uiso   1.00
C434   C     0.33870   0.66677   0.50958   0.00000  Uiso   1.00
C435   C     0.42400   0.85015   0.60984   0.00000  Uiso   1.00
C436   C     0.43371   0.92807   0.60168   0.00000  Uiso   1.00
C437   C     0.39394   0.97888   0.62765   0.00000  Uiso   1.00
H438   H     0.33686   0.71593   0.67164   0.00000  Uiso   1.00
H439   H     0.43610   0.64604   0.71665   0.00000  Uiso   1.00
H440   H     0.26159   0.64013   0.61323   0.00000  Uiso   1.00
H441   H     0.29950   0.85426   0.69423   0.00000  Uiso   1.00
H442   H     0.56718   0.58011   0.75202   0.00000  Uiso   1.00
H443   H     0.19920   0.56767   0.53395   0.00000  Uiso   1.00
H444   H     0.27913   0.01920   0.70476   0.00000  Uiso   1.00
H445   H     0.49912   0.80515   0.55974   0.00000  Uiso   1.00
H446   H     0.60728   0.74016   0.59861   0.00000  Uiso   1.00
H447   H     0.43276   0.73424   0.49519   0.00000  Uiso   1.00
H448   H     0.47067   0.94837   0.57619   0.00000  Uiso   1.00
H449   H     0.70611   0.65649   0.65622   0.00000  Uiso   1.00
H450   H     0.33813   0.64406   0.43814   0.00000  Uiso   1.00
H451   H     0.41806   0.09559   0.60895   0.00000  Uiso   1.00
O452   O     0.70486   0.57391   0.73170   0.00000  Uiso   1.00
O453   O     0.22208   0.55761   0.44559   0.00000  Uiso   1.00
O454   O     0.32695   0.15001   0.66970   0.00000  Uiso   1.00
N455   N     0.58504   0.60702   0.72414   0.00000  Uiso   1.00
N456   N     0.24101   0.59538   0.52026   0.00000  Uiso   1.00
N457   N     0.31572   0.01752   0.67995   0.00000  Uiso   1.00
N458   N     0.65980   0.64812   0.67259   0.00000  Uiso   1.00
N459   N     0.31576   0.63648   0.46871   0.00000  Uiso   1.00
N460   N     0.39048   0.05863   0.62839   0.00000  Uiso   1.00
C461   C     0.62596   0.26363   0.64601   0.00000  Uiso   1.00
C462   C     0.54954   0.28923   0.65495   0.00000  Uiso   1.00
C463   C     0.52693   0.33365   0.69118   0.00000  Uiso   1.00
C464   C     0.45479   0.35092   0.69332   0.00000  Uiso   1.00
C465   C     0.34339   0.39468   0.71219   0.00000  Uiso   1.00
C466   C     0.64435   0.29245   0.59875   0.00000  Uiso   1.00
C467   C     0.70146   0.33957   0.58774   0.00000  Uiso   1.00
C468   C     0.70914   0.35953   0.54257   0.00000  Uiso   1.00
C469   C     0.74497   0.40825   0.47420   0.00000  Uiso   1.00
C470   C     0.62375   0.17611   0.64277   0.00000  Uiso   1.00
C471   C     0.66356   0.12540   0.66875   0.00000  Uiso   1.00
C472   C     0.65390   0.04742   0.66064   0.00000  Uiso   1.00
C473   C     0.65775   0.91550   0.66061   0.00000  Uiso   1.00
C474   C     0.53805   0.21529   0.58538   0.00000  Uiso   1.00
C475   C     0.50179   0.26297   0.62201   0.00000  Uiso   1.00
C476   C     0.42966   0.28017   0.62410   0.00000  Uiso   1.00
C477   C     0.40695   0.32461   0.66033   0.00000  Uiso   1.00
C478   C     0.59661   0.26619   0.56582   0.00000  Uiso   1.00
C479   C     0.60420   0.28609   0.52066   0.00000  Uiso   1.00
C480   C     0.66130   0.33323   0.50958   0.00000  Uiso   1.00
C481   C     0.57600   0.14985   0.60984   0.00000  Uiso   1.00
C482   C     0.56629   0.07193   0.60168   0.00000  Uiso   1.00
C483   C     0.60606   0.02112   0.62765   0.00000  Uiso   1.00
H484   H     0.66314   0.28407   0.67164   0.00000  Uiso   1.00
H485   H     0.56390   0.35396   0.71665   0.00000  Uiso   1.00
H486   H     0.73841   0.35987   0.61323   0.00000  Uiso   1.00
H487   H     0.70050   0.14574   0.69423   0.00000  Uiso   1.00
H488   H     0.43282   0.41989   0.75202   0.00000  Uiso   1.00
H489   H     0.80080   0.43233   0.53395   0.00000  Uiso   1.00
H490   H     0.72087   0.98080   0.70476   0.00000  Uiso   1.00
H491   H     0.50088   0.19485   0.55974   0.00000  Uiso   1.00
H492   H     0.39272   0.25984   0.59861   0.00000  Uiso   1.00
H493   H     0.56724   0.26576   0.49519   0.00000  Uiso   1.00
H494   H     0.52933   0.05163   0.57619   0.00000  Uiso   1.00
H495   H     0.29389   0.34351   0.65622   0.00000  Uiso   1.00
H496   H     0.66187   0.35594   0.43814   0.00000  Uiso   1.00
H497   H     0.58194   0.90441   0.60895   0.00000  Uiso   1.00
O498   O     0.29514   0.42609   0.73170   0.00000  Uiso   1.00
O499   O     0.77792   0.44239   0.44559   0.00000  Uiso   1.00
O500   O     0.67305   0.84999   0.66970   0.00000  Uiso   1.00
N501   N     0.41496   0.39298   0.72414   0.00000  Uiso   1.00
N502   N     0.75899   0.40462   0.52026   0.00000  Uiso   1.00
N503   N     0.68428   0.98248   0.67995   0.00000  Uiso   1.00
N504   N     0.34020   0.35188   0.67259   0.00000  Uiso   1.00
N505   N     0.68424   0.36352   0.46871   0.00000  Uiso   1.00
N506   N     0.60952   0.94137   0.62839   0.00000  Uiso   1.00
C507   C     0.12596   0.76363   0.64601   0.00000  Uiso   1.00
C508   C     0.04954   0.78923   0.65495   0.00000  Uiso   1.00
C509   C     0.02693   0.83365   0.69118   0.00000  Uiso   1.00
C510   C     0.95479   0.85092   0.69332   0.00000  Uiso   1.00
C511   C     0.84339   0.89468   0.71219   0.00000  Uiso   1.00
C512   C     0.14435   0.79245   0.59875   0.00000  Uiso   1.00
C513   C     0.20146   0.83957   0.58774   0.00000  Uiso   1.00
C514   C     0.20914   0.85953   0.54257   0.00000  Uiso   1.00
C515   C     0.24497   0.90825   0.47420   0.00000  Uiso   1.00
C516   C     0.12375   0.67611   0.64277   0.00000  Uiso   1.00
C517   C     0.16356   0.62540   0.66875   0.00000  Uiso   1.00
C518   C     0.15390   0.54742   0.66064   0.00000  Uiso   1.00
C519   C     0.15775   0.41550   0.66061   0.00000  Uiso   1.00
C520   C     0.03805   0.71529   0.58538   0.00000  Uiso   1.00
C521   C     0.00179   0.76297   0.62201   0.00000  Uiso   1.00
C522   C     0.92966   0.78017   0.62410   0.00000  Uiso   1.00
C523   C     0.90695   0.82461   0.66033   0.00000  Uiso   1.00
C524   C     0.09661   0.76619   0.56582   0.00000  Uiso   1.00
C525   C     0.10420   0.78609   0.52066   0.00000  Uiso   1.00
C526   C     0.16130   0.83323   0.50958   0.00000  Uiso   1.00
C527   C     0.07600   0.64985   0.60984   0.00000  Uiso   1.00
C528   C     0.06629   0.57193   0.60168   0.00000  Uiso   1.00
C529   C     0.10606   0.52112   0.62765   0.00000  Uiso   1.00
H530   H     0.16314   0.78407   0.67164   0.00000  Uiso   1.00
H531   H     0.06390   0.85396   0.71665   0.00000  Uiso   1.00
H532   H     0.23841   0.85987   0.61323   0.00000  Uiso   1.00
H533   H     0.20050   0.64574   0.69423   0.00000  Uiso   1.00
H534   H     0.93282   0.91989   0.75202   0.00000  Uiso   1.00
H535   H     0.30080   0.93233   0.53395   0.00000  Uiso   1.00
H536   H     0.22087   0.48080   0.70476   0.00000  Uiso   1.00
H537   H     0.00088   0.69485   0.55974   0.00000  Uiso   1.00
H538   H     0.89272   0.75984   0.59861   0.00000  Uiso   1.00
H539   H     0.06724   0.76576   0.49519   0.00000  Uiso   1.00
H540   H     0.02933   0.55163   0.57619   0.00000  Uiso   1.00
H541   H     0.79389   0.84351   0.65622   0.00000  Uiso   1.00
H542   H     0.16187   0.85594   0.43814   0.00000  Uiso   1.00
H543   H     0.08194   0.40441   0.60895   0.00000  Uiso   1.00
O544   O     0.79514   0.92609   0.73170   0.00000  Uiso   1.00
O545   O     0.27792   0.94239   0.44559   0.00000  Uiso   1.00
O546   O     0.17305   0.34999   0.66970   0.00000  Uiso   1.00
N547   N     0.91496   0.89298   0.72414   0.00000  Uiso   1.00
N548   N     0.25899   0.90462   0.52026   0.00000  Uiso   1.00
N549   N     0.18428   0.48248   0.67995   0.00000  Uiso   1.00
N550   N     0.84020   0.85188   0.67259   0.00000  Uiso   1.00
N551   N     0.18424   0.86352   0.46871   0.00000  Uiso   1.00
N552   N     0.10952   0.44137   0.62839   0.00000  Uiso   1.00
C553   C     0.12596   0.23637   0.35399   0.00000  Uiso   1.00
C554   C     0.04954   0.21077   0.34505   0.00000  Uiso   1.00
C555   C     0.02693   0.16635   0.30882   0.00000  Uiso   1.00
C556   C     0.95479   0.14908   0.30668   0.00000  Uiso   1.00
C557   C     0.84339   0.10532   0.28781   0.00000  Uiso   1.00
C558   C     0.14435   0.20755   0.40125   0.00000  Uiso   1.00
C559   C     0.20146   0.16043   0.41226   0.00000  Uiso   1.00
C560   C     0.20914   0.14047   0.45743   0.00000  Uiso   1.00
C561   C     0.24497   0.09175   0.52580   0.00000  Uiso   1.00
C562   C     0.12375   0.32389   0.35723   0.00000  Uiso   1.00
C563   C     0.16356   0.37460   0.33125   0.00000  Uiso   1.00
C564   C     0.15390   0.45258   0.33936   0.00000  Uiso   1.00
C565   C     0.15775   0.58450   0.33939   0.00000  Uiso   1.00
C566   C     0.03805   0.28471   0.41462   0.00000  Uiso   1.00
C567   C     0.00179   0.23703   0.37799   0.00000  Uiso   1.00
C568   C     0.92966   0.21983   0.37590   0.00000  Uiso   1.00
C569   C     0.90695   0.17539   0.33967   0.00000  Uiso   1.00
C570   C     0.09661   0.23381   0.43418   0.00000  Uiso   1.00
C571   C     0.10420   0.21391   0.47934   0.00000  Uiso   1.00
C572   C     0.16130   0.16677   0.49042   0.00000  Uiso   1.00
C573   C     0.07600   0.35015   0.39016   0.00000  Uiso   1.00
C574   C     0.06629   0.42807   0.39832   0.00000  Uiso   1.00
C575   C     0.10606   0.47888   0.37235   0.00000  Uiso   1.00
H576   H     0.16314   0.21593   0.32836   0.00000  Uiso   1.00
H577   H     0.06390   0.14604   0.28335   0.00000  Uiso   1.00
H578   H     0.23841   0.14013   0.38677   0.00000  Uiso   1.00
H579   H     0.20050   0.35426   0.30577   0.00000  Uiso   1.00
H580   H     0.93282   0.08011   0.24798   0.00000  Uiso   1.00
H581   H     0.30080   0.06767   0.46605   0.00000  Uiso   1.00
H582   H     0.22087   0.51920   0.29524   0.00000  Uiso   1.00
H583   H     0.00088   0.30515   0.44026   0.00000  Uiso   1.00
H584   H     0.89272   0.24016   0.40139   0.00000  Uiso   1.00
H585   H     0.06724   0.23424   0.50481   0.00000  Uiso   1.00
H586   H     0.02933   0.44837   0.42381   0.00000  Uiso   1.00
H587   H     0.79389   0.15649   0.34378   0.00000  Uiso   1.00
H588   H     0.16187   0.14406   0.56186   0.00000  Uiso   1.00
H589   H     0.08194   0.59559   0.39105   0.00000  Uiso   1.00
O590   O     0.79514   0.07391   0.26830   0.00000  Uiso   1.00
O591   O     0.27792   0.05761   0.55441   0.00000  Uiso   1.00
O592   O     0.17305   0.65001   0.33030   0.00000  Uiso   1.00
N593   N     0.91496   0.10702   0.27586   0.00000  Uiso   1.00
N594   N     0.25899   0.09538   0.47974   0.00000  Uiso   1.00
N595   N     0.18428   0.51752   0.32005   0.00000  Uiso   1.00
N596   N     0.84020   0.14812   0.32741   0.00000  Uiso   1.00
N597   N     0.18424   0.13648   0.53129   0.00000  Uiso   1.00
N598   N     0.10952   0.55863   0.37161   0.00000  Uiso   1.00
C599   C     0.62596   0.73637   0.35399   0.00000  Uiso   1.00
C600   C     0.54954   0.71077   0.34505   0.00000  Uiso   1.00
C601   C     0.52693   0.66635   0.30882   0.00000  Uiso   1.00
C602   C     0.45479   0.64908   0.30668   0.00000  Uiso   1.00
C603   C     0.34339   0.60532   0.28781   0.00000  Uiso   1.00
C604   C     0.64435   0.70755   0.40125   0.00000  Uiso   1.00
C605   C     0.70146   0.66043   0.41226   0.00000  Uiso   1.00
C606   C     0.70914   0.64047   0.45743   0.00000  Uiso   1.00
C607   C     0.74497   0.59175   0.52580   0.00000  Uiso   1.00
C608   C     0.62375   0.82389   0.35723   0.00000  Uiso   1.00
C609   C     0.66356   0.87460   0.33125   0.00000  Uiso   1.00
C610   C     0.65390   0.95258   0.33936   0.00000  Uiso   1.00
C611   C     0.65775   0.08450   0.33939   0.00000  Uiso   1.00
C612   C     0.53805   0.78471   0.41462   0.00000  Uiso   1.00
C613   C     0.50179   0.73703   0.37799   0.00000  Uiso   1.00
C614   C     0.42966   0.71983   0.37590   0.00000  Uiso   1.00
C615   C     0.40695   0.67539   0.33967   0.00000  Uiso   1.00
C616   C     0.59661   0.73381   0.43418   0.00000  Uiso   1.00
C617   C     0.60420   0.71391   0.47934   0.00000  Uiso   1.00
C618   C     0.66130   0.66677   0.49042   0.00000  Uiso   1.00
C619   C     0.57600   0.85015   0.39016   0.00000  Uiso   1.00
C620   C     0.56629   0.92807   0.39832   0.00000  Uiso   1.00
C621   C     0.60606   0.97888   0.37235   0.00000  Uiso   1.00
H622   H     0.66314   0.71593   0.32836   0.00000  Uiso   1.00
H623   H     0.56390   0.64604   0.28335   0.00000  Uiso   1.00
H624   H     0.73841   0.64013   0.38677   0.00000  Uiso   1.00
H625   H     0.70050   0.85426   0.30577   0.00000  Uiso   1.00
H626   H     0.43282   0.58011   0.24798   0.00000  Uiso   1.00
H627   H     0.80080   0.56767   0.46605   0.00000  Uiso   1.00
H628   H     0.72087   0.01920   0.29524   0.00000  Uiso   1.00
H629   H     0.50088   0.80515   0.44026   0.00000  Uiso   1.00
H630   H     0.39272   0.74016   0.40139   0.00000  Uiso   1.00
H631   H     0.56724   0.73424   0.50481   0.00000  Uiso   1.00
H632   H     0.52933   0.94837   0.42381   0.00000  Uiso   1.00
H633   H     0.29389   0.65649   0.34378   0.00000  Uiso   1.00
H634   H     0.66187   0.64406   0.56186   0.00000  Uiso   1.00
H635   H     0.58194   0.09559   0.39105   0.00000  Uiso   1.00
O636   O     0.29514   0.57391   0.26830   0.00000  Uiso   1.00
O637   O     0.77792   0.55761   0.55441   0.00000  Uiso   1.00
O638   O     0.67305   0.15001   0.33030   0.00000  Uiso   1.00
N639   N     0.41496   0.60702   0.27586   0.00000  Uiso   1.00
N640   N     0.75899   0.59538   0.47974   0.00000  Uiso   1.00
N641   N     0.68428   0.01752   0.32005   0.00000  Uiso   1.00
N642   N     0.34020   0.64812   0.32741   0.00000  Uiso   1.00
N643   N     0.68424   0.63648   0.53129   0.00000  Uiso   1.00
N644   N     0.60952   0.05863   0.37161   0.00000  Uiso   1.00
C645   C     0.37404   0.26363   0.35399   0.00000  Uiso   1.00
C646   C     0.45046   0.28923   0.34505   0.00000  Uiso   1.00
C647   C     0.47307   0.33365   0.30882   0.00000  Uiso   1.00
C648   C     0.54521   0.35092   0.30668   0.00000  Uiso   1.00
C649   C     0.65661   0.39468   0.28781   0.00000  Uiso   1.00
C650   C     0.35565   0.29245   0.40125   0.00000  Uiso   1.00
C651   C     0.29854   0.33957   0.41226   0.00000  Uiso   1.00
C652   C     0.29086   0.35953   0.45743   0.00000  Uiso   1.00
C653   C     0.25503   0.40825   0.52580   0.00000  Uiso   1.00
C654   C     0.37625   0.17611   0.35723   0.00000  Uiso   1.00
C655   C     0.33644   0.12540   0.33125   0.00000  Uiso   1.00
C656   C     0.34610   0.04742   0.33936   0.00000  Uiso   1.00
C657   C     0.34225   0.91550   0.33939   0.00000  Uiso   1.00
C658   C     0.46195   0.21529   0.41462   0.00000  Uiso   1.00
C659   C     0.49821   0.26297   0.37799   0.00000  Uiso   1.00
C660   C     0.57034   0.28017   0.37590   0.00000  Uiso   1.00
C661   C     0.59305   0.32461   0.33967   0.00000  Uiso   1.00
C662   C     0.40339   0.26619   0.43418   0.00000  Uiso   1.00
C663   C     0.39580   0.28609   0.47934   0.00000  Uiso   1.00
C664   C     0.33870   0.33323   0.49042   0.00000  Uiso   1.00
C665   C     0.42400   0.14985   0.39016   0.00000  Uiso   1.00
C666   C     0.43371   0.07193   0.39832   0.00000  Uiso   1.00
C667   C     0.39394   0.02112   0.37235   0.00000  Uiso   1.00
H668   H     0.33686   0.28407   0.32836   0.00000  Uiso   1.00
H669   H     0.43610   0.35396   0.28335   0.00000  Uiso   1.00
H670   H     0.26159   0.35987   0.38677   0.00000  Uiso   1.00
H671   H     0.29950   0.14574   0.30577   0.00000  Uiso   1.00
H672   H     0.56718   0.41989   0.24798   0.00000  Uiso   1.00
H673   H     0.19920   0.43233   0.46605   0.00000  Uiso   1.00
H674   H     0.27913   0.98080   0.29524   0.00000  Uiso   1.00
H675   H     0.49912   0.19485   0.44026   0.00000  Uiso   1.00
H676   H     0.60728   0.25984   0.40139   0.00000  Uiso   1.00
H677   H     0.43276   0.26576   0.50481   0.00000  Uiso   1.00
H678   H     0.47067   0.05163   0.42381   0.00000  Uiso   1.00
H679   H     0.70611   0.34351   0.34378   0.00000  Uiso   1.00
H680   H     0.33813   0.35594   0.56186   0.00000  Uiso   1.00
H681   H     0.41806   0.90441   0.39105   0.00000  Uiso   1.00
O682   O     0.70486   0.42609   0.26830   0.00000  Uiso   1.00
O683   O     0.22208   0.44239   0.55441   0.00000  Uiso   1.00
O684   O     0.32695   0.84999   0.33030   0.00000  Uiso   1.00
N685   N     0.58504   0.39298   0.27586   0.00000  Uiso   1.00
N686   N     0.24101   0.40462   0.47974   0.00000  Uiso   1.00
N687   N     0.31572   0.98248   0.32005   0.00000  Uiso   1.00
N688   N     0.65980   0.35188   0.32741   0.00000  Uiso   1.00
N689   N     0.31576   0.36352   0.53129   0.00000  Uiso   1.00
N690   N     0.39048   0.94137   0.37161   0.00000  Uiso   1.00
C691   C     0.87404   0.76363   0.35399   0.00000  Uiso   1.00
C692   C     0.95046   0.78923   0.34505   0.00000  Uiso   1.00
C693   C     0.97307   0.83365   0.30882   0.00000  Uiso   1.00
C694   C     0.04521   0.85092   0.30668   0.00000  Uiso   1.00
C695   C     0.15661   0.89468   0.28781   0.00000  Uiso   1.00
C696   C     0.85565   0.79245   0.40125   0.00000  Uiso   1.00
C697   C     0.79854   0.83957   0.41226   0.00000  Uiso   1.00
C698   C     0.79086   0.85953   0.45743   0.00000  Uiso   1.00
C699   C     0.75503   0.90825   0.52580   0.00000  Uiso   1.00
C700   C     0.87625   0.67611   0.35723   0.00000  Uiso   1.00
C701   C     0.83644   0.62540   0.33125   0.00000  Uiso   1.00
C702   C     0.84610   0.54742   0.33936   0.00000  Uiso   1.00
C703   C     0.84225   0.41550   0.33939   0.00000  Uiso   1.00
C704   C     0.96195   0.71529   0.41462   0.00000  Uiso   1.00
C705   C     0.99821   0.76297   0.37799   0.00000  Uiso   1.00
C706   C     0.07034   0.78017   0.37590   0.00000  Uiso   1.00
C707   C     0.09305   0.82461   0.33967   0.00000  Uiso   1.00
C708   C     0.90339   0.76619   0.43418   0.00000  Uiso   1.00
C709   C     0.89580   0.78609   0.47934   0.00000  Uiso   1.00
C710   C     0.83870   0.83323   0.49042   0.00000  Uiso   1.00
C711   C     0.92400   0.64985   0.39016   0.00000  Uiso   1.00
C712   C     0.93371   0.57193   0.39832   0.00000  Uiso   1.00
C713   C     0.89394   0.52112   0.37235   0.00000  Uiso   1.00
H714   H     0.83686   0.78407   0.32836   0.00000  Uiso   1.00
H715   H     0.93610   0.85396   0.28335   0.00000  Uiso   1.00
H716   H     0.76159   0.85987   0.38677   0.00000  Uiso   1.00
H717   H     0.79950   0.64574   0.30577   0.00000  Uiso   1.00
H718   H     0.06718   0.91989   0.24798   0.00000  Uiso   1.00
H719   H     0.69920   0.93233   0.46605   0.00000  Uiso   1.00
H720   H     0.77913   0.48080   0.29524   0.00000  Uiso   1.00
H721   H     0.99912   0.69485   0.44026   0.00000  Uiso   1.00
H722   H     0.10728   0.75984   0.40139   0.00000  Uiso   1.00
H723   H     0.93276   0.76576   0.50481   0.00000  Uiso   1.00
H724   H     0.97067   0.55163   0.42381   0.00000  Uiso   1.00
H725   H     0.20611   0.84351   0.34378   0.00000  Uiso   1.00
H726   H     0.83813   0.85594   0.56186   0.00000  Uiso   1.00
H727   H     0.91806   0.40441   0.39105   0.00000  Uiso   1.00
O728   O     0.20486   0.92609   0.26830   0.00000  Uiso   1.00
O729   O     0.72208   0.94239   0.55441   0.00000  Uiso   1.00
O730   O     0.82695   0.34999   0.33030   0.00000  Uiso   1.00
N731   N     0.08504   0.89298   0.27586   0.00000  Uiso   1.00
N732   N     0.74101   0.90462   0.47974   0.00000  Uiso   1.00
N733   N     0.81572   0.48248   0.32005   0.00000  Uiso   1.00
N734   N     0.15980   0.85188   0.32741   0.00000  Uiso   1.00
N735   N     0.81576   0.86352   0.53129   0.00000  Uiso   1.00
N736   N     0.89048   0.44137   0.37161   0.00000  Uiso   1.00
