data_job_05211
_audit_creation_date              2018-12-19
_audit_creation_method            'Materials Studio'
_symmetry_space_group_name_H-M    'P1'
_symmetry_Int_Tables_number       1
_symmetry_cell_setting            triclinic
loop_
_symmetry_equiv_pos_as_xyz
  x,y,z
_cell_length_a                    28.6305
_cell_length_b                    41.7182
_cell_length_c                    7.7335
_cell_angle_alpha                 90.0000
_cell_angle_beta                  90.0000
_cell_angle_gamma                 90.0000
loop_
_atom_site_label
_atom_site_type_symbol
_atom_site_fract_x
_atom_site_fract_y
_atom_site_fract_z
_atom_site_U_iso_or_equiv
_atom_site_adp_type
_atom_site_occupancy
C1     C     0.60509   0.47473   0.54064   0.00000  Uiso   1.00
C2     C     0.57348   0.46518   0.39054   0.00000  Uiso   1.00
C3     C     0.52910   0.45207   0.40521   0.00000  Uiso   1.00
C4     C     0.50583   0.44497   0.25244   0.00000  Uiso   1.00
C5     C     0.45366   0.42923   0.04394   0.00000  Uiso   1.00
C6     C     0.65060   0.45636   0.51488   0.00000  Uiso   1.00
C7     C     0.67107   0.43584   0.63413   0.00000  Uiso   1.00
C8     C     0.71272   0.42132   0.58603   0.00000  Uiso   1.00
C9     C     0.78030   0.39191   0.57063   0.00000  Uiso   1.00
C10    C     0.61694   0.50999   0.51268   0.00000  Uiso   1.00
C11    C     0.60912   0.53457   0.63007   0.00000  Uiso   1.00
C12    C     0.62245   0.56520   0.58013   0.00000  Uiso   1.00
C13    C     0.63777   0.61906   0.56131   0.00000  Uiso   1.00
C14    C     0.64268   0.48542   0.24322   0.00000  Uiso   1.00
C15    C     0.59390   0.47098   0.22899   0.00000  Uiso   1.00
C16    C     0.57069   0.46390   0.07615   0.00000  Uiso   1.00
C17    C     0.52629   0.45079   0.09059   0.00000  Uiso   1.00
C18    C     0.67102   0.46216   0.35334   0.00000  Uiso   1.00
C19    C     0.71265   0.44767   0.30506   0.00000  Uiso   1.00
C20    C     0.73318   0.42713   0.42419   0.00000  Uiso   1.00
C21    C     0.63736   0.51579   0.35112   0.00000  Uiso   1.00
C22    C     0.65071   0.54639   0.30100   0.00000  Uiso   1.00
C23    C     0.64291   0.57102   0.41829   0.00000  Uiso   1.00
H24    H     0.58920   0.47021   0.66641   0.00000  Uiso   1.00
H25    H     0.51332   0.44758   0.53026   0.00000  Uiso   1.00
H26    H     0.65526   0.43136   0.75914   0.00000  Uiso   1.00
H27    H     0.59332   0.53007   0.75507   0.00000  Uiso   1.00
H28    H     0.43820   0.42504   0.30806   0.00000  Uiso   1.00
H29    H     0.73751   0.39084   0.79069   0.00000  Uiso   1.00
H30    H     0.60690   0.59899   0.78213   0.00000  Uiso   1.00
H31    H     0.65857   0.48994   0.11744   0.00000  Uiso   1.00
H32    H     0.58650   0.46839   0.95115   0.00000  Uiso   1.00
H33    H     0.72844   0.45216   0.18004   0.00000  Uiso   1.00
H34    H     0.66651   0.55088   0.17597   0.00000  Uiso   1.00
H35    H     0.49760   0.44193   0.83804   0.00000  Uiso   1.00
H36    H     0.79691   0.40772   0.32067   0.00000  Uiso   1.00
H37    H     0.66630   0.61588   0.31211   0.00000  Uiso   1.00
O38    O     0.41924   0.41894   0.97357   0.00000  Uiso   1.00
O39    O     0.81192   0.37407   0.60677   0.00000  Uiso   1.00
O40    O     0.64057   0.64717   0.59554   0.00000  Uiso   1.00
N41    N     0.46207   0.43198   0.22026   0.00000  Uiso   1.00
N42    N     0.74190   0.39999   0.67148   0.00000  Uiso   1.00
N43    N     0.61981   0.59460   0.66350   0.00000  Uiso   1.00
N44    N     0.49403   0.44107   0.96734   0.00000  Uiso   1.00
N45    N     0.77386   0.40908   0.41856   0.00000  Uiso   1.00
N46    N     0.65177   0.60369   0.41058   0.00000  Uiso   1.00
C47    C     0.60509   0.97473   0.04064   0.00000  Uiso   1.00
C48    C     0.57348   0.96518   0.89054   0.00000  Uiso   1.00
C49    C     0.52910   0.95207   0.90521   0.00000  Uiso   1.00
C50    C     0.50583   0.94497   0.75244   0.00000  Uiso   1.00
C51    C     0.45366   0.92923   0.54394   0.00000  Uiso   1.00
C52    C     0.65060   0.95636   0.01488   0.00000  Uiso   1.00
C53    C     0.67107   0.93584   0.13413   0.00000  Uiso   1.00
C54    C     0.71272   0.92132   0.08603   0.00000  Uiso   1.00
C55    C     0.78030   0.89191   0.07063   0.00000  Uiso   1.00
C56    C     0.61694   0.00999   0.01268   0.00000  Uiso   1.00
C57    C     0.60912   0.03457   0.13007   0.00000  Uiso   1.00
C58    C     0.62245   0.06520   0.08013   0.00000  Uiso   1.00
C59    C     0.63777   0.11906   0.06131   0.00000  Uiso   1.00
C60    C     0.64268   0.98542   0.74322   0.00000  Uiso   1.00
C61    C     0.59390   0.97098   0.72899   0.00000  Uiso   1.00
C62    C     0.57069   0.96390   0.57615   0.00000  Uiso   1.00
C63    C     0.52629   0.95079   0.59059   0.00000  Uiso   1.00
C64    C     0.67102   0.96216   0.85334   0.00000  Uiso   1.00
C65    C     0.71265   0.94767   0.80506   0.00000  Uiso   1.00
C66    C     0.73318   0.92713   0.92419   0.00000  Uiso   1.00
C67    C     0.63736   0.01579   0.85112   0.00000  Uiso   1.00
C68    C     0.65071   0.04639   0.80100   0.00000  Uiso   1.00
C69    C     0.64291   0.07102   0.91829   0.00000  Uiso   1.00
H70    H     0.58920   0.97021   0.16641   0.00000  Uiso   1.00
H71    H     0.51332   0.94758   0.03026   0.00000  Uiso   1.00
H72    H     0.65526   0.93136   0.25914   0.00000  Uiso   1.00
H73    H     0.59332   0.03007   0.25507   0.00000  Uiso   1.00
H74    H     0.43820   0.92504   0.80806   0.00000  Uiso   1.00
H75    H     0.73751   0.89084   0.29069   0.00000  Uiso   1.00
H76    H     0.60690   0.09899   0.28213   0.00000  Uiso   1.00
H77    H     0.65857   0.98994   0.61744   0.00000  Uiso   1.00
H78    H     0.58650   0.96839   0.45115   0.00000  Uiso   1.00
H79    H     0.72844   0.95216   0.68004   0.00000  Uiso   1.00
H80    H     0.66651   0.05088   0.67597   0.00000  Uiso   1.00
H81    H     0.49760   0.94193   0.33804   0.00000  Uiso   1.00
H82    H     0.79691   0.90772   0.82067   0.00000  Uiso   1.00
H83    H     0.66630   0.11588   0.81211   0.00000  Uiso   1.00
O84    O     0.41924   0.91894   0.47357   0.00000  Uiso   1.00
O85    O     0.81192   0.87407   0.10677   0.00000  Uiso   1.00
O86    O     0.64057   0.14717   0.09554   0.00000  Uiso   1.00
N87    N     0.46207   0.93198   0.72026   0.00000  Uiso   1.00
N88    N     0.74190   0.89999   0.17148   0.00000  Uiso   1.00
N89    N     0.61981   0.09460   0.16350   0.00000  Uiso   1.00
N90    N     0.49403   0.94107   0.46734   0.00000  Uiso   1.00
N91    N     0.77386   0.90908   0.91856   0.00000  Uiso   1.00
N92    N     0.65177   0.10369   0.91058   0.00000  Uiso   1.00
C93    C     0.10509   0.47473   0.04064   0.00000  Uiso   1.00
C94    C     0.07348   0.46518   0.89054   0.00000  Uiso   1.00
C95    C     0.02910   0.45207   0.90521   0.00000  Uiso   1.00
C96    C     0.00583   0.44497   0.75244   0.00000  Uiso   1.00
C97    C     0.95366   0.42923   0.54394   0.00000  Uiso   1.00
C98    C     0.15060   0.45636   0.01488   0.00000  Uiso   1.00
C99    C     0.17107   0.43584   0.13413   0.00000  Uiso   1.00
C100   C     0.21272   0.42132   0.08603   0.00000  Uiso   1.00
C101   C     0.28030   0.39191   0.07063   0.00000  Uiso   1.00
C102   C     0.11694   0.50999   0.01268   0.00000  Uiso   1.00
C103   C     0.10912   0.53457   0.13007   0.00000  Uiso   1.00
C104   C     0.12245   0.56520   0.08013   0.00000  Uiso   1.00
C105   C     0.13777   0.61906   0.06131   0.00000  Uiso   1.00
C106   C     0.14268   0.48542   0.74322   0.00000  Uiso   1.00
C107   C     0.09390   0.47098   0.72899   0.00000  Uiso   1.00
C108   C     0.07069   0.46390   0.57615   0.00000  Uiso   1.00
C109   C     0.02629   0.45079   0.59059   0.00000  Uiso   1.00
C110   C     0.17102   0.46216   0.85334   0.00000  Uiso   1.00
C111   C     0.21265   0.44767   0.80506   0.00000  Uiso   1.00
C112   C     0.23318   0.42713   0.92419   0.00000  Uiso   1.00
C113   C     0.13736   0.51579   0.85112   0.00000  Uiso   1.00
C114   C     0.15071   0.54639   0.80100   0.00000  Uiso   1.00
C115   C     0.14291   0.57102   0.91829   0.00000  Uiso   1.00
H116   H     0.08920   0.47021   0.16641   0.00000  Uiso   1.00
H117   H     0.01332   0.44758   0.03026   0.00000  Uiso   1.00
H118   H     0.15526   0.43136   0.25914   0.00000  Uiso   1.00
H119   H     0.09332   0.53007   0.25507   0.00000  Uiso   1.00
H120   H     0.93820   0.42504   0.80806   0.00000  Uiso   1.00
H121   H     0.23751   0.39084   0.29069   0.00000  Uiso   1.00
H122   H     0.10690   0.59899   0.28213   0.00000  Uiso   1.00
H123   H     0.15857   0.48994   0.61744   0.00000  Uiso   1.00
H124   H     0.08650   0.46839   0.45115   0.00000  Uiso   1.00
H125   H     0.22844   0.45216   0.68004   0.00000  Uiso   1.00
H126   H     0.16651   0.55088   0.67597   0.00000  Uiso   1.00
H127   H     0.99760   0.44193   0.33804   0.00000  Uiso   1.00
H128   H     0.29691   0.40772   0.82067   0.00000  Uiso   1.00
H129   H     0.16630   0.61588   0.81211   0.00000  Uiso   1.00
O130   O     0.91924   0.41894   0.47357   0.00000  Uiso   1.00
O131   O     0.31192   0.37407   0.10677   0.00000  Uiso   1.00
O132   O     0.14057   0.64717   0.09554   0.00000  Uiso   1.00
N133   N     0.96207   0.43198   0.72026   0.00000  Uiso   1.00
N134   N     0.24190   0.39999   0.17148   0.00000  Uiso   1.00
N135   N     0.11981   0.59460   0.16350   0.00000  Uiso   1.00
N136   N     0.99403   0.44107   0.46734   0.00000  Uiso   1.00
N137   N     0.27386   0.40908   0.91856   0.00000  Uiso   1.00
N138   N     0.15177   0.60369   0.91058   0.00000  Uiso   1.00
C139   C     0.10509   0.97473   0.54064   0.00000  Uiso   1.00
C140   C     0.07348   0.96518   0.39054   0.00000  Uiso   1.00
C141   C     0.02910   0.95207   0.40521   0.00000  Uiso   1.00
C142   C     0.00583   0.94497   0.25244   0.00000  Uiso   1.00
C143   C     0.95366   0.92923   0.04394   0.00000  Uiso   1.00
C144   C     0.15060   0.95636   0.51488   0.00000  Uiso   1.00
C145   C     0.17107   0.93584   0.63413   0.00000  Uiso   1.00
C146   C     0.21272   0.92132   0.58603   0.00000  Uiso   1.00
C147   C     0.28030   0.89191   0.57063   0.00000  Uiso   1.00
C148   C     0.11694   0.00999   0.51268   0.00000  Uiso   1.00
C149   C     0.10912   0.03457   0.63007   0.00000  Uiso   1.00
C150   C     0.12245   0.06520   0.58013   0.00000  Uiso   1.00
C151   C     0.13777   0.11906   0.56131   0.00000  Uiso   1.00
C152   C     0.14268   0.98542   0.24322   0.00000  Uiso   1.00
C153   C     0.09390   0.97098   0.22899   0.00000  Uiso   1.00
C154   C     0.07069   0.96390   0.07615   0.00000  Uiso   1.00
C155   C     0.02629   0.95079   0.09059   0.00000  Uiso   1.00
C156   C     0.17102   0.96216   0.35334   0.00000  Uiso   1.00
C157   C     0.21265   0.94767   0.30506   0.00000  Uiso   1.00
C158   C     0.23318   0.92713   0.42419   0.00000  Uiso   1.00
C159   C     0.13736   0.01579   0.35112   0.00000  Uiso   1.00
C160   C     0.15071   0.04639   0.30100   0.00000  Uiso   1.00
C161   C     0.14291   0.07102   0.41829   0.00000  Uiso   1.00
H162   H     0.08920   0.97021   0.66641   0.00000  Uiso   1.00
H163   H     0.01332   0.94758   0.53026   0.00000  Uiso   1.00
H164   H     0.15526   0.93136   0.75914   0.00000  Uiso   1.00
H165   H     0.09332   0.03007   0.75507   0.00000  Uiso   1.00
H166   H     0.93820   0.92504   0.30806   0.00000  Uiso   1.00
H167   H     0.23751   0.89084   0.79069   0.00000  Uiso   1.00
H168   H     0.10690   0.09899   0.78213   0.00000  Uiso   1.00
H169   H     0.15857   0.98994   0.11744   0.00000  Uiso   1.00
H170   H     0.08650   0.96839   0.95115   0.00000  Uiso   1.00
H171   H     0.22844   0.95216   0.18004   0.00000  Uiso   1.00
H172   H     0.16651   0.05088   0.17597   0.00000  Uiso   1.00
H173   H     0.99760   0.94193   0.83804   0.00000  Uiso   1.00
H174   H     0.29691   0.90772   0.32067   0.00000  Uiso   1.00
H175   H     0.16630   0.11588   0.31211   0.00000  Uiso   1.00
O176   O     0.91924   0.91894   0.97357   0.00000  Uiso   1.00
O177   O     0.31192   0.87407   0.60677   0.00000  Uiso   1.00
O178   O     0.14057   0.14717   0.59554   0.00000  Uiso   1.00
N179   N     0.96207   0.93198   0.22026   0.00000  Uiso   1.00
N180   N     0.24190   0.89999   0.67148   0.00000  Uiso   1.00
N181   N     0.11981   0.09460   0.66350   0.00000  Uiso   1.00
N182   N     0.99403   0.94107   0.96734   0.00000  Uiso   1.00
N183   N     0.27386   0.90908   0.41856   0.00000  Uiso   1.00
N184   N     0.15177   0.10369   0.41058   0.00000  Uiso   1.00
C185   C     0.39491   0.52527   0.54064   0.00000  Uiso   1.00
C186   C     0.42652   0.53482   0.39054   0.00000  Uiso   1.00
C187   C     0.47090   0.54793   0.40521   0.00000  Uiso   1.00
C188   C     0.49417   0.55503   0.25244   0.00000  Uiso   1.00
C189   C     0.54634   0.57077   0.04394   0.00000  Uiso   1.00
C190   C     0.34940   0.54364   0.51488   0.00000  Uiso   1.00
C191   C     0.32893   0.56416   0.63413   0.00000  Uiso   1.00
C192   C     0.28728   0.57868   0.58603   0.00000  Uiso   1.00
C193   C     0.21970   0.60809   0.57063   0.00000  Uiso   1.00
C194   C     0.38306   0.49001   0.51268   0.00000  Uiso   1.00
C195   C     0.39088   0.46543   0.63007   0.00000  Uiso   1.00
C196   C     0.37755   0.43480   0.58013   0.00000  Uiso   1.00
C197   C     0.36223   0.38094   0.56131   0.00000  Uiso   1.00
C198   C     0.35732   0.51458   0.24322   0.00000  Uiso   1.00
C199   C     0.40610   0.52902   0.22899   0.00000  Uiso   1.00
C200   C     0.42931   0.53610   0.07615   0.00000  Uiso   1.00
C201   C     0.47371   0.54921   0.09059   0.00000  Uiso   1.00
C202   C     0.32898   0.53784   0.35334   0.00000  Uiso   1.00
C203   C     0.28735   0.55233   0.30506   0.00000  Uiso   1.00
C204   C     0.26682   0.57287   0.42419   0.00000  Uiso   1.00
C205   C     0.36264   0.48421   0.35112   0.00000  Uiso   1.00
C206   C     0.34929   0.45361   0.30100   0.00000  Uiso   1.00
C207   C     0.35709   0.42898   0.41829   0.00000  Uiso   1.00
H208   H     0.41080   0.52979   0.66641   0.00000  Uiso   1.00
H209   H     0.48668   0.55242   0.53026   0.00000  Uiso   1.00
H210   H     0.34474   0.56864   0.75914   0.00000  Uiso   1.00
H211   H     0.40668   0.46993   0.75507   0.00000  Uiso   1.00
H212   H     0.56180   0.57496   0.30806   0.00000  Uiso   1.00
H213   H     0.26249   0.60916   0.79069   0.00000  Uiso   1.00
H214   H     0.39310   0.40101   0.78213   0.00000  Uiso   1.00
H215   H     0.34143   0.51006   0.11744   0.00000  Uiso   1.00
H216   H     0.41350   0.53161   0.95115   0.00000  Uiso   1.00
H217   H     0.27156   0.54784   0.18004   0.00000  Uiso   1.00
H218   H     0.33349   0.44912   0.17597   0.00000  Uiso   1.00
H219   H     0.50240   0.55807   0.83804   0.00000  Uiso   1.00
H220   H     0.20309   0.59228   0.32067   0.00000  Uiso   1.00
H221   H     0.33370   0.38412   0.31211   0.00000  Uiso   1.00
O222   O     0.58076   0.58106   0.97357   0.00000  Uiso   1.00
O223   O     0.18808   0.62593   0.60677   0.00000  Uiso   1.00
O224   O     0.35943   0.35283   0.59554   0.00000  Uiso   1.00
N225   N     0.53793   0.56802   0.22026   0.00000  Uiso   1.00
N226   N     0.25810   0.60001   0.67148   0.00000  Uiso   1.00
N227   N     0.38019   0.40540   0.66350   0.00000  Uiso   1.00
N228   N     0.50597   0.55893   0.96734   0.00000  Uiso   1.00
N229   N     0.22614   0.59092   0.41856   0.00000  Uiso   1.00
N230   N     0.34823   0.39631   0.41058   0.00000  Uiso   1.00
C231   C     0.39491   0.02527   0.04064   0.00000  Uiso   1.00
C232   C     0.42652   0.03482   0.89054   0.00000  Uiso   1.00
C233   C     0.47090   0.04793   0.90521   0.00000  Uiso   1.00
C234   C     0.49417   0.05503   0.75244   0.00000  Uiso   1.00
C235   C     0.54634   0.07077   0.54394   0.00000  Uiso   1.00
C236   C     0.34940   0.04364   0.01488   0.00000  Uiso   1.00
C237   C     0.32893   0.06416   0.13413   0.00000  Uiso   1.00
C238   C     0.28728   0.07868   0.08603   0.00000  Uiso   1.00
C239   C     0.21970   0.10809   0.07063   0.00000  Uiso   1.00
C240   C     0.38306   0.99001   0.01268   0.00000  Uiso   1.00
C241   C     0.39088   0.96543   0.13007   0.00000  Uiso   1.00
C242   C     0.37755   0.93480   0.08013   0.00000  Uiso   1.00
C243   C     0.36223   0.88094   0.06131   0.00000  Uiso   1.00
C244   C     0.35732   0.01458   0.74322   0.00000  Uiso   1.00
C245   C     0.40610   0.02902   0.72899   0.00000  Uiso   1.00
C246   C     0.42931   0.03610   0.57615   0.00000  Uiso   1.00
C247   C     0.47371   0.04921   0.59059   0.00000  Uiso   1.00
C248   C     0.32898   0.03784   0.85334   0.00000  Uiso   1.00
C249   C     0.28735   0.05233   0.80506   0.00000  Uiso   1.00
C250   C     0.26682   0.07287   0.92419   0.00000  Uiso   1.00
C251   C     0.36264   0.98421   0.85112   0.00000  Uiso   1.00
C252   C     0.34929   0.95361   0.80100   0.00000  Uiso   1.00
C253   C     0.35709   0.92898   0.91829   0.00000  Uiso   1.00
H254   H     0.41080   0.02979   0.16641   0.00000  Uiso   1.00
H255   H     0.48668   0.05242   0.03026   0.00000  Uiso   1.00
H256   H     0.34474   0.06864   0.25914   0.00000  Uiso   1.00
H257   H     0.40668   0.96993   0.25507   0.00000  Uiso   1.00
H258   H     0.56180   0.07496   0.80806   0.00000  Uiso   1.00
H259   H     0.26249   0.10916   0.29069   0.00000  Uiso   1.00
H260   H     0.39310   0.90101   0.28213   0.00000  Uiso   1.00
H261   H     0.34143   0.01006   0.61744   0.00000  Uiso   1.00
H262   H     0.41350   0.03161   0.45115   0.00000  Uiso   1.00
H263   H     0.27156   0.04784   0.68004   0.00000  Uiso   1.00
H264   H     0.33349   0.94912   0.67597   0.00000  Uiso   1.00
H265   H     0.50240   0.05807   0.33804   0.00000  Uiso   1.00
H266   H     0.20309   0.09228   0.82067   0.00000  Uiso   1.00
H267   H     0.33370   0.88412   0.81211   0.00000  Uiso   1.00
O268   O     0.58076   0.08106   0.47357   0.00000  Uiso   1.00
O269   O     0.18808   0.12593   0.10677   0.00000  Uiso   1.00
O270   O     0.35943   0.85283   0.09554   0.00000  Uiso   1.00
N271   N     0.53793   0.06802   0.72026   0.00000  Uiso   1.00
N272   N     0.25810   0.10001   0.17148   0.00000  Uiso   1.00
N273   N     0.38019   0.90540   0.16350   0.00000  Uiso   1.00
N274   N     0.50597   0.05893   0.46734   0.00000  Uiso   1.00
N275   N     0.22614   0.09092   0.91856   0.00000  Uiso   1.00
N276   N     0.34823   0.89631   0.91058   0.00000  Uiso   1.00
C277   C     0.89491   0.52527   0.04064   0.00000  Uiso   1.00
C278   C     0.92652   0.53482   0.89054   0.00000  Uiso   1.00
C279   C     0.97090   0.54793   0.90521   0.00000  Uiso   1.00
C280   C     0.99417   0.55503   0.75244   0.00000  Uiso   1.00
C281   C     0.04634   0.57077   0.54394   0.00000  Uiso   1.00
C282   C     0.84940   0.54364   0.01488   0.00000  Uiso   1.00
C283   C     0.82893   0.56416   0.13413   0.00000  Uiso   1.00
C284   C     0.78728   0.57868   0.08603   0.00000  Uiso   1.00
C285   C     0.71970   0.60809   0.07063   0.00000  Uiso   1.00
C286   C     0.88306   0.49001   0.01268   0.00000  Uiso   1.00
C287   C     0.89088   0.46543   0.13007   0.00000  Uiso   1.00
C288   C     0.87755   0.43480   0.08013   0.00000  Uiso   1.00
C289   C     0.86223   0.38094   0.06131   0.00000  Uiso   1.00
C290   C     0.85732   0.51458   0.74322   0.00000  Uiso   1.00
C291   C     0.90610   0.52902   0.72899   0.00000  Uiso   1.00
C292   C     0.92931   0.53610   0.57615   0.00000  Uiso   1.00
C293   C     0.97371   0.54921   0.59059   0.00000  Uiso   1.00
C294   C     0.82898   0.53784   0.85334   0.00000  Uiso   1.00
C295   C     0.78735   0.55233   0.80506   0.00000  Uiso   1.00
C296   C     0.76682   0.57287   0.92419   0.00000  Uiso   1.00
C297   C     0.86264   0.48421   0.85112   0.00000  Uiso   1.00
C298   C     0.84929   0.45361   0.80100   0.00000  Uiso   1.00
C299   C     0.85709   0.42898   0.91829   0.00000  Uiso   1.00
H300   H     0.91080   0.52979   0.16641   0.00000  Uiso   1.00
H301   H     0.98668   0.55242   0.03026   0.00000  Uiso   1.00
H302   H     0.84474   0.56864   0.25914   0.00000  Uiso   1.00
H303   H     0.90668   0.46993   0.25507   0.00000  Uiso   1.00
H304   H     0.06180   0.57496   0.80806   0.00000  Uiso   1.00
H305   H     0.76249   0.60916   0.29069   0.00000  Uiso   1.00
H306   H     0.89310   0.40101   0.28213   0.00000  Uiso   1.00
H307   H     0.84143   0.51006   0.61744   0.00000  Uiso   1.00
H308   H     0.91350   0.53161   0.45115   0.00000  Uiso   1.00
H309   H     0.77156   0.54784   0.68004   0.00000  Uiso   1.00
H310   H     0.83349   0.44912   0.67597   0.00000  Uiso   1.00
H311   H     0.00240   0.55807   0.33804   0.00000  Uiso   1.00
H312   H     0.70309   0.59228   0.82067   0.00000  Uiso   1.00
H313   H     0.83370   0.38412   0.81211   0.00000  Uiso   1.00
O314   O     0.08076   0.58106   0.47357   0.00000  Uiso   1.00
O315   O     0.68808   0.62593   0.10677   0.00000  Uiso   1.00
O316   O     0.85943   0.35283   0.09554   0.00000  Uiso   1.00
N317   N     0.03793   0.56802   0.72026   0.00000  Uiso   1.00
N318   N     0.75810   0.60001   0.17148   0.00000  Uiso   1.00
N319   N     0.88019   0.40540   0.16350   0.00000  Uiso   1.00
N320   N     0.00597   0.55893   0.46734   0.00000  Uiso   1.00
N321   N     0.72614   0.59092   0.91856   0.00000  Uiso   1.00
N322   N     0.84823   0.39631   0.91058   0.00000  Uiso   1.00
C323   C     0.89491   0.02527   0.54064   0.00000  Uiso   1.00
C324   C     0.92652   0.03482   0.39054   0.00000  Uiso   1.00
C325   C     0.97090   0.04793   0.40521   0.00000  Uiso   1.00
C326   C     0.99417   0.05503   0.25244   0.00000  Uiso   1.00
C327   C     0.04634   0.07077   0.04394   0.00000  Uiso   1.00
C328   C     0.84940   0.04364   0.51488   0.00000  Uiso   1.00
C329   C     0.82893   0.06416   0.63413   0.00000  Uiso   1.00
C330   C     0.78728   0.07868   0.58603   0.00000  Uiso   1.00
C331   C     0.71970   0.10809   0.57063   0.00000  Uiso   1.00
C332   C     0.88306   0.99001   0.51268   0.00000  Uiso   1.00
C333   C     0.89088   0.96543   0.63007   0.00000  Uiso   1.00
C334   C     0.87755   0.93480   0.58013   0.00000  Uiso   1.00
C335   C     0.86223   0.88094   0.56131   0.00000  Uiso   1.00
C336   C     0.85732   0.01458   0.24322   0.00000  Uiso   1.00
C337   C     0.90610   0.02902   0.22899   0.00000  Uiso   1.00
C338   C     0.92931   0.03610   0.07615   0.00000  Uiso   1.00
C339   C     0.97371   0.04921   0.09059   0.00000  Uiso   1.00
C340   C     0.82898   0.03784   0.35334   0.00000  Uiso   1.00
C341   C     0.78735   0.05233   0.30506   0.00000  Uiso   1.00
C342   C     0.76682   0.07287   0.42419   0.00000  Uiso   1.00
C343   C     0.86264   0.98421   0.35112   0.00000  Uiso   1.00
C344   C     0.84929   0.95361   0.30100   0.00000  Uiso   1.00
C345   C     0.85709   0.92898   0.41829   0.00000  Uiso   1.00
H346   H     0.91080   0.02979   0.66641   0.00000  Uiso   1.00
H347   H     0.98668   0.05242   0.53026   0.00000  Uiso   1.00
H348   H     0.84474   0.06864   0.75914   0.00000  Uiso   1.00
H349   H     0.90668   0.96993   0.75507   0.00000  Uiso   1.00
H350   H     0.06180   0.07496   0.30806   0.00000  Uiso   1.00
H351   H     0.76249   0.10916   0.79069   0.00000  Uiso   1.00
H352   H     0.89310   0.90101   0.78213   0.00000  Uiso   1.00
H353   H     0.84143   0.01006   0.11744   0.00000  Uiso   1.00
H354   H     0.91350   0.03161   0.95115   0.00000  Uiso   1.00
H355   H     0.77156   0.04784   0.18004   0.00000  Uiso   1.00
H356   H     0.83349   0.94912   0.17597   0.00000  Uiso   1.00
H357   H     0.00240   0.05807   0.83804   0.00000  Uiso   1.00
H358   H     0.70309   0.09228   0.32067   0.00000  Uiso   1.00
H359   H     0.83370   0.88412   0.31211   0.00000  Uiso   1.00
O360   O     0.08076   0.08106   0.97357   0.00000  Uiso   1.00
O361   O     0.68808   0.12593   0.60677   0.00000  Uiso   1.00
O362   O     0.85943   0.85283   0.59554   0.00000  Uiso   1.00
N363   N     0.03793   0.06802   0.22026   0.00000  Uiso   1.00
N364   N     0.75810   0.10001   0.67148   0.00000  Uiso   1.00
N365   N     0.88019   0.90540   0.66350   0.00000  Uiso   1.00
N366   N     0.00597   0.05893   0.96734   0.00000  Uiso   1.00
N367   N     0.72614   0.09092   0.41856   0.00000  Uiso   1.00
N368   N     0.84823   0.89631   0.41058   0.00000  Uiso   1.00
C369   C     0.85509   0.77527   0.79064   0.00000  Uiso   1.00
C370   C     0.82348   0.78482   0.64054   0.00000  Uiso   1.00
C371   C     0.77910   0.79793   0.65521   0.00000  Uiso   1.00
C372   C     0.75583   0.80503   0.50244   0.00000  Uiso   1.00
C373   C     0.70366   0.82077   0.29394   0.00000  Uiso   1.00
C374   C     0.90060   0.79364   0.76488   0.00000  Uiso   1.00
C375   C     0.92107   0.81416   0.88413   0.00000  Uiso   1.00
C376   C     0.96272   0.82868   0.83603   0.00000  Uiso   1.00
C377   C     0.03030   0.85809   0.82063   0.00000  Uiso   1.00
C378   C     0.86694   0.74001   0.76268   0.00000  Uiso   1.00
C379   C     0.85912   0.71543   0.88007   0.00000  Uiso   1.00
C380   C     0.87245   0.68480   0.83013   0.00000  Uiso   1.00
C381   C     0.88777   0.63094   0.81131   0.00000  Uiso   1.00
C382   C     0.89268   0.76458   0.49322   0.00000  Uiso   1.00
C383   C     0.84390   0.77902   0.47899   0.00000  Uiso   1.00
C384   C     0.82069   0.78610   0.32615   0.00000  Uiso   1.00
C385   C     0.77629   0.79921   0.34059   0.00000  Uiso   1.00
C386   C     0.92102   0.78784   0.60334   0.00000  Uiso   1.00
C387   C     0.96265   0.80233   0.55506   0.00000  Uiso   1.00
C388   C     0.98318   0.82287   0.67419   0.00000  Uiso   1.00
C389   C     0.88736   0.73421   0.60112   0.00000  Uiso   1.00
C390   C     0.90071   0.70361   0.55100   0.00000  Uiso   1.00
C391   C     0.89291   0.67898   0.66829   0.00000  Uiso   1.00
H392   H     0.83920   0.77979   0.91641   0.00000  Uiso   1.00
H393   H     0.76332   0.80242   0.78026   0.00000  Uiso   1.00
H394   H     0.90526   0.81864   0.00914   0.00000  Uiso   1.00
H395   H     0.84332   0.71993   0.00507   0.00000  Uiso   1.00
H396   H     0.68820   0.82496   0.55806   0.00000  Uiso   1.00
H397   H     0.98751   0.85916   0.04069   0.00000  Uiso   1.00
H398   H     0.85690   0.65101   0.03213   0.00000  Uiso   1.00
H399   H     0.90857   0.76006   0.36744   0.00000  Uiso   1.00
H400   H     0.83650   0.78161   0.20115   0.00000  Uiso   1.00
H401   H     0.97844   0.79784   0.43004   0.00000  Uiso   1.00
H402   H     0.91651   0.69912   0.42597   0.00000  Uiso   1.00
H403   H     0.74760   0.80807   0.08804   0.00000  Uiso   1.00
H404   H     0.04691   0.84228   0.57067   0.00000  Uiso   1.00
H405   H     0.91630   0.63412   0.56211   0.00000  Uiso   1.00
O406   O     0.66924   0.83106   0.22357   0.00000  Uiso   1.00
O407   O     0.06192   0.87593   0.85677   0.00000  Uiso   1.00
O408   O     0.89057   0.60283   0.84554   0.00000  Uiso   1.00
N409   N     0.71207   0.81802   0.47026   0.00000  Uiso   1.00
N410   N     0.99190   0.85001   0.92148   0.00000  Uiso   1.00
N411   N     0.86981   0.65540   0.91350   0.00000  Uiso   1.00
N412   N     0.74403   0.80893   0.21734   0.00000  Uiso   1.00
N413   N     0.02386   0.84092   0.66856   0.00000  Uiso   1.00
N414   N     0.90177   0.64631   0.66058   0.00000  Uiso   1.00
C415   C     0.85509   0.27527   0.29064   0.00000  Uiso   1.00
C416   C     0.82348   0.28482   0.14054   0.00000  Uiso   1.00
C417   C     0.77910   0.29793   0.15521   0.00000  Uiso   1.00
C418   C     0.75583   0.30503   0.00244   0.00000  Uiso   1.00
C419   C     0.70366   0.32077   0.79394   0.00000  Uiso   1.00
C420   C     0.90060   0.29364   0.26488   0.00000  Uiso   1.00
C421   C     0.92107   0.31416   0.38413   0.00000  Uiso   1.00
C422   C     0.96272   0.32868   0.33603   0.00000  Uiso   1.00
C423   C     0.03030   0.35809   0.32063   0.00000  Uiso   1.00
C424   C     0.86694   0.24001   0.26268   0.00000  Uiso   1.00
C425   C     0.85912   0.21543   0.38007   0.00000  Uiso   1.00
C426   C     0.87245   0.18480   0.33013   0.00000  Uiso   1.00
C427   C     0.88777   0.13094   0.31131   0.00000  Uiso   1.00
C428   C     0.89268   0.26458   0.99322   0.00000  Uiso   1.00
C429   C     0.84390   0.27902   0.97899   0.00000  Uiso   1.00
C430   C     0.82069   0.28610   0.82615   0.00000  Uiso   1.00
C431   C     0.77629   0.29921   0.84059   0.00000  Uiso   1.00
C432   C     0.92102   0.28784   0.10334   0.00000  Uiso   1.00
C433   C     0.96265   0.30233   0.05506   0.00000  Uiso   1.00
C434   C     0.98318   0.32287   0.17419   0.00000  Uiso   1.00
C435   C     0.88736   0.23421   0.10112   0.00000  Uiso   1.00
C436   C     0.90071   0.20361   0.05100   0.00000  Uiso   1.00
C437   C     0.89291   0.17898   0.16829   0.00000  Uiso   1.00
H438   H     0.83920   0.27979   0.41641   0.00000  Uiso   1.00
H439   H     0.76332   0.30242   0.28026   0.00000  Uiso   1.00
H440   H     0.90526   0.31864   0.50914   0.00000  Uiso   1.00
H441   H     0.84332   0.21993   0.50507   0.00000  Uiso   1.00
H442   H     0.68820   0.32496   0.05806   0.00000  Uiso   1.00
H443   H     0.98751   0.35916   0.54069   0.00000  Uiso   1.00
H444   H     0.85690   0.15101   0.53213   0.00000  Uiso   1.00
H445   H     0.90857   0.26006   0.86744   0.00000  Uiso   1.00
H446   H     0.83650   0.28161   0.70115   0.00000  Uiso   1.00
H447   H     0.97844   0.29784   0.93004   0.00000  Uiso   1.00
H448   H     0.91651   0.19912   0.92597   0.00000  Uiso   1.00
H449   H     0.74760   0.30807   0.58804   0.00000  Uiso   1.00
H450   H     0.04691   0.34228   0.07067   0.00000  Uiso   1.00
H451   H     0.91630   0.13412   0.06211   0.00000  Uiso   1.00
O452   O     0.66924   0.33106   0.72357   0.00000  Uiso   1.00
O453   O     0.06192   0.37593   0.35677   0.00000  Uiso   1.00
O454   O     0.89057   0.10283   0.34554   0.00000  Uiso   1.00
N455   N     0.71207   0.31802   0.97026   0.00000  Uiso   1.00
N456   N     0.99190   0.35001   0.42148   0.00000  Uiso   1.00
N457   N     0.86981   0.15540   0.41350   0.00000  Uiso   1.00
N458   N     0.74403   0.30893   0.71734   0.00000  Uiso   1.00
N459   N     0.02386   0.34092   0.16856   0.00000  Uiso   1.00
N460   N     0.90177   0.14631   0.16058   0.00000  Uiso   1.00
C461   C     0.35509   0.77527   0.29064   0.00000  Uiso   1.00
C462   C     0.32348   0.78482   0.14054   0.00000  Uiso   1.00
C463   C     0.27910   0.79793   0.15521   0.00000  Uiso   1.00
C464   C     0.25583   0.80503   0.00244   0.00000  Uiso   1.00
C465   C     0.20366   0.82077   0.79394   0.00000  Uiso   1.00
C466   C     0.40060   0.79364   0.26488   0.00000  Uiso   1.00
C467   C     0.42107   0.81416   0.38413   0.00000  Uiso   1.00
C468   C     0.46272   0.82868   0.33603   0.00000  Uiso   1.00
C469   C     0.53030   0.85809   0.32063   0.00000  Uiso   1.00
C470   C     0.36694   0.74001   0.26268   0.00000  Uiso   1.00
C471   C     0.35912   0.71543   0.38007   0.00000  Uiso   1.00
C472   C     0.37245   0.68480   0.33013   0.00000  Uiso   1.00
C473   C     0.38777   0.63094   0.31131   0.00000  Uiso   1.00
C474   C     0.39268   0.76458   0.99322   0.00000  Uiso   1.00
C475   C     0.34390   0.77902   0.97899   0.00000  Uiso   1.00
C476   C     0.32069   0.78610   0.82615   0.00000  Uiso   1.00
C477   C     0.27629   0.79921   0.84059   0.00000  Uiso   1.00
C478   C     0.42102   0.78784   0.10334   0.00000  Uiso   1.00
C479   C     0.46265   0.80233   0.05506   0.00000  Uiso   1.00
C480   C     0.48318   0.82287   0.17419   0.00000  Uiso   1.00
C481   C     0.38736   0.73421   0.10112   0.00000  Uiso   1.00
C482   C     0.40071   0.70361   0.05100   0.00000  Uiso   1.00
C483   C     0.39291   0.67898   0.16829   0.00000  Uiso   1.00
H484   H     0.33920   0.77979   0.41641   0.00000  Uiso   1.00
H485   H     0.26332   0.80242   0.28026   0.00000  Uiso   1.00
H486   H     0.40526   0.81864   0.50914   0.00000  Uiso   1.00
H487   H     0.34332   0.71993   0.50507   0.00000  Uiso   1.00
H488   H     0.18820   0.82496   0.05806   0.00000  Uiso   1.00
H489   H     0.48751   0.85916   0.54069   0.00000  Uiso   1.00
H490   H     0.35690   0.65101   0.53213   0.00000  Uiso   1.00
H491   H     0.40857   0.76006   0.86744   0.00000  Uiso   1.00
H492   H     0.33650   0.78161   0.70115   0.00000  Uiso   1.00
H493   H     0.47844   0.79784   0.93004   0.00000  Uiso   1.00
H494   H     0.41651   0.69912   0.92597   0.00000  Uiso   1.00
H495   H     0.24760   0.80807   0.58804   0.00000  Uiso   1.00
H496   H     0.54691   0.84228   0.07067   0.00000  Uiso   1.00
H497   H     0.41630   0.63412   0.06211   0.00000  Uiso   1.00
O498   O     0.16924   0.83106   0.72357   0.00000  Uiso   1.00
O499   O     0.56192   0.87593   0.35677   0.00000  Uiso   1.00
O500   O     0.39057   0.60283   0.34554   0.00000  Uiso   1.00
N501   N     0.21207   0.81802   0.97026   0.00000  Uiso   1.00
N502   N     0.49190   0.85001   0.42148   0.00000  Uiso   1.00
N503   N     0.36981   0.65540   0.41350   0.00000  Uiso   1.00
N504   N     0.24403   0.80893   0.71734   0.00000  Uiso   1.00
N505   N     0.52386   0.84092   0.16856   0.00000  Uiso   1.00
N506   N     0.40177   0.64631   0.16058   0.00000  Uiso   1.00
C507   C     0.35509   0.27527   0.79064   0.00000  Uiso   1.00
C508   C     0.32348   0.28482   0.64054   0.00000  Uiso   1.00
C509   C     0.27910   0.29793   0.65521   0.00000  Uiso   1.00
C510   C     0.25583   0.30503   0.50244   0.00000  Uiso   1.00
C511   C     0.20366   0.32077   0.29394   0.00000  Uiso   1.00
C512   C     0.40060   0.29364   0.76488   0.00000  Uiso   1.00
C513   C     0.42107   0.31416   0.88413   0.00000  Uiso   1.00
C514   C     0.46272   0.32868   0.83603   0.00000  Uiso   1.00
C515   C     0.53030   0.35809   0.82063   0.00000  Uiso   1.00
C516   C     0.36694   0.24001   0.76268   0.00000  Uiso   1.00
C517   C     0.35912   0.21543   0.88007   0.00000  Uiso   1.00
C518   C     0.37245   0.18480   0.83013   0.00000  Uiso   1.00
C519   C     0.38777   0.13094   0.81131   0.00000  Uiso   1.00
C520   C     0.39268   0.26458   0.49322   0.00000  Uiso   1.00
C521   C     0.34390   0.27902   0.47899   0.00000  Uiso   1.00
C522   C     0.32069   0.28610   0.32615   0.00000  Uiso   1.00
C523   C     0.27629   0.29921   0.34059   0.00000  Uiso   1.00
C524   C     0.42102   0.28784   0.60334   0.00000  Uiso   1.00
C525   C     0.46265   0.30233   0.55506   0.00000  Uiso   1.00
C526   C     0.48318   0.32287   0.67419   0.00000  Uiso   1.00
C527   C     0.38736   0.23421   0.60112   0.00000  Uiso   1.00
C528   C     0.40071   0.20361   0.55100   0.00000  Uiso   1.00
C529   C     0.39291   0.17898   0.66829   0.00000  Uiso   1.00
H530   H     0.33920   0.27979   0.91641   0.00000  Uiso   1.00
H531   H     0.26332   0.30242   0.78026   0.00000  Uiso   1.00
H532   H     0.40526   0.31864   0.00914   0.00000  Uiso   1.00
H533   H     0.34332   0.21993   0.00507   0.00000  Uiso   1.00
H534   H     0.18820   0.32496   0.55806   0.00000  Uiso   1.00
H535   H     0.48751   0.35916   0.04069   0.00000  Uiso   1.00
H536   H     0.35690   0.15101   0.03213   0.00000  Uiso   1.00
H537   H     0.40857   0.26006   0.36744   0.00000  Uiso   1.00
H538   H     0.33650   0.28161   0.20115   0.00000  Uiso   1.00
H539   H     0.47844   0.29784   0.43004   0.00000  Uiso   1.00
H540   H     0.41651   0.19912   0.42597   0.00000  Uiso   1.00
H541   H     0.24760   0.30807   0.08804   0.00000  Uiso   1.00
H542   H     0.54691   0.34228   0.57067   0.00000  Uiso   1.00
H543   H     0.41630   0.13412   0.56211   0.00000  Uiso   1.00
O544   O     0.16924   0.33106   0.22357   0.00000  Uiso   1.00
O545   O     0.56192   0.37593   0.85677   0.00000  Uiso   1.00
O546   O     0.39057   0.10283   0.84554   0.00000  Uiso   1.00
N547   N     0.21207   0.31802   0.47026   0.00000  Uiso   1.00
N548   N     0.49190   0.35001   0.92148   0.00000  Uiso   1.00
N549   N     0.36981   0.15540   0.91350   0.00000  Uiso   1.00
N550   N     0.24403   0.30893   0.21734   0.00000  Uiso   1.00
N551   N     0.52386   0.34092   0.66856   0.00000  Uiso   1.00
N552   N     0.40177   0.14631   0.66058   0.00000  Uiso   1.00
C553   C     0.64491   0.72473   0.79064   0.00000  Uiso   1.00
C554   C     0.67652   0.71518   0.64054   0.00000  Uiso   1.00
C555   C     0.72090   0.70207   0.65521   0.00000  Uiso   1.00
C556   C     0.74417   0.69497   0.50244   0.00000  Uiso   1.00
C557   C     0.79634   0.67923   0.29394   0.00000  Uiso   1.00
C558   C     0.59940   0.70636   0.76488   0.00000  Uiso   1.00
C559   C     0.57893   0.68584   0.88413   0.00000  Uiso   1.00
C560   C     0.53728   0.67132   0.83603   0.00000  Uiso   1.00
C561   C     0.46970   0.64191   0.82063   0.00000  Uiso   1.00
C562   C     0.63306   0.75999   0.76268   0.00000  Uiso   1.00
C563   C     0.64088   0.78457   0.88007   0.00000  Uiso   1.00
C564   C     0.62755   0.81520   0.83013   0.00000  Uiso   1.00
C565   C     0.61223   0.86906   0.81131   0.00000  Uiso   1.00
C566   C     0.60732   0.73542   0.49322   0.00000  Uiso   1.00
C567   C     0.65610   0.72098   0.47899   0.00000  Uiso   1.00
C568   C     0.67931   0.71390   0.32615   0.00000  Uiso   1.00
C569   C     0.72371   0.70079   0.34059   0.00000  Uiso   1.00
C570   C     0.57898   0.71216   0.60334   0.00000  Uiso   1.00
C571   C     0.53735   0.69767   0.55506   0.00000  Uiso   1.00
C572   C     0.51682   0.67713   0.67419   0.00000  Uiso   1.00
C573   C     0.61264   0.76579   0.60112   0.00000  Uiso   1.00
C574   C     0.59929   0.79639   0.55100   0.00000  Uiso   1.00
C575   C     0.60709   0.82102   0.66829   0.00000  Uiso   1.00
H576   H     0.66080   0.72021   0.91641   0.00000  Uiso   1.00
H577   H     0.73668   0.69758   0.78026   0.00000  Uiso   1.00
H578   H     0.59474   0.68136   0.00914   0.00000  Uiso   1.00
H579   H     0.65668   0.78007   0.00507   0.00000  Uiso   1.00
H580   H     0.81180   0.67504   0.55806   0.00000  Uiso   1.00
H581   H     0.51249   0.64084   0.04069   0.00000  Uiso   1.00
H582   H     0.64310   0.84899   0.03213   0.00000  Uiso   1.00
H583   H     0.59143   0.73994   0.36744   0.00000  Uiso   1.00
H584   H     0.66350   0.71839   0.20115   0.00000  Uiso   1.00
H585   H     0.52156   0.70216   0.43004   0.00000  Uiso   1.00
H586   H     0.58349   0.80088   0.42597   0.00000  Uiso   1.00
H587   H     0.75240   0.69193   0.08804   0.00000  Uiso   1.00
H588   H     0.45309   0.65772   0.57067   0.00000  Uiso   1.00
H589   H     0.58370   0.86588   0.56211   0.00000  Uiso   1.00
O590   O     0.83076   0.66894   0.22357   0.00000  Uiso   1.00
O591   O     0.43808   0.62407   0.85677   0.00000  Uiso   1.00
O592   O     0.60943   0.89717   0.84554   0.00000  Uiso   1.00
N593   N     0.78793   0.68198   0.47026   0.00000  Uiso   1.00
N594   N     0.50810   0.64999   0.92148   0.00000  Uiso   1.00
N595   N     0.63019   0.84460   0.91350   0.00000  Uiso   1.00
N596   N     0.75597   0.69107   0.21734   0.00000  Uiso   1.00
N597   N     0.47614   0.65908   0.66856   0.00000  Uiso   1.00
N598   N     0.59823   0.85369   0.66058   0.00000  Uiso   1.00
C599   C     0.64491   0.22473   0.29064   0.00000  Uiso   1.00
C600   C     0.67652   0.21518   0.14054   0.00000  Uiso   1.00
C601   C     0.72090   0.20207   0.15521   0.00000  Uiso   1.00
C602   C     0.74417   0.19497   0.00244   0.00000  Uiso   1.00
C603   C     0.79634   0.17923   0.79394   0.00000  Uiso   1.00
C604   C     0.59940   0.20636   0.26488   0.00000  Uiso   1.00
C605   C     0.57893   0.18584   0.38413   0.00000  Uiso   1.00
C606   C     0.53728   0.17132   0.33603   0.00000  Uiso   1.00
C607   C     0.46970   0.14191   0.32063   0.00000  Uiso   1.00
C608   C     0.63306   0.25999   0.26268   0.00000  Uiso   1.00
C609   C     0.64088   0.28457   0.38007   0.00000  Uiso   1.00
C610   C     0.62755   0.31520   0.33013   0.00000  Uiso   1.00
C611   C     0.61223   0.36906   0.31131   0.00000  Uiso   1.00
C612   C     0.60732   0.23542   0.99322   0.00000  Uiso   1.00
C613   C     0.65610   0.22098   0.97899   0.00000  Uiso   1.00
C614   C     0.67931   0.21390   0.82615   0.00000  Uiso   1.00
C615   C     0.72371   0.20079   0.84059   0.00000  Uiso   1.00
C616   C     0.57898   0.21216   0.10334   0.00000  Uiso   1.00
C617   C     0.53735   0.19767   0.05506   0.00000  Uiso   1.00
C618   C     0.51682   0.17713   0.17419   0.00000  Uiso   1.00
C619   C     0.61264   0.26579   0.10112   0.00000  Uiso   1.00
C620   C     0.59929   0.29639   0.05100   0.00000  Uiso   1.00
C621   C     0.60709   0.32102   0.16829   0.00000  Uiso   1.00
H622   H     0.66080   0.22021   0.41641   0.00000  Uiso   1.00
H623   H     0.73668   0.19758   0.28026   0.00000  Uiso   1.00
H624   H     0.59474   0.18136   0.50914   0.00000  Uiso   1.00
H625   H     0.65668   0.28007   0.50507   0.00000  Uiso   1.00
H626   H     0.81180   0.17504   0.05806   0.00000  Uiso   1.00
H627   H     0.51249   0.14084   0.54069   0.00000  Uiso   1.00
H628   H     0.64310   0.34899   0.53213   0.00000  Uiso   1.00
H629   H     0.59143   0.23994   0.86744   0.00000  Uiso   1.00
H630   H     0.66350   0.21839   0.70115   0.00000  Uiso   1.00
H631   H     0.52156   0.20216   0.93004   0.00000  Uiso   1.00
H632   H     0.58349   0.30088   0.92597   0.00000  Uiso   1.00
H633   H     0.75240   0.19193   0.58804   0.00000  Uiso   1.00
H634   H     0.45309   0.15772   0.07067   0.00000  Uiso   1.00
H635   H     0.58370   0.36588   0.06211   0.00000  Uiso   1.00
O636   O     0.83076   0.16894   0.72357   0.00000  Uiso   1.00
O637   O     0.43808   0.12407   0.35677   0.00000  Uiso   1.00
O638   O     0.60943   0.39717   0.34554   0.00000  Uiso   1.00
N639   N     0.78793   0.18198   0.97026   0.00000  Uiso   1.00
N640   N     0.50810   0.14999   0.42148   0.00000  Uiso   1.00
N641   N     0.63019   0.34460   0.41350   0.00000  Uiso   1.00
N642   N     0.75597   0.19107   0.71734   0.00000  Uiso   1.00
N643   N     0.47614   0.15908   0.16856   0.00000  Uiso   1.00
N644   N     0.59823   0.35369   0.16058   0.00000  Uiso   1.00
C645   C     0.14491   0.72473   0.29064   0.00000  Uiso   1.00
C646   C     0.17652   0.71518   0.14054   0.00000  Uiso   1.00
C647   C     0.22090   0.70207   0.15521   0.00000  Uiso   1.00
C648   C     0.24417   0.69497   0.00244   0.00000  Uiso   1.00
C649   C     0.29634   0.67923   0.79394   0.00000  Uiso   1.00
C650   C     0.09940   0.70636   0.26488   0.00000  Uiso   1.00
C651   C     0.07893   0.68584   0.38413   0.00000  Uiso   1.00
C652   C     0.03728   0.67132   0.33603   0.00000  Uiso   1.00
C653   C     0.96970   0.64191   0.32063   0.00000  Uiso   1.00
C654   C     0.13306   0.75999   0.26268   0.00000  Uiso   1.00
C655   C     0.14088   0.78457   0.38007   0.00000  Uiso   1.00
C656   C     0.12755   0.81520   0.33013   0.00000  Uiso   1.00
C657   C     0.11223   0.86906   0.31131   0.00000  Uiso   1.00
C658   C     0.10732   0.73542   0.99322   0.00000  Uiso   1.00
C659   C     0.15610   0.72098   0.97899   0.00000  Uiso   1.00
C660   C     0.17931   0.71390   0.82615   0.00000  Uiso   1.00
C661   C     0.22371   0.70079   0.84059   0.00000  Uiso   1.00
C662   C     0.07898   0.71216   0.10334   0.00000  Uiso   1.00
C663   C     0.03735   0.69767   0.05506   0.00000  Uiso   1.00
C664   C     0.01682   0.67713   0.17419   0.00000  Uiso   1.00
C665   C     0.11264   0.76579   0.10112   0.00000  Uiso   1.00
C666   C     0.09929   0.79639   0.05100   0.00000  Uiso   1.00
C667   C     0.10709   0.82102   0.16829   0.00000  Uiso   1.00
H668   H     0.16080   0.72021   0.41641   0.00000  Uiso   1.00
H669   H     0.23668   0.69758   0.28026   0.00000  Uiso   1.00
H670   H     0.09474   0.68136   0.50914   0.00000  Uiso   1.00
H671   H     0.15668   0.78007   0.50507   0.00000  Uiso   1.00
H672   H     0.31180   0.67504   0.05806   0.00000  Uiso   1.00
H673   H     0.01249   0.64084   0.54069   0.00000  Uiso   1.00
H674   H     0.14310   0.84899   0.53213   0.00000  Uiso   1.00
H675   H     0.09143   0.73994   0.86744   0.00000  Uiso   1.00
H676   H     0.16350   0.71839   0.70115   0.00000  Uiso   1.00
H677   H     0.02156   0.70216   0.93004   0.00000  Uiso   1.00
H678   H     0.08349   0.80088   0.92597   0.00000  Uiso   1.00
H679   H     0.25240   0.69193   0.58804   0.00000  Uiso   1.00
H680   H     0.95309   0.65772   0.07067   0.00000  Uiso   1.00
H681   H     0.08370   0.86588   0.06211   0.00000  Uiso   1.00
O682   O     0.33076   0.66894   0.72357   0.00000  Uiso   1.00
O683   O     0.93808   0.62407   0.35677   0.00000  Uiso   1.00
O684   O     0.10943   0.89717   0.34554   0.00000  Uiso   1.00
N685   N     0.28793   0.68198   0.97026   0.00000  Uiso   1.00
N686   N     0.00810   0.64999   0.42148   0.00000  Uiso   1.00
N687   N     0.13019   0.84460   0.41350   0.00000  Uiso   1.00
N688   N     0.25597   0.69107   0.71734   0.00000  Uiso   1.00
N689   N     0.97614   0.65908   0.16856   0.00000  Uiso   1.00
N690   N     0.09823   0.85369   0.16058   0.00000  Uiso   1.00
C691   C     0.14491   0.22473   0.79064   0.00000  Uiso   1.00
C692   C     0.17652   0.21518   0.64054   0.00000  Uiso   1.00
C693   C     0.22090   0.20207   0.65521   0.00000  Uiso   1.00
C694   C     0.24417   0.19497   0.50244   0.00000  Uiso   1.00
C695   C     0.29634   0.17923   0.29394   0.00000  Uiso   1.00
C696   C     0.09940   0.20636   0.76488   0.00000  Uiso   1.00
C697   C     0.07893   0.18584   0.88413   0.00000  Uiso   1.00
C698   C     0.03728   0.17132   0.83603   0.00000  Uiso   1.00
C699   C     0.96970   0.14191   0.82063   0.00000  Uiso   1.00
C700   C     0.13306   0.25999   0.76268   0.00000  Uiso   1.00
C701   C     0.14088   0.28457   0.88007   0.00000  Uiso   1.00
C702   C     0.12755   0.31520   0.83013   0.00000  Uiso   1.00
C703   C     0.11223   0.36906   0.81131   0.00000  Uiso   1.00
C704   C     0.10732   0.23542   0.49322   0.00000  Uiso   1.00
C705   C     0.15610   0.22098   0.47899   0.00000  Uiso   1.00
C706   C     0.17931   0.21390   0.32615   0.00000  Uiso   1.00
C707   C     0.22371   0.20079   0.34059   0.00000  Uiso   1.00
C708   C     0.07898   0.21216   0.60334   0.00000  Uiso   1.00
C709   C     0.03735   0.19767   0.55506   0.00000  Uiso   1.00
C710   C     0.01682   0.17713   0.67419   0.00000  Uiso   1.00
C711   C     0.11264   0.26579   0.60112   0.00000  Uiso   1.00
C712   C     0.09929   0.29639   0.55100   0.00000  Uiso   1.00
C713   C     0.10709   0.32102   0.66829   0.00000  Uiso   1.00
H714   H     0.16080   0.22021   0.91641   0.00000  Uiso   1.00
H715   H     0.23668   0.19758   0.78026   0.00000  Uiso   1.00
H716   H     0.09474   0.18136   0.00914   0.00000  Uiso   1.00
H717   H     0.15668   0.28007   0.00507   0.00000  Uiso   1.00
H718   H     0.31180   0.17504   0.55806   0.00000  Uiso   1.00
H719   H     0.01249   0.14084   0.04069   0.00000  Uiso   1.00
H720   H     0.14310   0.34899   0.03213   0.00000  Uiso   1.00
H721   H     0.09143   0.23994   0.36744   0.00000  Uiso   1.00
H722   H     0.16350   0.21839   0.20115   0.00000  Uiso   1.00
H723   H     0.02156   0.20216   0.43004   0.00000  Uiso   1.00
H724   H     0.08349   0.30088   0.42597   0.00000  Uiso   1.00
H725   H     0.25240   0.19193   0.08804   0.00000  Uiso   1.00
H726   H     0.95309   0.15772   0.57067   0.00000  Uiso   1.00
H727   H     0.08370   0.36588   0.56211   0.00000  Uiso   1.00
O728   O     0.33076   0.16894   0.22357   0.00000  Uiso   1.00
O729   O     0.93808   0.12407   0.85677   0.00000  Uiso   1.00
O730   O     0.10943   0.39717   0.84554   0.00000  Uiso   1.00
N731   N     0.28793   0.18198   0.47026   0.00000  Uiso   1.00
N732   N     0.00810   0.14999   0.92148   0.00000  Uiso   1.00
N733   N     0.13019   0.34460   0.91350   0.00000  Uiso   1.00
N734   N     0.25597   0.19107   0.21734   0.00000  Uiso   1.00
N735   N     0.97614   0.15908   0.66856   0.00000  Uiso   1.00
N736   N     0.09823   0.35369   0.66058   0.00000  Uiso   1.00
