data_job_00747
_audit_creation_date              2018-12-19
_audit_creation_method            'Materials Studio'
_symmetry_space_group_name_H-M    'P1'
_symmetry_Int_Tables_number       1
_symmetry_cell_setting            triclinic
loop_
_symmetry_equiv_pos_as_xyz
  x,y,z
_cell_length_a                    33.3347
_cell_length_b                    40.4245
_cell_length_c                    7.3064
_cell_angle_alpha                 90.0000
_cell_angle_beta                  90.0000
_cell_angle_gamma                 90.0000
loop_
_atom_site_label
_atom_site_type_symbol
_atom_site_fract_x
_atom_site_fract_y
_atom_site_fract_z
_atom_site_U_iso_or_equiv
_atom_site_adp_type
_atom_site_occupancy
C1     C     0.17574   0.40969   0.47862   0.00000  Uiso   1.00
C2     C     0.21071   0.42893   0.39639   0.00000  Uiso   1.00
C3     C     0.23664   0.44952   0.49185   0.00000  Uiso   1.00
C4     C     0.26673   0.46490   0.39177   0.00000  Uiso   1.00
C5     C     0.32042   0.49556   0.29279   0.00000  Uiso   1.00
C6     C     0.13859   0.42026   0.37174   0.00000  Uiso   1.00
C7     C     0.10387   0.43354   0.44650   0.00000  Uiso   1.00
C8     C     0.07325   0.44162   0.32566   0.00000  Uiso   1.00
C9     C     0.01496   0.45878   0.18843   0.00000  Uiso   1.00
C10    C     0.18294   0.37351   0.42957   0.00000  Uiso   1.00
C11    C     0.18550   0.34749   0.55293   0.00000  Uiso   1.00
C12    C     0.19221   0.31620   0.48077   0.00000  Uiso   1.00
C13    C     0.20277   0.26078   0.43332   0.00000  Uiso   1.00
C14    C     0.18308   0.40039   0.13111   0.00000  Uiso   1.00
C15    C     0.21470   0.42388   0.20764   0.00000  Uiso   1.00
C16    C     0.24477   0.43923   0.10738   0.00000  Uiso   1.00
C17    C     0.27073   0.45984   0.20268   0.00000  Uiso   1.00
C18    C     0.14258   0.41521   0.18300   0.00000  Uiso   1.00
C19    C     0.11200   0.42326   0.06203   0.00000  Uiso   1.00
C20    C     0.07725   0.43656   0.13657   0.00000  Uiso   1.00
C21    C     0.18693   0.36846   0.24082   0.00000  Uiso   1.00
C22    C     0.19363   0.33720   0.16845   0.00000  Uiso   1.00
C23    C     0.19620   0.31114   0.29168   0.00000  Uiso   1.00
H24    H     0.17263   0.41362   0.62556   0.00000  Uiso   1.00
H25    H     0.23353   0.45343   0.63792   0.00000  Uiso   1.00
H26    H     0.10079   0.43745   0.59257   0.00000  Uiso   1.00
H27    H     0.18241   0.35141   0.69898   0.00000  Uiso   1.00
H28    H     0.30281   0.49534   0.56837   0.00000  Uiso   1.00
H29    H     0.02292   0.46164   0.47275   0.00000  Uiso   1.00
H30    H     0.19501   0.28020   0.69715   0.00000  Uiso   1.00
H31    H     0.18619   0.39646   0.98416   0.00000  Uiso   1.00
H32    H     0.24785   0.43532   0.96132   0.00000  Uiso   1.00
H33    H     0.11510   0.41934   0.91597   0.00000  Uiso   1.00
H34    H     0.19672   0.33330   0.02238   0.00000  Uiso   1.00
H35    H     0.31443   0.48064   0.01921   0.00000  Uiso   1.00
H36    H     0.03453   0.44694   0.92360   0.00000  Uiso   1.00
H37    H     0.20663   0.26550   0.14799   0.00000  Uiso   1.00
O38    O     0.34893   0.51387   0.29033   0.00000  Uiso   1.00
O39    O     0.98171   0.46965   0.16489   0.00000  Uiso   1.00
O40    O     0.20750   0.23161   0.45929   0.00000  Uiso   1.00
N41    N     0.29709   0.48654   0.44227   0.00000  Uiso   1.00
N42    N     0.03540   0.45504   0.35287   0.00000  Uiso   1.00
N43    N     0.19629   0.28541   0.56266   0.00000  Uiso   1.00
N44    N     0.30334   0.47863   0.14677   0.00000  Uiso   1.00
N45    N     0.04165   0.44713   0.05737   0.00000  Uiso   1.00
N46    N     0.20254   0.27750   0.26716   0.00000  Uiso   1.00
C47    C     0.17574   0.90969   0.97862   0.00000  Uiso   1.00
C48    C     0.21071   0.92893   0.89639   0.00000  Uiso   1.00
C49    C     0.23664   0.94952   0.99185   0.00000  Uiso   1.00
C50    C     0.26673   0.96490   0.89177   0.00000  Uiso   1.00
C51    C     0.32042   0.99556   0.79279   0.00000  Uiso   1.00
C52    C     0.13859   0.92026   0.87174   0.00000  Uiso   1.00
C53    C     0.10387   0.93354   0.94650   0.00000  Uiso   1.00
C54    C     0.07325   0.94162   0.82566   0.00000  Uiso   1.00
C55    C     0.01496   0.95878   0.68843   0.00000  Uiso   1.00
C56    C     0.18294   0.87351   0.92957   0.00000  Uiso   1.00
C57    C     0.18550   0.84749   0.05293   0.00000  Uiso   1.00
C58    C     0.19221   0.81620   0.98077   0.00000  Uiso   1.00
C59    C     0.20277   0.76078   0.93332   0.00000  Uiso   1.00
C60    C     0.18308   0.90039   0.63111   0.00000  Uiso   1.00
C61    C     0.21470   0.92388   0.70764   0.00000  Uiso   1.00
C62    C     0.24477   0.93923   0.60738   0.00000  Uiso   1.00
C63    C     0.27073   0.95984   0.70268   0.00000  Uiso   1.00
C64    C     0.14258   0.91521   0.68300   0.00000  Uiso   1.00
C65    C     0.11200   0.92326   0.56203   0.00000  Uiso   1.00
C66    C     0.07725   0.93656   0.63657   0.00000  Uiso   1.00
C67    C     0.18693   0.86846   0.74082   0.00000  Uiso   1.00
C68    C     0.19363   0.83720   0.66845   0.00000  Uiso   1.00
C69    C     0.19620   0.81114   0.79168   0.00000  Uiso   1.00
H70    H     0.17263   0.91362   0.12556   0.00000  Uiso   1.00
H71    H     0.23353   0.95343   0.13792   0.00000  Uiso   1.00
H72    H     0.10079   0.93745   0.09257   0.00000  Uiso   1.00
H73    H     0.18241   0.85141   0.19898   0.00000  Uiso   1.00
H74    H     0.30281   0.99534   0.06837   0.00000  Uiso   1.00
H75    H     0.02292   0.96164   0.97275   0.00000  Uiso   1.00
H76    H     0.19501   0.78020   0.19715   0.00000  Uiso   1.00
H77    H     0.18619   0.89646   0.48416   0.00000  Uiso   1.00
H78    H     0.24785   0.93532   0.46132   0.00000  Uiso   1.00
H79    H     0.11510   0.91934   0.41597   0.00000  Uiso   1.00
H80    H     0.19672   0.83330   0.52238   0.00000  Uiso   1.00
H81    H     0.31443   0.98064   0.51921   0.00000  Uiso   1.00
H82    H     0.03453   0.94694   0.42360   0.00000  Uiso   1.00
H83    H     0.20663   0.76550   0.64799   0.00000  Uiso   1.00
O84    O     0.34893   0.01387   0.79033   0.00000  Uiso   1.00
O85    O     0.98171   0.96965   0.66489   0.00000  Uiso   1.00
O86    O     0.20750   0.73161   0.95929   0.00000  Uiso   1.00
N87    N     0.29709   0.98654   0.94227   0.00000  Uiso   1.00
N88    N     0.03540   0.95504   0.85287   0.00000  Uiso   1.00
N89    N     0.19629   0.78541   0.06266   0.00000  Uiso   1.00
N90    N     0.30334   0.97863   0.64677   0.00000  Uiso   1.00
N91    N     0.04165   0.94713   0.55737   0.00000  Uiso   1.00
N92    N     0.20254   0.77750   0.76716   0.00000  Uiso   1.00
C93    C     0.67574   0.40969   0.97862   0.00000  Uiso   1.00
C94    C     0.71071   0.42893   0.89639   0.00000  Uiso   1.00
C95    C     0.73664   0.44952   0.99185   0.00000  Uiso   1.00
C96    C     0.76673   0.46490   0.89177   0.00000  Uiso   1.00
C97    C     0.82042   0.49556   0.79279   0.00000  Uiso   1.00
C98    C     0.63859   0.42026   0.87174   0.00000  Uiso   1.00
C99    C     0.60387   0.43354   0.94650   0.00000  Uiso   1.00
C100   C     0.57325   0.44162   0.82566   0.00000  Uiso   1.00
C101   C     0.51496   0.45878   0.68843   0.00000  Uiso   1.00
C102   C     0.68294   0.37351   0.92957   0.00000  Uiso   1.00
C103   C     0.68550   0.34749   0.05293   0.00000  Uiso   1.00
C104   C     0.69221   0.31620   0.98077   0.00000  Uiso   1.00
C105   C     0.70277   0.26078   0.93332   0.00000  Uiso   1.00
C106   C     0.68308   0.40039   0.63111   0.00000  Uiso   1.00
C107   C     0.71470   0.42388   0.70764   0.00000  Uiso   1.00
C108   C     0.74477   0.43923   0.60738   0.00000  Uiso   1.00
C109   C     0.77073   0.45984   0.70268   0.00000  Uiso   1.00
C110   C     0.64258   0.41521   0.68300   0.00000  Uiso   1.00
C111   C     0.61200   0.42326   0.56203   0.00000  Uiso   1.00
C112   C     0.57725   0.43656   0.63657   0.00000  Uiso   1.00
C113   C     0.68693   0.36846   0.74082   0.00000  Uiso   1.00
C114   C     0.69363   0.33720   0.66845   0.00000  Uiso   1.00
C115   C     0.69620   0.31114   0.79168   0.00000  Uiso   1.00
H116   H     0.67263   0.41362   0.12556   0.00000  Uiso   1.00
H117   H     0.73353   0.45343   0.13792   0.00000  Uiso   1.00
H118   H     0.60079   0.43745   0.09257   0.00000  Uiso   1.00
H119   H     0.68241   0.35141   0.19898   0.00000  Uiso   1.00
H120   H     0.80281   0.49534   0.06837   0.00000  Uiso   1.00
H121   H     0.52292   0.46164   0.97275   0.00000  Uiso   1.00
H122   H     0.69501   0.28020   0.19715   0.00000  Uiso   1.00
H123   H     0.68619   0.39646   0.48416   0.00000  Uiso   1.00
H124   H     0.74785   0.43532   0.46132   0.00000  Uiso   1.00
H125   H     0.61510   0.41934   0.41597   0.00000  Uiso   1.00
H126   H     0.69672   0.33330   0.52238   0.00000  Uiso   1.00
H127   H     0.81443   0.48064   0.51921   0.00000  Uiso   1.00
H128   H     0.53453   0.44694   0.42360   0.00000  Uiso   1.00
H129   H     0.70663   0.26550   0.64799   0.00000  Uiso   1.00
O130   O     0.84893   0.51387   0.79033   0.00000  Uiso   1.00
O131   O     0.48171   0.46965   0.66489   0.00000  Uiso   1.00
O132   O     0.70750   0.23161   0.95929   0.00000  Uiso   1.00
N133   N     0.79709   0.48654   0.94227   0.00000  Uiso   1.00
N134   N     0.53540   0.45504   0.85287   0.00000  Uiso   1.00
N135   N     0.69629   0.28541   0.06266   0.00000  Uiso   1.00
N136   N     0.80334   0.47863   0.64677   0.00000  Uiso   1.00
N137   N     0.54165   0.44713   0.55737   0.00000  Uiso   1.00
N138   N     0.70254   0.27750   0.76716   0.00000  Uiso   1.00
C139   C     0.67574   0.90969   0.47862   0.00000  Uiso   1.00
C140   C     0.71071   0.92893   0.39639   0.00000  Uiso   1.00
C141   C     0.73664   0.94952   0.49185   0.00000  Uiso   1.00
C142   C     0.76673   0.96490   0.39177   0.00000  Uiso   1.00
C143   C     0.82042   0.99556   0.29279   0.00000  Uiso   1.00
C144   C     0.63859   0.92026   0.37174   0.00000  Uiso   1.00
C145   C     0.60387   0.93354   0.44650   0.00000  Uiso   1.00
C146   C     0.57325   0.94162   0.32566   0.00000  Uiso   1.00
C147   C     0.51496   0.95878   0.18843   0.00000  Uiso   1.00
C148   C     0.68294   0.87351   0.42957   0.00000  Uiso   1.00
C149   C     0.68550   0.84749   0.55293   0.00000  Uiso   1.00
C150   C     0.69221   0.81620   0.48077   0.00000  Uiso   1.00
C151   C     0.70277   0.76078   0.43332   0.00000  Uiso   1.00
C152   C     0.68308   0.90039   0.13111   0.00000  Uiso   1.00
C153   C     0.71470   0.92388   0.20764   0.00000  Uiso   1.00
C154   C     0.74477   0.93923   0.10738   0.00000  Uiso   1.00
C155   C     0.77073   0.95984   0.20268   0.00000  Uiso   1.00
C156   C     0.64258   0.91521   0.18300   0.00000  Uiso   1.00
C157   C     0.61200   0.92326   0.06203   0.00000  Uiso   1.00
C158   C     0.57725   0.93656   0.13657   0.00000  Uiso   1.00
C159   C     0.68693   0.86846   0.24082   0.00000  Uiso   1.00
C160   C     0.69363   0.83720   0.16845   0.00000  Uiso   1.00
C161   C     0.69620   0.81114   0.29168   0.00000  Uiso   1.00
H162   H     0.67263   0.91362   0.62556   0.00000  Uiso   1.00
H163   H     0.73353   0.95343   0.63792   0.00000  Uiso   1.00
H164   H     0.60079   0.93745   0.59257   0.00000  Uiso   1.00
H165   H     0.68241   0.85141   0.69898   0.00000  Uiso   1.00
H166   H     0.80281   0.99534   0.56837   0.00000  Uiso   1.00
H167   H     0.52292   0.96164   0.47275   0.00000  Uiso   1.00
H168   H     0.69501   0.78020   0.69715   0.00000  Uiso   1.00
H169   H     0.68619   0.89646   0.98416   0.00000  Uiso   1.00
H170   H     0.74785   0.93532   0.96132   0.00000  Uiso   1.00
H171   H     0.61510   0.91934   0.91597   0.00000  Uiso   1.00
H172   H     0.69672   0.83330   0.02238   0.00000  Uiso   1.00
H173   H     0.81443   0.98064   0.01921   0.00000  Uiso   1.00
H174   H     0.53453   0.94694   0.92360   0.00000  Uiso   1.00
H175   H     0.70663   0.76550   0.14799   0.00000  Uiso   1.00
O176   O     0.84893   0.01387   0.29033   0.00000  Uiso   1.00
O177   O     0.48171   0.96965   0.16489   0.00000  Uiso   1.00
O178   O     0.70750   0.73161   0.45929   0.00000  Uiso   1.00
N179   N     0.79709   0.98654   0.44227   0.00000  Uiso   1.00
N180   N     0.53540   0.95504   0.35287   0.00000  Uiso   1.00
N181   N     0.69629   0.78541   0.56266   0.00000  Uiso   1.00
N182   N     0.80334   0.97863   0.14677   0.00000  Uiso   1.00
N183   N     0.54165   0.94713   0.05737   0.00000  Uiso   1.00
N184   N     0.70254   0.77750   0.26716   0.00000  Uiso   1.00
C185   C     0.82426   0.59031   0.47862   0.00000  Uiso   1.00
C186   C     0.78929   0.57107   0.39639   0.00000  Uiso   1.00
C187   C     0.76336   0.55048   0.49185   0.00000  Uiso   1.00
C188   C     0.73327   0.53510   0.39177   0.00000  Uiso   1.00
C189   C     0.67958   0.50444   0.29279   0.00000  Uiso   1.00
C190   C     0.86141   0.57974   0.37174   0.00000  Uiso   1.00
C191   C     0.89613   0.56646   0.44650   0.00000  Uiso   1.00
C192   C     0.92675   0.55838   0.32566   0.00000  Uiso   1.00
C193   C     0.98504   0.54122   0.18843   0.00000  Uiso   1.00
C194   C     0.81706   0.62649   0.42957   0.00000  Uiso   1.00
C195   C     0.81450   0.65251   0.55293   0.00000  Uiso   1.00
C196   C     0.80779   0.68380   0.48077   0.00000  Uiso   1.00
C197   C     0.79723   0.73922   0.43332   0.00000  Uiso   1.00
C198   C     0.81692   0.59961   0.13111   0.00000  Uiso   1.00
C199   C     0.78530   0.57612   0.20764   0.00000  Uiso   1.00
C200   C     0.75523   0.56077   0.10738   0.00000  Uiso   1.00
C201   C     0.72927   0.54016   0.20268   0.00000  Uiso   1.00
C202   C     0.85742   0.58479   0.18300   0.00000  Uiso   1.00
C203   C     0.88800   0.57674   0.06203   0.00000  Uiso   1.00
C204   C     0.92275   0.56344   0.13657   0.00000  Uiso   1.00
C205   C     0.81307   0.63154   0.24082   0.00000  Uiso   1.00
C206   C     0.80637   0.66280   0.16845   0.00000  Uiso   1.00
C207   C     0.80380   0.68886   0.29168   0.00000  Uiso   1.00
H208   H     0.82737   0.58638   0.62556   0.00000  Uiso   1.00
H209   H     0.76647   0.54657   0.63792   0.00000  Uiso   1.00
H210   H     0.89921   0.56255   0.59257   0.00000  Uiso   1.00
H211   H     0.81759   0.64859   0.69898   0.00000  Uiso   1.00
H212   H     0.69719   0.50466   0.56837   0.00000  Uiso   1.00
H213   H     0.97708   0.53836   0.47275   0.00000  Uiso   1.00
H214   H     0.80499   0.71980   0.69715   0.00000  Uiso   1.00
H215   H     0.81381   0.60354   0.98416   0.00000  Uiso   1.00
H216   H     0.75215   0.56468   0.96132   0.00000  Uiso   1.00
H217   H     0.88490   0.58066   0.91597   0.00000  Uiso   1.00
H218   H     0.80328   0.66670   0.02238   0.00000  Uiso   1.00
H219   H     0.68557   0.51936   0.01921   0.00000  Uiso   1.00
H220   H     0.96547   0.55306   0.92360   0.00000  Uiso   1.00
H221   H     0.79337   0.73450   0.14799   0.00000  Uiso   1.00
O222   O     0.65107   0.48613   0.29033   0.00000  Uiso   1.00
O223   O     0.01829   0.53035   0.16489   0.00000  Uiso   1.00
O224   O     0.79250   0.76839   0.45929   0.00000  Uiso   1.00
N225   N     0.70291   0.51346   0.44227   0.00000  Uiso   1.00
N226   N     0.96460   0.54496   0.35287   0.00000  Uiso   1.00
N227   N     0.80371   0.71459   0.56266   0.00000  Uiso   1.00
N228   N     0.69666   0.52137   0.14677   0.00000  Uiso   1.00
N229   N     0.95835   0.55287   0.05737   0.00000  Uiso   1.00
N230   N     0.79746   0.72250   0.26716   0.00000  Uiso   1.00
C231   C     0.82426   0.09031   0.97862   0.00000  Uiso   1.00
C232   C     0.78929   0.07107   0.89639   0.00000  Uiso   1.00
C233   C     0.76336   0.05048   0.99185   0.00000  Uiso   1.00
C234   C     0.73327   0.03510   0.89177   0.00000  Uiso   1.00
C235   C     0.67958   0.00444   0.79279   0.00000  Uiso   1.00
C236   C     0.86141   0.07974   0.87174   0.00000  Uiso   1.00
C237   C     0.89613   0.06646   0.94650   0.00000  Uiso   1.00
C238   C     0.92675   0.05838   0.82566   0.00000  Uiso   1.00
C239   C     0.98504   0.04122   0.68843   0.00000  Uiso   1.00
C240   C     0.81706   0.12649   0.92957   0.00000  Uiso   1.00
C241   C     0.81450   0.15251   0.05293   0.00000  Uiso   1.00
C242   C     0.80779   0.18380   0.98077   0.00000  Uiso   1.00
C243   C     0.79723   0.23922   0.93332   0.00000  Uiso   1.00
C244   C     0.81692   0.09961   0.63111   0.00000  Uiso   1.00
C245   C     0.78530   0.07612   0.70764   0.00000  Uiso   1.00
C246   C     0.75523   0.06077   0.60738   0.00000  Uiso   1.00
C247   C     0.72927   0.04016   0.70268   0.00000  Uiso   1.00
C248   C     0.85742   0.08479   0.68300   0.00000  Uiso   1.00
C249   C     0.88800   0.07674   0.56203   0.00000  Uiso   1.00
C250   C     0.92275   0.06344   0.63657   0.00000  Uiso   1.00
C251   C     0.81307   0.13154   0.74082   0.00000  Uiso   1.00
C252   C     0.80637   0.16280   0.66845   0.00000  Uiso   1.00
C253   C     0.80380   0.18886   0.79168   0.00000  Uiso   1.00
H254   H     0.82737   0.08638   0.12556   0.00000  Uiso   1.00
H255   H     0.76647   0.04657   0.13792   0.00000  Uiso   1.00
H256   H     0.89921   0.06255   0.09257   0.00000  Uiso   1.00
H257   H     0.81759   0.14859   0.19898   0.00000  Uiso   1.00
H258   H     0.69719   0.00466   0.06837   0.00000  Uiso   1.00
H259   H     0.97708   0.03836   0.97275   0.00000  Uiso   1.00
H260   H     0.80499   0.21980   0.19715   0.00000  Uiso   1.00
H261   H     0.81381   0.10354   0.48416   0.00000  Uiso   1.00
H262   H     0.75215   0.06468   0.46132   0.00000  Uiso   1.00
H263   H     0.88490   0.08066   0.41597   0.00000  Uiso   1.00
H264   H     0.80328   0.16670   0.52238   0.00000  Uiso   1.00
H265   H     0.68557   0.01936   0.51921   0.00000  Uiso   1.00
H266   H     0.96547   0.05306   0.42360   0.00000  Uiso   1.00
H267   H     0.79337   0.23450   0.64799   0.00000  Uiso   1.00
O268   O     0.65107   0.98613   0.79033   0.00000  Uiso   1.00
O269   O     0.01829   0.03035   0.66489   0.00000  Uiso   1.00
O270   O     0.79250   0.26839   0.95929   0.00000  Uiso   1.00
N271   N     0.70291   0.01346   0.94227   0.00000  Uiso   1.00
N272   N     0.96460   0.04496   0.85287   0.00000  Uiso   1.00
N273   N     0.80371   0.21459   0.06266   0.00000  Uiso   1.00
N274   N     0.69666   0.02137   0.64677   0.00000  Uiso   1.00
N275   N     0.95835   0.05287   0.55737   0.00000  Uiso   1.00
N276   N     0.79746   0.22250   0.76716   0.00000  Uiso   1.00
C277   C     0.32426   0.59031   0.97862   0.00000  Uiso   1.00
C278   C     0.28929   0.57107   0.89639   0.00000  Uiso   1.00
C279   C     0.26336   0.55048   0.99185   0.00000  Uiso   1.00
C280   C     0.23327   0.53510   0.89177   0.00000  Uiso   1.00
C281   C     0.17958   0.50444   0.79279   0.00000  Uiso   1.00
C282   C     0.36141   0.57974   0.87174   0.00000  Uiso   1.00
C283   C     0.39613   0.56646   0.94650   0.00000  Uiso   1.00
C284   C     0.42675   0.55838   0.82566   0.00000  Uiso   1.00
C285   C     0.48504   0.54122   0.68843   0.00000  Uiso   1.00
C286   C     0.31706   0.62649   0.92957   0.00000  Uiso   1.00
C287   C     0.31450   0.65251   0.05293   0.00000  Uiso   1.00
C288   C     0.30779   0.68380   0.98077   0.00000  Uiso   1.00
C289   C     0.29723   0.73922   0.93332   0.00000  Uiso   1.00
C290   C     0.31692   0.59961   0.63111   0.00000  Uiso   1.00
C291   C     0.28530   0.57612   0.70764   0.00000  Uiso   1.00
C292   C     0.25523   0.56077   0.60738   0.00000  Uiso   1.00
C293   C     0.22927   0.54016   0.70268   0.00000  Uiso   1.00
C294   C     0.35742   0.58479   0.68300   0.00000  Uiso   1.00
C295   C     0.38800   0.57674   0.56203   0.00000  Uiso   1.00
C296   C     0.42275   0.56344   0.63657   0.00000  Uiso   1.00
C297   C     0.31307   0.63154   0.74082   0.00000  Uiso   1.00
C298   C     0.30637   0.66280   0.66845   0.00000  Uiso   1.00
C299   C     0.30380   0.68886   0.79168   0.00000  Uiso   1.00
H300   H     0.32737   0.58638   0.12556   0.00000  Uiso   1.00
H301   H     0.26647   0.54657   0.13792   0.00000  Uiso   1.00
H302   H     0.39921   0.56255   0.09257   0.00000  Uiso   1.00
H303   H     0.31759   0.64859   0.19898   0.00000  Uiso   1.00
H304   H     0.19719   0.50466   0.06837   0.00000  Uiso   1.00
H305   H     0.47708   0.53836   0.97275   0.00000  Uiso   1.00
H306   H     0.30499   0.71980   0.19715   0.00000  Uiso   1.00
H307   H     0.31381   0.60354   0.48416   0.00000  Uiso   1.00
H308   H     0.25215   0.56468   0.46132   0.00000  Uiso   1.00
H309   H     0.38490   0.58066   0.41597   0.00000  Uiso   1.00
H310   H     0.30328   0.66670   0.52238   0.00000  Uiso   1.00
H311   H     0.18557   0.51936   0.51921   0.00000  Uiso   1.00
H312   H     0.46547   0.55306   0.42360   0.00000  Uiso   1.00
H313   H     0.29337   0.73450   0.64799   0.00000  Uiso   1.00
O314   O     0.15107   0.48613   0.79033   0.00000  Uiso   1.00
O315   O     0.51829   0.53035   0.66489   0.00000  Uiso   1.00
O316   O     0.29250   0.76839   0.95929   0.00000  Uiso   1.00
N317   N     0.20291   0.51346   0.94227   0.00000  Uiso   1.00
N318   N     0.46460   0.54496   0.85287   0.00000  Uiso   1.00
N319   N     0.30371   0.71459   0.06266   0.00000  Uiso   1.00
N320   N     0.19666   0.52137   0.64677   0.00000  Uiso   1.00
N321   N     0.45835   0.55287   0.55737   0.00000  Uiso   1.00
N322   N     0.29746   0.72250   0.76716   0.00000  Uiso   1.00
C323   C     0.32426   0.09031   0.47862   0.00000  Uiso   1.00
C324   C     0.28929   0.07107   0.39639   0.00000  Uiso   1.00
C325   C     0.26336   0.05048   0.49185   0.00000  Uiso   1.00
C326   C     0.23327   0.03510   0.39177   0.00000  Uiso   1.00
C327   C     0.17958   0.00444   0.29279   0.00000  Uiso   1.00
C328   C     0.36141   0.07974   0.37174   0.00000  Uiso   1.00
C329   C     0.39613   0.06646   0.44650   0.00000  Uiso   1.00
C330   C     0.42675   0.05838   0.32566   0.00000  Uiso   1.00
C331   C     0.48504   0.04122   0.18843   0.00000  Uiso   1.00
C332   C     0.31706   0.12649   0.42957   0.00000  Uiso   1.00
C333   C     0.31450   0.15251   0.55293   0.00000  Uiso   1.00
C334   C     0.30779   0.18380   0.48077   0.00000  Uiso   1.00
C335   C     0.29723   0.23922   0.43332   0.00000  Uiso   1.00
C336   C     0.31692   0.09961   0.13111   0.00000  Uiso   1.00
C337   C     0.28530   0.07612   0.20764   0.00000  Uiso   1.00
C338   C     0.25523   0.06077   0.10738   0.00000  Uiso   1.00
C339   C     0.22927   0.04016   0.20268   0.00000  Uiso   1.00
C340   C     0.35742   0.08479   0.18300   0.00000  Uiso   1.00
C341   C     0.38800   0.07674   0.06203   0.00000  Uiso   1.00
C342   C     0.42275   0.06344   0.13657   0.00000  Uiso   1.00
C343   C     0.31307   0.13154   0.24082   0.00000  Uiso   1.00
C344   C     0.30637   0.16280   0.16845   0.00000  Uiso   1.00
C345   C     0.30380   0.18886   0.29168   0.00000  Uiso   1.00
H346   H     0.32737   0.08638   0.62556   0.00000  Uiso   1.00
H347   H     0.26647   0.04657   0.63792   0.00000  Uiso   1.00
H348   H     0.39921   0.06255   0.59257   0.00000  Uiso   1.00
H349   H     0.31759   0.14859   0.69898   0.00000  Uiso   1.00
H350   H     0.19719   0.00466   0.56837   0.00000  Uiso   1.00
H351   H     0.47708   0.03836   0.47275   0.00000  Uiso   1.00
H352   H     0.30499   0.21980   0.69715   0.00000  Uiso   1.00
H353   H     0.31381   0.10354   0.98416   0.00000  Uiso   1.00
H354   H     0.25215   0.06468   0.96132   0.00000  Uiso   1.00
H355   H     0.38490   0.08066   0.91597   0.00000  Uiso   1.00
H356   H     0.30328   0.16670   0.02238   0.00000  Uiso   1.00
H357   H     0.18557   0.01936   0.01921   0.00000  Uiso   1.00
H358   H     0.46547   0.05306   0.92360   0.00000  Uiso   1.00
H359   H     0.29337   0.23450   0.14799   0.00000  Uiso   1.00
O360   O     0.15107   0.98613   0.29033   0.00000  Uiso   1.00
O361   O     0.51829   0.03035   0.16489   0.00000  Uiso   1.00
O362   O     0.29250   0.26839   0.45929   0.00000  Uiso   1.00
N363   N     0.20291   0.01346   0.44227   0.00000  Uiso   1.00
N364   N     0.46460   0.04496   0.35287   0.00000  Uiso   1.00
N365   N     0.30371   0.21459   0.56266   0.00000  Uiso   1.00
N366   N     0.19666   0.02137   0.14677   0.00000  Uiso   1.00
N367   N     0.45835   0.05287   0.05737   0.00000  Uiso   1.00
N368   N     0.29746   0.22250   0.26716   0.00000  Uiso   1.00
C369   C     0.42574   0.84031   0.72862   0.00000  Uiso   1.00
C370   C     0.46071   0.82107   0.64639   0.00000  Uiso   1.00
C371   C     0.48664   0.80048   0.74185   0.00000  Uiso   1.00
C372   C     0.51673   0.78510   0.64177   0.00000  Uiso   1.00
C373   C     0.57042   0.75444   0.54279   0.00000  Uiso   1.00
C374   C     0.38859   0.82974   0.62174   0.00000  Uiso   1.00
C375   C     0.35387   0.81646   0.69650   0.00000  Uiso   1.00
C376   C     0.32325   0.80838   0.57566   0.00000  Uiso   1.00
C377   C     0.26496   0.79122   0.43843   0.00000  Uiso   1.00
C378   C     0.43294   0.87649   0.67957   0.00000  Uiso   1.00
C379   C     0.43550   0.90251   0.80293   0.00000  Uiso   1.00
C380   C     0.44221   0.93380   0.73077   0.00000  Uiso   1.00
C381   C     0.45277   0.98922   0.68332   0.00000  Uiso   1.00
C382   C     0.43308   0.84961   0.38111   0.00000  Uiso   1.00
C383   C     0.46470   0.82612   0.45764   0.00000  Uiso   1.00
C384   C     0.49477   0.81077   0.35738   0.00000  Uiso   1.00
C385   C     0.52073   0.79016   0.45268   0.00000  Uiso   1.00
C386   C     0.39258   0.83479   0.43300   0.00000  Uiso   1.00
C387   C     0.36200   0.82674   0.31203   0.00000  Uiso   1.00
C388   C     0.32725   0.81344   0.38657   0.00000  Uiso   1.00
C389   C     0.43693   0.88154   0.49082   0.00000  Uiso   1.00
C390   C     0.44363   0.91280   0.41845   0.00000  Uiso   1.00
C391   C     0.44620   0.93886   0.54168   0.00000  Uiso   1.00
H392   H     0.42263   0.83638   0.87556   0.00000  Uiso   1.00
H393   H     0.48353   0.79657   0.88792   0.00000  Uiso   1.00
H394   H     0.35079   0.81255   0.84257   0.00000  Uiso   1.00
H395   H     0.43241   0.89859   0.94898   0.00000  Uiso   1.00
H396   H     0.55281   0.75466   0.81837   0.00000  Uiso   1.00
H397   H     0.27292   0.78836   0.72275   0.00000  Uiso   1.00
H398   H     0.44501   0.96980   0.94715   0.00000  Uiso   1.00
H399   H     0.43619   0.85354   0.23416   0.00000  Uiso   1.00
H400   H     0.49785   0.81468   0.21132   0.00000  Uiso   1.00
H401   H     0.36510   0.83066   0.16597   0.00000  Uiso   1.00
H402   H     0.44672   0.91670   0.27238   0.00000  Uiso   1.00
H403   H     0.56443   0.76936   0.26921   0.00000  Uiso   1.00
H404   H     0.28453   0.80306   0.17360   0.00000  Uiso   1.00
H405   H     0.45663   0.98450   0.39799   0.00000  Uiso   1.00
O406   O     0.59893   0.73613   0.54033   0.00000  Uiso   1.00
O407   O     0.23171   0.78035   0.41489   0.00000  Uiso   1.00
O408   O     0.45750   0.01839   0.70929   0.00000  Uiso   1.00
N409   N     0.54709   0.76346   0.69227   0.00000  Uiso   1.00
N410   N     0.28540   0.79496   0.60287   0.00000  Uiso   1.00
N411   N     0.44629   0.96459   0.81266   0.00000  Uiso   1.00
N412   N     0.55334   0.77137   0.39677   0.00000  Uiso   1.00
N413   N     0.29165   0.80287   0.30737   0.00000  Uiso   1.00
N414   N     0.45254   0.97250   0.51716   0.00000  Uiso   1.00
C415   C     0.42574   0.34031   0.22862   0.00000  Uiso   1.00
C416   C     0.46071   0.32107   0.14639   0.00000  Uiso   1.00
C417   C     0.48664   0.30048   0.24185   0.00000  Uiso   1.00
C418   C     0.51673   0.28510   0.14177   0.00000  Uiso   1.00
C419   C     0.57042   0.25444   0.04279   0.00000  Uiso   1.00
C420   C     0.38859   0.32974   0.12174   0.00000  Uiso   1.00
C421   C     0.35387   0.31646   0.19650   0.00000  Uiso   1.00
C422   C     0.32325   0.30838   0.07566   0.00000  Uiso   1.00
C423   C     0.26496   0.29122   0.93843   0.00000  Uiso   1.00
C424   C     0.43294   0.37649   0.17957   0.00000  Uiso   1.00
C425   C     0.43550   0.40251   0.30293   0.00000  Uiso   1.00
C426   C     0.44221   0.43380   0.23077   0.00000  Uiso   1.00
C427   C     0.45277   0.48922   0.18332   0.00000  Uiso   1.00
C428   C     0.43308   0.34961   0.88111   0.00000  Uiso   1.00
C429   C     0.46470   0.32612   0.95764   0.00000  Uiso   1.00
C430   C     0.49477   0.31077   0.85738   0.00000  Uiso   1.00
C431   C     0.52073   0.29016   0.95268   0.00000  Uiso   1.00
C432   C     0.39258   0.33479   0.93300   0.00000  Uiso   1.00
C433   C     0.36200   0.32674   0.81203   0.00000  Uiso   1.00
C434   C     0.32725   0.31344   0.88657   0.00000  Uiso   1.00
C435   C     0.43693   0.38154   0.99082   0.00000  Uiso   1.00
C436   C     0.44363   0.41280   0.91845   0.00000  Uiso   1.00
C437   C     0.44620   0.43886   0.04168   0.00000  Uiso   1.00
H438   H     0.42263   0.33638   0.37556   0.00000  Uiso   1.00
H439   H     0.48353   0.29657   0.38792   0.00000  Uiso   1.00
H440   H     0.35079   0.31255   0.34257   0.00000  Uiso   1.00
H441   H     0.43241   0.39859   0.44898   0.00000  Uiso   1.00
H442   H     0.55281   0.25466   0.31837   0.00000  Uiso   1.00
H443   H     0.27292   0.28836   0.22275   0.00000  Uiso   1.00
H444   H     0.44501   0.46980   0.44715   0.00000  Uiso   1.00
H445   H     0.43619   0.35354   0.73416   0.00000  Uiso   1.00
H446   H     0.49785   0.31468   0.71132   0.00000  Uiso   1.00
H447   H     0.36510   0.33066   0.66597   0.00000  Uiso   1.00
H448   H     0.44672   0.41670   0.77238   0.00000  Uiso   1.00
H449   H     0.56443   0.26936   0.76921   0.00000  Uiso   1.00
H450   H     0.28453   0.30306   0.67360   0.00000  Uiso   1.00
H451   H     0.45663   0.48450   0.89799   0.00000  Uiso   1.00
O452   O     0.59893   0.23613   0.04033   0.00000  Uiso   1.00
O453   O     0.23171   0.28035   0.91489   0.00000  Uiso   1.00
O454   O     0.45750   0.51839   0.20929   0.00000  Uiso   1.00
N455   N     0.54709   0.26346   0.19227   0.00000  Uiso   1.00
N456   N     0.28540   0.29496   0.10287   0.00000  Uiso   1.00
N457   N     0.44629   0.46459   0.31266   0.00000  Uiso   1.00
N458   N     0.55334   0.27137   0.89677   0.00000  Uiso   1.00
N459   N     0.29165   0.30287   0.80737   0.00000  Uiso   1.00
N460   N     0.45254   0.47250   0.01716   0.00000  Uiso   1.00
C461   C     0.92574   0.84031   0.22862   0.00000  Uiso   1.00
C462   C     0.96071   0.82107   0.14639   0.00000  Uiso   1.00
C463   C     0.98664   0.80048   0.24185   0.00000  Uiso   1.00
C464   C     0.01673   0.78510   0.14177   0.00000  Uiso   1.00
C465   C     0.07042   0.75444   0.04279   0.00000  Uiso   1.00
C466   C     0.88859   0.82974   0.12174   0.00000  Uiso   1.00
C467   C     0.85387   0.81646   0.19650   0.00000  Uiso   1.00
C468   C     0.82325   0.80838   0.07566   0.00000  Uiso   1.00
C469   C     0.76496   0.79122   0.93843   0.00000  Uiso   1.00
C470   C     0.93294   0.87649   0.17957   0.00000  Uiso   1.00
C471   C     0.93550   0.90251   0.30293   0.00000  Uiso   1.00
C472   C     0.94221   0.93380   0.23077   0.00000  Uiso   1.00
C473   C     0.95277   0.98922   0.18332   0.00000  Uiso   1.00
C474   C     0.93308   0.84961   0.88111   0.00000  Uiso   1.00
C475   C     0.96470   0.82612   0.95764   0.00000  Uiso   1.00
C476   C     0.99477   0.81077   0.85738   0.00000  Uiso   1.00
C477   C     0.02073   0.79016   0.95268   0.00000  Uiso   1.00
C478   C     0.89258   0.83479   0.93300   0.00000  Uiso   1.00
C479   C     0.86200   0.82674   0.81203   0.00000  Uiso   1.00
C480   C     0.82725   0.81344   0.88657   0.00000  Uiso   1.00
C481   C     0.93693   0.88154   0.99082   0.00000  Uiso   1.00
C482   C     0.94363   0.91280   0.91845   0.00000  Uiso   1.00
C483   C     0.94620   0.93886   0.04168   0.00000  Uiso   1.00
H484   H     0.92263   0.83638   0.37556   0.00000  Uiso   1.00
H485   H     0.98353   0.79657   0.38792   0.00000  Uiso   1.00
H486   H     0.85079   0.81255   0.34257   0.00000  Uiso   1.00
H487   H     0.93241   0.89859   0.44898   0.00000  Uiso   1.00
H488   H     0.05281   0.75466   0.31837   0.00000  Uiso   1.00
H489   H     0.77292   0.78836   0.22275   0.00000  Uiso   1.00
H490   H     0.94501   0.96980   0.44715   0.00000  Uiso   1.00
H491   H     0.93619   0.85354   0.73416   0.00000  Uiso   1.00
H492   H     0.99785   0.81468   0.71132   0.00000  Uiso   1.00
H493   H     0.86510   0.83066   0.66597   0.00000  Uiso   1.00
H494   H     0.94672   0.91670   0.77238   0.00000  Uiso   1.00
H495   H     0.06443   0.76936   0.76921   0.00000  Uiso   1.00
H496   H     0.78453   0.80306   0.67360   0.00000  Uiso   1.00
H497   H     0.95663   0.98450   0.89799   0.00000  Uiso   1.00
O498   O     0.09893   0.73613   0.04033   0.00000  Uiso   1.00
O499   O     0.73171   0.78035   0.91489   0.00000  Uiso   1.00
O500   O     0.95750   0.01839   0.20929   0.00000  Uiso   1.00
N501   N     0.04709   0.76346   0.19227   0.00000  Uiso   1.00
N502   N     0.78540   0.79496   0.10287   0.00000  Uiso   1.00
N503   N     0.94629   0.96459   0.31266   0.00000  Uiso   1.00
N504   N     0.05334   0.77137   0.89677   0.00000  Uiso   1.00
N505   N     0.79165   0.80287   0.80737   0.00000  Uiso   1.00
N506   N     0.95254   0.97250   0.01716   0.00000  Uiso   1.00
C507   C     0.92574   0.34031   0.72862   0.00000  Uiso   1.00
C508   C     0.96071   0.32107   0.64639   0.00000  Uiso   1.00
C509   C     0.98664   0.30048   0.74185   0.00000  Uiso   1.00
C510   C     0.01673   0.28510   0.64177   0.00000  Uiso   1.00
C511   C     0.07042   0.25444   0.54279   0.00000  Uiso   1.00
C512   C     0.88859   0.32974   0.62174   0.00000  Uiso   1.00
C513   C     0.85387   0.31646   0.69650   0.00000  Uiso   1.00
C514   C     0.82325   0.30838   0.57566   0.00000  Uiso   1.00
C515   C     0.76496   0.29122   0.43843   0.00000  Uiso   1.00
C516   C     0.93294   0.37649   0.67957   0.00000  Uiso   1.00
C517   C     0.93550   0.40251   0.80293   0.00000  Uiso   1.00
C518   C     0.94221   0.43380   0.73077   0.00000  Uiso   1.00
C519   C     0.95277   0.48922   0.68332   0.00000  Uiso   1.00
C520   C     0.93308   0.34961   0.38111   0.00000  Uiso   1.00
C521   C     0.96470   0.32612   0.45764   0.00000  Uiso   1.00
C522   C     0.99477   0.31077   0.35738   0.00000  Uiso   1.00
C523   C     0.02073   0.29016   0.45268   0.00000  Uiso   1.00
C524   C     0.89258   0.33479   0.43300   0.00000  Uiso   1.00
C525   C     0.86200   0.32674   0.31203   0.00000  Uiso   1.00
C526   C     0.82725   0.31344   0.38657   0.00000  Uiso   1.00
C527   C     0.93693   0.38154   0.49082   0.00000  Uiso   1.00
C528   C     0.94363   0.41280   0.41845   0.00000  Uiso   1.00
C529   C     0.94620   0.43886   0.54168   0.00000  Uiso   1.00
H530   H     0.92263   0.33638   0.87556   0.00000  Uiso   1.00
H531   H     0.98353   0.29657   0.88792   0.00000  Uiso   1.00
H532   H     0.85079   0.31255   0.84257   0.00000  Uiso   1.00
H533   H     0.93241   0.39859   0.94898   0.00000  Uiso   1.00
H534   H     0.05281   0.25466   0.81837   0.00000  Uiso   1.00
H535   H     0.77292   0.28836   0.72275   0.00000  Uiso   1.00
H536   H     0.94501   0.46980   0.94715   0.00000  Uiso   1.00
H537   H     0.93619   0.35354   0.23416   0.00000  Uiso   1.00
H538   H     0.99785   0.31468   0.21132   0.00000  Uiso   1.00
H539   H     0.86510   0.33066   0.16597   0.00000  Uiso   1.00
H540   H     0.94672   0.41670   0.27238   0.00000  Uiso   1.00
H541   H     0.06443   0.26936   0.26921   0.00000  Uiso   1.00
H542   H     0.78453   0.30306   0.17360   0.00000  Uiso   1.00
H543   H     0.95663   0.48450   0.39799   0.00000  Uiso   1.00
O544   O     0.09893   0.23613   0.54033   0.00000  Uiso   1.00
O545   O     0.73171   0.28035   0.41489   0.00000  Uiso   1.00
O546   O     0.95750   0.51839   0.70929   0.00000  Uiso   1.00
N547   N     0.04709   0.26346   0.69227   0.00000  Uiso   1.00
N548   N     0.78540   0.29496   0.60287   0.00000  Uiso   1.00
N549   N     0.94629   0.46459   0.81266   0.00000  Uiso   1.00
N550   N     0.05334   0.27137   0.39677   0.00000  Uiso   1.00
N551   N     0.79165   0.30287   0.30737   0.00000  Uiso   1.00
N552   N     0.95254   0.47250   0.51716   0.00000  Uiso   1.00
C553   C     0.07426   0.65969   0.72862   0.00000  Uiso   1.00
C554   C     0.03929   0.67893   0.64639   0.00000  Uiso   1.00
C555   C     0.01336   0.69952   0.74185   0.00000  Uiso   1.00
C556   C     0.98327   0.71490   0.64177   0.00000  Uiso   1.00
C557   C     0.92958   0.74556   0.54279   0.00000  Uiso   1.00
C558   C     0.11141   0.67026   0.62174   0.00000  Uiso   1.00
C559   C     0.14613   0.68354   0.69650   0.00000  Uiso   1.00
C560   C     0.17675   0.69162   0.57566   0.00000  Uiso   1.00
C561   C     0.23504   0.70878   0.43843   0.00000  Uiso   1.00
C562   C     0.06706   0.62351   0.67957   0.00000  Uiso   1.00
C563   C     0.06450   0.59749   0.80293   0.00000  Uiso   1.00
C564   C     0.05779   0.56620   0.73077   0.00000  Uiso   1.00
C565   C     0.04723   0.51078   0.68332   0.00000  Uiso   1.00
C566   C     0.06692   0.65039   0.38111   0.00000  Uiso   1.00
C567   C     0.03530   0.67388   0.45764   0.00000  Uiso   1.00
C568   C     0.00523   0.68923   0.35738   0.00000  Uiso   1.00
C569   C     0.97927   0.70984   0.45268   0.00000  Uiso   1.00
C570   C     0.10742   0.66521   0.43300   0.00000  Uiso   1.00
C571   C     0.13800   0.67326   0.31203   0.00000  Uiso   1.00
C572   C     0.17275   0.68656   0.38657   0.00000  Uiso   1.00
C573   C     0.06307   0.61846   0.49082   0.00000  Uiso   1.00
C574   C     0.05637   0.58720   0.41845   0.00000  Uiso   1.00
C575   C     0.05380   0.56114   0.54168   0.00000  Uiso   1.00
H576   H     0.07737   0.66362   0.87556   0.00000  Uiso   1.00
H577   H     0.01647   0.70343   0.88792   0.00000  Uiso   1.00
H578   H     0.14921   0.68745   0.84257   0.00000  Uiso   1.00
H579   H     0.06759   0.60141   0.94898   0.00000  Uiso   1.00
H580   H     0.94719   0.74534   0.81837   0.00000  Uiso   1.00
H581   H     0.22708   0.71164   0.72275   0.00000  Uiso   1.00
H582   H     0.05499   0.53020   0.94715   0.00000  Uiso   1.00
H583   H     0.06381   0.64646   0.23416   0.00000  Uiso   1.00
H584   H     0.00215   0.68532   0.21132   0.00000  Uiso   1.00
H585   H     0.13490   0.66934   0.16597   0.00000  Uiso   1.00
H586   H     0.05328   0.58330   0.27238   0.00000  Uiso   1.00
H587   H     0.93557   0.73064   0.26921   0.00000  Uiso   1.00
H588   H     0.21547   0.69694   0.17360   0.00000  Uiso   1.00
H589   H     0.04337   0.51550   0.39799   0.00000  Uiso   1.00
O590   O     0.90107   0.76387   0.54033   0.00000  Uiso   1.00
O591   O     0.26829   0.71965   0.41489   0.00000  Uiso   1.00
O592   O     0.04250   0.48161   0.70929   0.00000  Uiso   1.00
N593   N     0.95291   0.73654   0.69227   0.00000  Uiso   1.00
N594   N     0.21460   0.70504   0.60287   0.00000  Uiso   1.00
N595   N     0.05371   0.53541   0.81266   0.00000  Uiso   1.00
N596   N     0.94666   0.72863   0.39677   0.00000  Uiso   1.00
N597   N     0.20835   0.69713   0.30737   0.00000  Uiso   1.00
N598   N     0.04746   0.52750   0.51716   0.00000  Uiso   1.00
C599   C     0.07426   0.15969   0.22862   0.00000  Uiso   1.00
C600   C     0.03929   0.17893   0.14639   0.00000  Uiso   1.00
C601   C     0.01336   0.19952   0.24185   0.00000  Uiso   1.00
C602   C     0.98327   0.21490   0.14177   0.00000  Uiso   1.00
C603   C     0.92958   0.24556   0.04279   0.00000  Uiso   1.00
C604   C     0.11141   0.17026   0.12174   0.00000  Uiso   1.00
C605   C     0.14613   0.18354   0.19650   0.00000  Uiso   1.00
C606   C     0.17675   0.19162   0.07566   0.00000  Uiso   1.00
C607   C     0.23504   0.20878   0.93843   0.00000  Uiso   1.00
C608   C     0.06706   0.12351   0.17957   0.00000  Uiso   1.00
C609   C     0.06450   0.09749   0.30293   0.00000  Uiso   1.00
C610   C     0.05779   0.06620   0.23077   0.00000  Uiso   1.00
C611   C     0.04723   0.01078   0.18332   0.00000  Uiso   1.00
C612   C     0.06692   0.15039   0.88111   0.00000  Uiso   1.00
C613   C     0.03530   0.17388   0.95764   0.00000  Uiso   1.00
C614   C     0.00523   0.18923   0.85738   0.00000  Uiso   1.00
C615   C     0.97927   0.20984   0.95268   0.00000  Uiso   1.00
C616   C     0.10742   0.16521   0.93300   0.00000  Uiso   1.00
C617   C     0.13800   0.17326   0.81203   0.00000  Uiso   1.00
C618   C     0.17275   0.18656   0.88657   0.00000  Uiso   1.00
C619   C     0.06307   0.11846   0.99082   0.00000  Uiso   1.00
C620   C     0.05637   0.08720   0.91845   0.00000  Uiso   1.00
C621   C     0.05380   0.06114   0.04168   0.00000  Uiso   1.00
H622   H     0.07737   0.16362   0.37556   0.00000  Uiso   1.00
H623   H     0.01647   0.20343   0.38792   0.00000  Uiso   1.00
H624   H     0.14921   0.18745   0.34257   0.00000  Uiso   1.00
H625   H     0.06759   0.10141   0.44898   0.00000  Uiso   1.00
H626   H     0.94719   0.24534   0.31837   0.00000  Uiso   1.00
H627   H     0.22708   0.21164   0.22275   0.00000  Uiso   1.00
H628   H     0.05499   0.03020   0.44715   0.00000  Uiso   1.00
H629   H     0.06381   0.14646   0.73416   0.00000  Uiso   1.00
H630   H     0.00215   0.18532   0.71132   0.00000  Uiso   1.00
H631   H     0.13490   0.16934   0.66597   0.00000  Uiso   1.00
H632   H     0.05328   0.08330   0.77238   0.00000  Uiso   1.00
H633   H     0.93557   0.23064   0.76921   0.00000  Uiso   1.00
H634   H     0.21547   0.19694   0.67360   0.00000  Uiso   1.00
H635   H     0.04337   0.01550   0.89799   0.00000  Uiso   1.00
O636   O     0.90107   0.26387   0.04033   0.00000  Uiso   1.00
O637   O     0.26829   0.21965   0.91489   0.00000  Uiso   1.00
O638   O     0.04250   0.98161   0.20929   0.00000  Uiso   1.00
N639   N     0.95291   0.23654   0.19227   0.00000  Uiso   1.00
N640   N     0.21460   0.20504   0.10287   0.00000  Uiso   1.00
N641   N     0.05371   0.03541   0.31266   0.00000  Uiso   1.00
N642   N     0.94666   0.22863   0.89677   0.00000  Uiso   1.00
N643   N     0.20835   0.19713   0.80737   0.00000  Uiso   1.00
N644   N     0.04746   0.02750   0.01716   0.00000  Uiso   1.00
C645   C     0.57426   0.65969   0.22862   0.00000  Uiso   1.00
C646   C     0.53929   0.67893   0.14639   0.00000  Uiso   1.00
C647   C     0.51336   0.69952   0.24185   0.00000  Uiso   1.00
C648   C     0.48327   0.71490   0.14177   0.00000  Uiso   1.00
C649   C     0.42958   0.74556   0.04279   0.00000  Uiso   1.00
C650   C     0.61141   0.67026   0.12174   0.00000  Uiso   1.00
C651   C     0.64613   0.68354   0.19650   0.00000  Uiso   1.00
C652   C     0.67675   0.69162   0.07566   0.00000  Uiso   1.00
C653   C     0.73504   0.70878   0.93843   0.00000  Uiso   1.00
C654   C     0.56706   0.62351   0.17957   0.00000  Uiso   1.00
C655   C     0.56450   0.59749   0.30293   0.00000  Uiso   1.00
C656   C     0.55779   0.56620   0.23077   0.00000  Uiso   1.00
C657   C     0.54723   0.51078   0.18332   0.00000  Uiso   1.00
C658   C     0.56692   0.65039   0.88111   0.00000  Uiso   1.00
C659   C     0.53530   0.67388   0.95764   0.00000  Uiso   1.00
C660   C     0.50523   0.68923   0.85738   0.00000  Uiso   1.00
C661   C     0.47927   0.70984   0.95268   0.00000  Uiso   1.00
C662   C     0.60742   0.66521   0.93300   0.00000  Uiso   1.00
C663   C     0.63800   0.67326   0.81203   0.00000  Uiso   1.00
C664   C     0.67275   0.68656   0.88657   0.00000  Uiso   1.00
C665   C     0.56307   0.61846   0.99082   0.00000  Uiso   1.00
C666   C     0.55637   0.58720   0.91845   0.00000  Uiso   1.00
C667   C     0.55380   0.56114   0.04168   0.00000  Uiso   1.00
H668   H     0.57737   0.66362   0.37556   0.00000  Uiso   1.00
H669   H     0.51647   0.70343   0.38792   0.00000  Uiso   1.00
H670   H     0.64921   0.68745   0.34257   0.00000  Uiso   1.00
H671   H     0.56759   0.60141   0.44898   0.00000  Uiso   1.00
H672   H     0.44719   0.74534   0.31837   0.00000  Uiso   1.00
H673   H     0.72708   0.71164   0.22275   0.00000  Uiso   1.00
H674   H     0.55499   0.53020   0.44715   0.00000  Uiso   1.00
H675   H     0.56381   0.64646   0.73416   0.00000  Uiso   1.00
H676   H     0.50215   0.68532   0.71132   0.00000  Uiso   1.00
H677   H     0.63490   0.66934   0.66597   0.00000  Uiso   1.00
H678   H     0.55328   0.58330   0.77238   0.00000  Uiso   1.00
H679   H     0.43557   0.73064   0.76921   0.00000  Uiso   1.00
H680   H     0.71547   0.69694   0.67360   0.00000  Uiso   1.00
H681   H     0.54337   0.51550   0.89799   0.00000  Uiso   1.00
O682   O     0.40107   0.76387   0.04033   0.00000  Uiso   1.00
O683   O     0.76829   0.71965   0.91489   0.00000  Uiso   1.00
O684   O     0.54250   0.48161   0.20929   0.00000  Uiso   1.00
N685   N     0.45291   0.73654   0.19227   0.00000  Uiso   1.00
N686   N     0.71460   0.70504   0.10287   0.00000  Uiso   1.00
N687   N     0.55371   0.53541   0.31266   0.00000  Uiso   1.00
N688   N     0.44666   0.72863   0.89677   0.00000  Uiso   1.00
N689   N     0.70835   0.69713   0.80737   0.00000  Uiso   1.00
N690   N     0.54746   0.52750   0.01716   0.00000  Uiso   1.00
C691   C     0.57426   0.15969   0.72862   0.00000  Uiso   1.00
C692   C     0.53929   0.17893   0.64639   0.00000  Uiso   1.00
C693   C     0.51336   0.19952   0.74185   0.00000  Uiso   1.00
C694   C     0.48327   0.21490   0.64177   0.00000  Uiso   1.00
C695   C     0.42958   0.24556   0.54279   0.00000  Uiso   1.00
C696   C     0.61141   0.17026   0.62174   0.00000  Uiso   1.00
C697   C     0.64613   0.18354   0.69650   0.00000  Uiso   1.00
C698   C     0.67675   0.19162   0.57566   0.00000  Uiso   1.00
C699   C     0.73504   0.20878   0.43843   0.00000  Uiso   1.00
C700   C     0.56706   0.12351   0.67957   0.00000  Uiso   1.00
C701   C     0.56450   0.09749   0.80293   0.00000  Uiso   1.00
C702   C     0.55779   0.06620   0.73077   0.00000  Uiso   1.00
C703   C     0.54723   0.01078   0.68332   0.00000  Uiso   1.00
C704   C     0.56692   0.15039   0.38111   0.00000  Uiso   1.00
C705   C     0.53530   0.17388   0.45764   0.00000  Uiso   1.00
C706   C     0.50523   0.18923   0.35738   0.00000  Uiso   1.00
C707   C     0.47927   0.20984   0.45268   0.00000  Uiso   1.00
C708   C     0.60742   0.16521   0.43300   0.00000  Uiso   1.00
C709   C     0.63800   0.17326   0.31203   0.00000  Uiso   1.00
C710   C     0.67275   0.18656   0.38657   0.00000  Uiso   1.00
C711   C     0.56307   0.11846   0.49082   0.00000  Uiso   1.00
C712   C     0.55637   0.08720   0.41845   0.00000  Uiso   1.00
C713   C     0.55380   0.06114   0.54168   0.00000  Uiso   1.00
H714   H     0.57737   0.16362   0.87556   0.00000  Uiso   1.00
H715   H     0.51647   0.20343   0.88792   0.00000  Uiso   1.00
H716   H     0.64921   0.18745   0.84257   0.00000  Uiso   1.00
H717   H     0.56759   0.10141   0.94898   0.00000  Uiso   1.00
H718   H     0.44719   0.24534   0.81837   0.00000  Uiso   1.00
H719   H     0.72708   0.21164   0.72275   0.00000  Uiso   1.00
H720   H     0.55499   0.03020   0.94715   0.00000  Uiso   1.00
H721   H     0.56381   0.14646   0.23416   0.00000  Uiso   1.00
H722   H     0.50215   0.18532   0.21132   0.00000  Uiso   1.00
H723   H     0.63490   0.16934   0.16597   0.00000  Uiso   1.00
H724   H     0.55328   0.08330   0.27238   0.00000  Uiso   1.00
H725   H     0.43557   0.23064   0.26921   0.00000  Uiso   1.00
H726   H     0.71547   0.19694   0.17360   0.00000  Uiso   1.00
H727   H     0.54337   0.01550   0.39799   0.00000  Uiso   1.00
O728   O     0.40107   0.26387   0.54033   0.00000  Uiso   1.00
O729   O     0.76829   0.21965   0.41489   0.00000  Uiso   1.00
O730   O     0.54250   0.98161   0.70929   0.00000  Uiso   1.00
N731   N     0.45291   0.23654   0.69227   0.00000  Uiso   1.00
N732   N     0.71460   0.20504   0.60287   0.00000  Uiso   1.00
N733   N     0.55371   0.03541   0.81266   0.00000  Uiso   1.00
N734   N     0.44666   0.22863   0.39677   0.00000  Uiso   1.00
N735   N     0.70835   0.19713   0.30737   0.00000  Uiso   1.00
N736   N     0.54746   0.02750   0.51716   0.00000  Uiso   1.00
