data_job_06954
_audit_creation_date              2018-12-19
_audit_creation_method            'Materials Studio'
_symmetry_space_group_name_H-M    'P1'
_symmetry_Int_Tables_number       1
_symmetry_cell_setting            triclinic
loop_
_symmetry_equiv_pos_as_xyz
  x,y,z
_cell_length_a                    27.7544
_cell_length_b                    49.8986
_cell_length_c                    24.5486
_cell_angle_alpha                 90.0000
_cell_angle_beta                  124.8816
_cell_angle_gamma                 90.0000
loop_
_atom_site_label
_atom_site_type_symbol
_atom_site_fract_x
_atom_site_fract_y
_atom_site_fract_z
_atom_site_U_iso_or_equiv
_atom_site_adp_type
_atom_site_occupancy
C1     C     0.58219   0.93550   0.57002   0.00000  Uiso   1.00
C2     C     0.60210   0.90640   0.58717   0.00000  Uiso   1.00
C3     C     0.56765   0.88406   0.55426   0.00000  Uiso   1.00
C4     C     0.59400   0.85916   0.57758   0.00000  Uiso   1.00
C5     C     0.61597   0.81434   0.59597   0.00000  Uiso   1.00
C6     C     0.59381   0.94800   0.63319   0.00000  Uiso   1.00
C7     C     0.55239   0.96064   0.63897   0.00000  Uiso   1.00
C8     C     0.57177   0.97076   0.70102   0.00000  Uiso   1.00
C9     C     0.58088   0.99055   0.79085   0.00000  Uiso   1.00
C10    C     0.62471   0.94903   0.55818   0.00000  Uiso   1.00
C11    C     0.60928   0.96254   0.50090   0.00000  Uiso   1.00
C12    C     0.65468   0.97353   0.49981   0.00000  Uiso   1.00
C13    C     0.71178   0.99491   0.47318   0.00000  Uiso   1.00
C14    C     0.69025   0.93101   0.66993   0.00000  Uiso   1.00
C15    C     0.66079   0.90396   0.64144   0.00000  Uiso   1.00
C16    C     0.68720   0.87909   0.66481   0.00000  Uiso   1.00
C17    C     0.65280   0.85671   0.63194   0.00000  Uiso   1.00
C18    C     0.65250   0.94556   0.68745   0.00000  Uiso   1.00
C19    C     0.67195   0.95567   0.74951   0.00000  Uiso   1.00
C20    C     0.63057   0.96832   0.75539   0.00000  Uiso   1.00
C21    C     0.68341   0.94659   0.61245   0.00000  Uiso   1.00
C22    C     0.72884   0.95756   0.61145   0.00000  Uiso   1.00
C23    C     0.71348   0.97109   0.55418   0.00000  Uiso   1.00
H24    H     0.53649   0.93741   0.52777   0.00000  Uiso   1.00
H25    H     0.52222   0.88596   0.51227   0.00000  Uiso   1.00
H26    H     0.50697   0.96253   0.59696   0.00000  Uiso   1.00
H27    H     0.56386   0.96443   0.45892   0.00000  Uiso   1.00
H28    H     0.53228   0.82784   0.51904   0.00000  Uiso   1.00
H29    H     0.50013   0.98931   0.69761   0.00000  Uiso   1.00
H30    H     0.62008   0.99331   0.40651   0.00000  Uiso   1.00
H31    H     0.73595   0.92911   0.71219   0.00000  Uiso   1.00
H32    H     0.73263   0.87720   0.70680   0.00000  Uiso   1.00
H33    H     0.71737   0.95377   0.79150   0.00000  Uiso   1.00
H34    H     0.77426   0.95567   0.65345   0.00000  Uiso   1.00
H35    H     0.70305   0.82073   0.67693   0.00000  Uiso   1.00
H36    H     0.67090   0.98220   0.85550   0.00000  Uiso   1.00
H37    H     0.79085   0.98620   0.56440   0.00000  Uiso   1.00
O38    O     0.61188   0.79029   0.59113   0.00000  Uiso   1.00
O39    O     0.56969   0.00213   0.82540   0.00000  Uiso   1.00
O40    O     0.72706   0.00738   0.44349   0.00000  Uiso   1.00
N41    N     0.57293   0.83329   0.55693   0.00000  Uiso   1.00
N42    N     0.54287   0.98425   0.72388   0.00000  Uiso   1.00
N43    N     0.65501   0.98799   0.45174   0.00000  Uiso   1.00
N44    N     0.66482   0.82947   0.64189   0.00000  Uiso   1.00
N45    N     0.63476   0.98043   0.80884   0.00000  Uiso   1.00
N46    N     0.74690   0.98417   0.53670   0.00000  Uiso   1.00
C47    C     0.09201   0.21040   0.91451   0.00000  Uiso   1.00
C48    C     0.02636   0.21629   0.87494   0.00000  Uiso   1.00
C49    C     0.00008   0.24084   0.84732   0.00000  Uiso   1.00
C50    C     0.93939   0.24213   0.81296   0.00000  Uiso   1.00
C51    C     0.84251   0.25469   0.75253   0.00000  Uiso   1.00
C52    C     0.10899   0.19943   0.98128   0.00000  Uiso   1.00
C53    C     0.15220   0.20979   0.04309   0.00000  Uiso   1.00
C54    C     0.16107   0.19688   0.09825   0.00000  Uiso   1.00
C55    C     0.19250   0.18325   0.20293   0.00000  Uiso   1.00
C56    C     0.09884   0.18714   0.87913   0.00000  Uiso   1.00
C57    C     0.13351   0.18717   0.85506   0.00000  Uiso   1.00
C58    C     0.13385   0.16391   0.82423   0.00000  Uiso   1.00
C59    C     0.14952   0.13121   0.77030   0.00000  Uiso   1.00
C60    C     0.03096   0.16904   0.90258   0.00000  Uiso   1.00
C61    C     0.99320   0.19383   0.86846   0.00000  Uiso   1.00
C62    C     0.93254   0.19508   0.83413   0.00000  Uiso   1.00
C63    C     0.90618   0.21962   0.80647   0.00000  Uiso   1.00
C64    C     0.07584   0.17696   0.97481   0.00000  Uiso   1.00
C65    C     0.08466   0.16403   0.02989   0.00000  Uiso   1.00
C66    C     0.12786   0.17437   0.09176   0.00000  Uiso   1.00
C67    C     0.06568   0.16468   0.87265   0.00000  Uiso   1.00
C68    C     0.06597   0.14141   0.84186   0.00000  Uiso   1.00
C69    C     0.10064   0.14141   0.81774   0.00000  Uiso   1.00
H70    H     0.11782   0.22789   0.91955   0.00000  Uiso   1.00
H71    H     0.02576   0.25822   0.85235   0.00000  Uiso   1.00
H72    H     0.17785   0.22717   0.04808   0.00000  Uiso   1.00
H73    H     0.15917   0.20456   0.86008   0.00000  Uiso   1.00
H74    H     0.90906   0.28194   0.77501   0.00000  Uiso   1.00
H75    H     0.22978   0.21647   0.18772   0.00000  Uiso   1.00
H76    H     0.69038   0.66878   0.79128   0.00000  Uiso   1.00
H77    H     0.00515   0.15155   0.89754   0.00000  Uiso   1.00
H78    H     0.90689   0.17769   0.82913   0.00000  Uiso   1.00
H79    H     0.05899   0.14665   0.02486   0.00000  Uiso   1.00
H80    H     0.04031   0.12403   0.83686   0.00000  Uiso   1.00
H81    H     0.81259   0.21658   0.75616   0.00000  Uiso   1.00
H82    H     0.13331   0.15112   0.16887   0.00000  Uiso   1.00
H83    H     0.09391   0.10343   0.77243   0.00000  Uiso   1.00
O84    O     0.79823   0.26783   0.72100   0.00000  Uiso   1.00
O85    O     0.21900   0.18194   0.26246   0.00000  Uiso   1.00
O86    O     0.66731   0.61938   0.74234   0.00000  Uiso   1.00
N87    N     0.89984   0.26297   0.77995   0.00000  Uiso   1.00
N88    N     0.19968   0.20176   0.16581   0.00000  Uiso   1.00
N89    N     0.66286   0.65718   0.79519   0.00000  Uiso   1.00
N90    N     0.84793   0.22780   0.76981   0.00000  Uiso   1.00
N91    N     0.14777   0.16660   0.15567   0.00000  Uiso   1.00
N92    N     0.11095   0.12201   0.78505   0.00000  Uiso   1.00
C93    C     0.33372   0.85662   0.06823   0.00000  Uiso   1.00
C94    C     0.37578   0.88036   0.09849   0.00000  Uiso   1.00
C95    C     0.43520   0.87974   0.12436   0.00000  Uiso   1.00
C96    C     0.46610   0.90358   0.14976   0.00000  Uiso   1.00
C97    C     0.53561   0.93685   0.19685   0.00000  Uiso   1.00
C98    C     0.30659   0.85400   0.10724   0.00000  Uiso   1.00
C99    C     0.30783   0.83122   0.14045   0.00000  Uiso   1.00
C100   C     0.28048   0.83286   0.17321   0.00000  Uiso   1.00
C101   C     0.24253   0.82520   0.23383   0.00000  Uiso   1.00
C102   C     0.28400   0.86527   0.99837   0.00000  Uiso   1.00
C103   C     0.26623   0.85196   0.94005   0.00000  Uiso   1.00
C104   C     0.21984   0.86310   0.88114   0.00000  Uiso   1.00
C105   C     0.14681   0.87294   0.77273   0.00000  Uiso   1.00
C106   C     0.28294   0.90005   0.06733   0.00000  Uiso   1.00
C107   C     0.34820   0.90395   0.09800   0.00000  Uiso   1.00
C108   C     0.37901   0.92779   0.12337   0.00000  Uiso   1.00
C109   C     0.43847   0.92721   0.14927   0.00000  Uiso   1.00
C110   C     0.27901   0.87758   0.10675   0.00000  Uiso   1.00
C111   C     0.25164   0.87927   0.13946   0.00000  Uiso   1.00
C112   C     0.25284   0.85650   0.17272   0.00000  Uiso   1.00
C113   C     0.25641   0.88886   0.99788   0.00000  Uiso   1.00
C114   C     0.21004   0.90002   0.93905   0.00000  Uiso   1.00
C115   C     0.19221   0.88673   0.88065   0.00000  Uiso   1.00
H116   H     0.35520   0.83826   0.06862   0.00000  Uiso   1.00
H117   H     0.45653   0.86148   0.12474   0.00000  Uiso   1.00
H118   H     0.32918   0.81296   0.14082   0.00000  Uiso   1.00
H119   H     0.28758   0.83371   0.94045   0.00000  Uiso   1.00
H120   H     0.55672   0.89764   0.18677   0.00000  Uiso   1.00
H121   H     0.28817   0.79533   0.22065   0.00000  Uiso   1.00
H122   H     0.70046   0.33907   0.79812   0.00000  Uiso   1.00
H123   H     0.26146   0.91842   0.06695   0.00000  Uiso   1.00
H124   H     0.35765   0.94604   0.12298   0.00000  Uiso   1.00
H125   H     0.23030   0.89752   0.13906   0.00000  Uiso   1.00
H126   H     0.18871   0.91827   0.93869   0.00000  Uiso   1.00
H127   H     0.47647   0.96627   0.18534   0.00000  Uiso   1.00
H128   H     0.20791   0.86396   0.21923   0.00000  Uiso   1.00
H129   H     0.12020   0.90771   0.79670   0.00000  Uiso   1.00
O130   O     0.58157   0.94868   0.22296   0.00000  Uiso   1.00
O131   O     0.22922   0.81445   0.26741   0.00000  Uiso   1.00
O132   O     0.61416   0.37185   0.71307   0.00000  Uiso   1.00
N133   N     0.52463   0.91000   0.17873   0.00000  Uiso   1.00
N134   N     0.27355   0.81435   0.21042   0.00000  Uiso   1.00
N135   N     0.19154   0.85524   0.81539   0.00000  Uiso   1.00
N136   N     0.48144   0.94693   0.17796   0.00000  Uiso   1.00
N137   N     0.23037   0.85128   0.20965   0.00000  Uiso   1.00
N138   N     0.14836   0.89217   0.81463   0.00000  Uiso   1.00
C139   C     0.08219   0.43550   0.57002   0.00000  Uiso   1.00
C140   C     0.10210   0.40640   0.58717   0.00000  Uiso   1.00
C141   C     0.06765   0.38406   0.55426   0.00000  Uiso   1.00
C142   C     0.09400   0.35916   0.57758   0.00000  Uiso   1.00
C143   C     0.11597   0.31434   0.59597   0.00000  Uiso   1.00
C144   C     0.09381   0.44800   0.63319   0.00000  Uiso   1.00
C145   C     0.05239   0.46064   0.63897   0.00000  Uiso   1.00
C146   C     0.07177   0.47076   0.70102   0.00000  Uiso   1.00
C147   C     0.08088   0.49055   0.79085   0.00000  Uiso   1.00
C148   C     0.12471   0.44903   0.55818   0.00000  Uiso   1.00
C149   C     0.10928   0.46254   0.50090   0.00000  Uiso   1.00
C150   C     0.15468   0.47353   0.49981   0.00000  Uiso   1.00
C151   C     0.21178   0.49491   0.47318   0.00000  Uiso   1.00
C152   C     0.19025   0.43101   0.66993   0.00000  Uiso   1.00
C153   C     0.16079   0.40396   0.64144   0.00000  Uiso   1.00
C154   C     0.18720   0.37909   0.66481   0.00000  Uiso   1.00
C155   C     0.15280   0.35671   0.63194   0.00000  Uiso   1.00
C156   C     0.15250   0.44556   0.68745   0.00000  Uiso   1.00
C157   C     0.17195   0.45567   0.74951   0.00000  Uiso   1.00
C158   C     0.13057   0.46832   0.75539   0.00000  Uiso   1.00
C159   C     0.18341   0.44659   0.61245   0.00000  Uiso   1.00
C160   C     0.22884   0.45756   0.61145   0.00000  Uiso   1.00
C161   C     0.21348   0.47109   0.55418   0.00000  Uiso   1.00
H162   H     0.03649   0.43741   0.52777   0.00000  Uiso   1.00
H163   H     0.02222   0.38596   0.51227   0.00000  Uiso   1.00
H164   H     0.00697   0.46253   0.59696   0.00000  Uiso   1.00
H165   H     0.06386   0.46443   0.45892   0.00000  Uiso   1.00
H166   H     0.03228   0.32784   0.51904   0.00000  Uiso   1.00
H167   H     0.00013   0.48931   0.69761   0.00000  Uiso   1.00
H168   H     0.12008   0.49331   0.40651   0.00000  Uiso   1.00
H169   H     0.23595   0.42911   0.71219   0.00000  Uiso   1.00
H170   H     0.23263   0.37720   0.70680   0.00000  Uiso   1.00
H171   H     0.21737   0.45377   0.79150   0.00000  Uiso   1.00
H172   H     0.27426   0.45567   0.65345   0.00000  Uiso   1.00
H173   H     0.20305   0.32073   0.67693   0.00000  Uiso   1.00
H174   H     0.17090   0.48220   0.85550   0.00000  Uiso   1.00
H175   H     0.29085   0.48620   0.56440   0.00000  Uiso   1.00
O176   O     0.11188   0.29029   0.59113   0.00000  Uiso   1.00
O177   O     0.06969   0.50213   0.82540   0.00000  Uiso   1.00
O178   O     0.22706   0.50738   0.44349   0.00000  Uiso   1.00
N179   N     0.07293   0.33329   0.55693   0.00000  Uiso   1.00
N180   N     0.04287   0.48425   0.72388   0.00000  Uiso   1.00
N181   N     0.15501   0.48799   0.45174   0.00000  Uiso   1.00
N182   N     0.16482   0.32947   0.64189   0.00000  Uiso   1.00
N183   N     0.13476   0.48043   0.80884   0.00000  Uiso   1.00
N184   N     0.24690   0.48417   0.53670   0.00000  Uiso   1.00
C185   C     0.59201   0.71040   0.91451   0.00000  Uiso   1.00
C186   C     0.52636   0.71629   0.87494   0.00000  Uiso   1.00
C187   C     0.50008   0.74084   0.84732   0.00000  Uiso   1.00
C188   C     0.43939   0.74213   0.81296   0.00000  Uiso   1.00
C189   C     0.34251   0.75469   0.75253   0.00000  Uiso   1.00
C190   C     0.60899   0.69943   0.98128   0.00000  Uiso   1.00
C191   C     0.65220   0.70979   0.04309   0.00000  Uiso   1.00
C192   C     0.66107   0.69688   0.09825   0.00000  Uiso   1.00
C193   C     0.69250   0.68325   0.20293   0.00000  Uiso   1.00
C194   C     0.59884   0.68714   0.87913   0.00000  Uiso   1.00
C195   C     0.63351   0.68717   0.85506   0.00000  Uiso   1.00
C196   C     0.63385   0.66391   0.82423   0.00000  Uiso   1.00
C197   C     0.64952   0.63121   0.77030   0.00000  Uiso   1.00
C198   C     0.53096   0.66904   0.90258   0.00000  Uiso   1.00
C199   C     0.49320   0.69383   0.86846   0.00000  Uiso   1.00
C200   C     0.43254   0.69508   0.83413   0.00000  Uiso   1.00
C201   C     0.40618   0.71962   0.80647   0.00000  Uiso   1.00
C202   C     0.57584   0.67696   0.97481   0.00000  Uiso   1.00
C203   C     0.58466   0.66403   0.02989   0.00000  Uiso   1.00
C204   C     0.62786   0.67437   0.09176   0.00000  Uiso   1.00
C205   C     0.56568   0.66468   0.87265   0.00000  Uiso   1.00
C206   C     0.56597   0.64141   0.84186   0.00000  Uiso   1.00
C207   C     0.60064   0.64141   0.81774   0.00000  Uiso   1.00
H208   H     0.61782   0.72789   0.91955   0.00000  Uiso   1.00
H209   H     0.52576   0.75822   0.85235   0.00000  Uiso   1.00
H210   H     0.67785   0.72717   0.04808   0.00000  Uiso   1.00
H211   H     0.65917   0.70456   0.86008   0.00000  Uiso   1.00
H212   H     0.40906   0.78194   0.77501   0.00000  Uiso   1.00
H213   H     0.72978   0.71647   0.18772   0.00000  Uiso   1.00
H214   H     0.19038   0.16878   0.79128   0.00000  Uiso   1.00
H215   H     0.50515   0.65155   0.89754   0.00000  Uiso   1.00
H216   H     0.40689   0.67769   0.82913   0.00000  Uiso   1.00
H217   H     0.55899   0.64665   0.02486   0.00000  Uiso   1.00
H218   H     0.54031   0.62403   0.83686   0.00000  Uiso   1.00
H219   H     0.31259   0.71658   0.75616   0.00000  Uiso   1.00
H220   H     0.63331   0.65112   0.16887   0.00000  Uiso   1.00
H221   H     0.59391   0.60343   0.77243   0.00000  Uiso   1.00
O222   O     0.29823   0.76783   0.72100   0.00000  Uiso   1.00
O223   O     0.71900   0.68194   0.26246   0.00000  Uiso   1.00
O224   O     0.16731   0.11938   0.74234   0.00000  Uiso   1.00
N225   N     0.39984   0.76297   0.77995   0.00000  Uiso   1.00
N226   N     0.69968   0.70176   0.16581   0.00000  Uiso   1.00
N227   N     0.16286   0.15718   0.79519   0.00000  Uiso   1.00
N228   N     0.34793   0.72780   0.76981   0.00000  Uiso   1.00
N229   N     0.64777   0.66660   0.15567   0.00000  Uiso   1.00
N230   N     0.61095   0.62201   0.78505   0.00000  Uiso   1.00
C231   C     0.83372   0.35662   0.06823   0.00000  Uiso   1.00
C232   C     0.87578   0.38036   0.09849   0.00000  Uiso   1.00
C233   C     0.93520   0.37974   0.12436   0.00000  Uiso   1.00
C234   C     0.96610   0.40358   0.14976   0.00000  Uiso   1.00
C235   C     0.03561   0.43685   0.19685   0.00000  Uiso   1.00
C236   C     0.80659   0.35400   0.10724   0.00000  Uiso   1.00
C237   C     0.80783   0.33122   0.14045   0.00000  Uiso   1.00
C238   C     0.78048   0.33286   0.17321   0.00000  Uiso   1.00
C239   C     0.74253   0.32520   0.23383   0.00000  Uiso   1.00
C240   C     0.78400   0.36527   0.99837   0.00000  Uiso   1.00
C241   C     0.76623   0.35196   0.94005   0.00000  Uiso   1.00
C242   C     0.71984   0.36310   0.88114   0.00000  Uiso   1.00
C243   C     0.64681   0.37294   0.77273   0.00000  Uiso   1.00
C244   C     0.78294   0.40005   0.06733   0.00000  Uiso   1.00
C245   C     0.84820   0.40395   0.09800   0.00000  Uiso   1.00
C246   C     0.87901   0.42779   0.12337   0.00000  Uiso   1.00
C247   C     0.93847   0.42721   0.14927   0.00000  Uiso   1.00
C248   C     0.77901   0.37758   0.10675   0.00000  Uiso   1.00
C249   C     0.75164   0.37927   0.13946   0.00000  Uiso   1.00
C250   C     0.75284   0.35650   0.17272   0.00000  Uiso   1.00
C251   C     0.75641   0.38886   0.99788   0.00000  Uiso   1.00
C252   C     0.71004   0.40002   0.93905   0.00000  Uiso   1.00
C253   C     0.69221   0.38673   0.88065   0.00000  Uiso   1.00
H254   H     0.85520   0.33826   0.06862   0.00000  Uiso   1.00
H255   H     0.95653   0.36148   0.12474   0.00000  Uiso   1.00
H256   H     0.82918   0.31296   0.14082   0.00000  Uiso   1.00
H257   H     0.78758   0.33371   0.94045   0.00000  Uiso   1.00
H258   H     0.05672   0.39764   0.18677   0.00000  Uiso   1.00
H259   H     0.78817   0.29533   0.22065   0.00000  Uiso   1.00
H260   H     0.20046   0.83907   0.79812   0.00000  Uiso   1.00
H261   H     0.76146   0.41842   0.06695   0.00000  Uiso   1.00
H262   H     0.85765   0.44604   0.12298   0.00000  Uiso   1.00
H263   H     0.73030   0.39752   0.13906   0.00000  Uiso   1.00
H264   H     0.68871   0.41827   0.93869   0.00000  Uiso   1.00
H265   H     0.97647   0.46627   0.18534   0.00000  Uiso   1.00
H266   H     0.70791   0.36396   0.21923   0.00000  Uiso   1.00
H267   H     0.62020   0.40771   0.79670   0.00000  Uiso   1.00
O268   O     0.08157   0.44868   0.22296   0.00000  Uiso   1.00
O269   O     0.72922   0.31445   0.26741   0.00000  Uiso   1.00
O270   O     0.11416   0.87185   0.71307   0.00000  Uiso   1.00
N271   N     0.02463   0.41000   0.17873   0.00000  Uiso   1.00
N272   N     0.77355   0.31435   0.21042   0.00000  Uiso   1.00
N273   N     0.69154   0.35524   0.81539   0.00000  Uiso   1.00
N274   N     0.98144   0.44693   0.17796   0.00000  Uiso   1.00
N275   N     0.73037   0.35128   0.20965   0.00000  Uiso   1.00
N276   N     0.64836   0.39217   0.81463   0.00000  Uiso   1.00
C277   C     0.41781   0.93550   0.92998   0.00000  Uiso   1.00
C278   C     0.39790   0.90640   0.91283   0.00000  Uiso   1.00
C279   C     0.43235   0.88406   0.94574   0.00000  Uiso   1.00
C280   C     0.40600   0.85916   0.92242   0.00000  Uiso   1.00
C281   C     0.38403   0.81434   0.90403   0.00000  Uiso   1.00
C282   C     0.40619   0.94800   0.86681   0.00000  Uiso   1.00
C283   C     0.44761   0.96064   0.86103   0.00000  Uiso   1.00
C284   C     0.42823   0.97076   0.79898   0.00000  Uiso   1.00
C285   C     0.41912   0.99055   0.70915   0.00000  Uiso   1.00
C286   C     0.37529   0.94903   0.94182   0.00000  Uiso   1.00
C287   C     0.39072   0.96254   0.99910   0.00000  Uiso   1.00
C288   C     0.34532   0.97353   0.00019   0.00000  Uiso   1.00
C289   C     0.28822   0.99491   0.02682   0.00000  Uiso   1.00
C290   C     0.30975   0.93101   0.83007   0.00000  Uiso   1.00
C291   C     0.33921   0.90396   0.85856   0.00000  Uiso   1.00
C292   C     0.31280   0.87909   0.83519   0.00000  Uiso   1.00
C293   C     0.34720   0.85671   0.86806   0.00000  Uiso   1.00
C294   C     0.34750   0.94556   0.81255   0.00000  Uiso   1.00
C295   C     0.32805   0.95567   0.75049   0.00000  Uiso   1.00
C296   C     0.36943   0.96832   0.74461   0.00000  Uiso   1.00
C297   C     0.31659   0.94659   0.88755   0.00000  Uiso   1.00
C298   C     0.27116   0.95756   0.88855   0.00000  Uiso   1.00
C299   C     0.28652   0.97109   0.94582   0.00000  Uiso   1.00
H300   H     0.46351   0.93741   0.97223   0.00000  Uiso   1.00
H301   H     0.47778   0.88596   0.98773   0.00000  Uiso   1.00
H302   H     0.49303   0.96253   0.90304   0.00000  Uiso   1.00
H303   H     0.43614   0.96443   0.04108   0.00000  Uiso   1.00
H304   H     0.46772   0.82784   0.98096   0.00000  Uiso   1.00
H305   H     0.49987   0.98931   0.80239   0.00000  Uiso   1.00
H306   H     0.37992   0.99331   0.09349   0.00000  Uiso   1.00
H307   H     0.26405   0.92911   0.78781   0.00000  Uiso   1.00
H308   H     0.26737   0.87720   0.79320   0.00000  Uiso   1.00
H309   H     0.28263   0.95377   0.70850   0.00000  Uiso   1.00
H310   H     0.22574   0.95567   0.84655   0.00000  Uiso   1.00
H311   H     0.29695   0.82073   0.82307   0.00000  Uiso   1.00
H312   H     0.32910   0.98220   0.64450   0.00000  Uiso   1.00
H313   H     0.20915   0.98620   0.93560   0.00000  Uiso   1.00
O314   O     0.38812   0.79029   0.90887   0.00000  Uiso   1.00
O315   O     0.43031   0.00213   0.67460   0.00000  Uiso   1.00
O316   O     0.27294   0.00738   0.05651   0.00000  Uiso   1.00
N317   N     0.42707   0.83329   0.94307   0.00000  Uiso   1.00
N318   N     0.45713   0.98425   0.77612   0.00000  Uiso   1.00
N319   N     0.34499   0.98799   0.04826   0.00000  Uiso   1.00
N320   N     0.33518   0.82947   0.85811   0.00000  Uiso   1.00
N321   N     0.36524   0.98043   0.69116   0.00000  Uiso   1.00
N322   N     0.25310   0.98417   0.96330   0.00000  Uiso   1.00
C323   C     0.90799   0.21040   0.58549   0.00000  Uiso   1.00
C324   C     0.97364   0.21629   0.62506   0.00000  Uiso   1.00
C325   C     0.99992   0.24084   0.65268   0.00000  Uiso   1.00
C326   C     0.06061   0.24213   0.68704   0.00000  Uiso   1.00
C327   C     0.15749   0.25469   0.74747   0.00000  Uiso   1.00
C328   C     0.89101   0.19943   0.51872   0.00000  Uiso   1.00
C329   C     0.84780   0.20979   0.45691   0.00000  Uiso   1.00
C330   C     0.83893   0.19688   0.40175   0.00000  Uiso   1.00
C331   C     0.80750   0.18325   0.29707   0.00000  Uiso   1.00
C332   C     0.90116   0.18714   0.62087   0.00000  Uiso   1.00
C333   C     0.86649   0.18717   0.64494   0.00000  Uiso   1.00
C334   C     0.86615   0.16391   0.67577   0.00000  Uiso   1.00
C335   C     0.85048   0.13121   0.72970   0.00000  Uiso   1.00
C336   C     0.96904   0.16904   0.59742   0.00000  Uiso   1.00
C337   C     0.00680   0.19383   0.63154   0.00000  Uiso   1.00
C338   C     0.06746   0.19508   0.66587   0.00000  Uiso   1.00
C339   C     0.09382   0.21962   0.69353   0.00000  Uiso   1.00
C340   C     0.92416   0.17696   0.52519   0.00000  Uiso   1.00
C341   C     0.91534   0.16403   0.47011   0.00000  Uiso   1.00
C342   C     0.87214   0.17437   0.40824   0.00000  Uiso   1.00
C343   C     0.93432   0.16468   0.62735   0.00000  Uiso   1.00
C344   C     0.93403   0.14141   0.65814   0.00000  Uiso   1.00
C345   C     0.89936   0.14141   0.68226   0.00000  Uiso   1.00
H346   H     0.88218   0.22789   0.58045   0.00000  Uiso   1.00
H347   H     0.97424   0.25822   0.64765   0.00000  Uiso   1.00
H348   H     0.82215   0.22717   0.45192   0.00000  Uiso   1.00
H349   H     0.84083   0.20456   0.63992   0.00000  Uiso   1.00
H350   H     0.09094   0.28194   0.72499   0.00000  Uiso   1.00
H351   H     0.77022   0.21647   0.31228   0.00000  Uiso   1.00
H352   H     0.30962   0.66878   0.70872   0.00000  Uiso   1.00
H353   H     0.99485   0.15155   0.60246   0.00000  Uiso   1.00
H354   H     0.09311   0.17769   0.67087   0.00000  Uiso   1.00
H355   H     0.94101   0.14665   0.47514   0.00000  Uiso   1.00
H356   H     0.95969   0.12403   0.66314   0.00000  Uiso   1.00
H357   H     0.18741   0.21658   0.74384   0.00000  Uiso   1.00
H358   H     0.86669   0.15112   0.33113   0.00000  Uiso   1.00
H359   H     0.90609   0.10343   0.72757   0.00000  Uiso   1.00
O360   O     0.20177   0.26783   0.77900   0.00000  Uiso   1.00
O361   O     0.78100   0.18194   0.23754   0.00000  Uiso   1.00
O362   O     0.33269   0.61938   0.75766   0.00000  Uiso   1.00
N363   N     0.10016   0.26297   0.72005   0.00000  Uiso   1.00
N364   N     0.80032   0.20176   0.33419   0.00000  Uiso   1.00
N365   N     0.33714   0.65718   0.70481   0.00000  Uiso   1.00
N366   N     0.15207   0.22780   0.73019   0.00000  Uiso   1.00
N367   N     0.85223   0.16660   0.34433   0.00000  Uiso   1.00
N368   N     0.88905   0.12201   0.71495   0.00000  Uiso   1.00
C369   C     0.66628   0.85662   0.43177   0.00000  Uiso   1.00
C370   C     0.62422   0.88036   0.40151   0.00000  Uiso   1.00
C371   C     0.56480   0.87974   0.37564   0.00000  Uiso   1.00
C372   C     0.53390   0.90358   0.35024   0.00000  Uiso   1.00
C373   C     0.46439   0.93685   0.30315   0.00000  Uiso   1.00
C374   C     0.69341   0.85400   0.39276   0.00000  Uiso   1.00
C375   C     0.69217   0.83122   0.35955   0.00000  Uiso   1.00
C376   C     0.71952   0.83286   0.32679   0.00000  Uiso   1.00
C377   C     0.75747   0.82520   0.26617   0.00000  Uiso   1.00
C378   C     0.71600   0.86527   0.50163   0.00000  Uiso   1.00
C379   C     0.73377   0.85196   0.55995   0.00000  Uiso   1.00
C380   C     0.78016   0.86310   0.61886   0.00000  Uiso   1.00
C381   C     0.85319   0.87294   0.72727   0.00000  Uiso   1.00
C382   C     0.71706   0.90005   0.43267   0.00000  Uiso   1.00
C383   C     0.65180   0.90395   0.40200   0.00000  Uiso   1.00
C384   C     0.62099   0.92779   0.37663   0.00000  Uiso   1.00
C385   C     0.56153   0.92721   0.35073   0.00000  Uiso   1.00
C386   C     0.72099   0.87758   0.39325   0.00000  Uiso   1.00
C387   C     0.74836   0.87927   0.36054   0.00000  Uiso   1.00
C388   C     0.74716   0.85650   0.32728   0.00000  Uiso   1.00
C389   C     0.74359   0.88886   0.50212   0.00000  Uiso   1.00
C390   C     0.78996   0.90002   0.56095   0.00000  Uiso   1.00
C391   C     0.80779   0.88673   0.61935   0.00000  Uiso   1.00
H392   H     0.64480   0.83826   0.43138   0.00000  Uiso   1.00
H393   H     0.54347   0.86148   0.37526   0.00000  Uiso   1.00
H394   H     0.67082   0.81296   0.35918   0.00000  Uiso   1.00
H395   H     0.71242   0.83371   0.55955   0.00000  Uiso   1.00
H396   H     0.44328   0.89764   0.31323   0.00000  Uiso   1.00
H397   H     0.71183   0.79533   0.27935   0.00000  Uiso   1.00
H398   H     0.29954   0.33907   0.70188   0.00000  Uiso   1.00
H399   H     0.73854   0.91842   0.43305   0.00000  Uiso   1.00
H400   H     0.64235   0.94604   0.37702   0.00000  Uiso   1.00
H401   H     0.76970   0.89752   0.36094   0.00000  Uiso   1.00
H402   H     0.81129   0.91827   0.56131   0.00000  Uiso   1.00
H403   H     0.52353   0.96627   0.31466   0.00000  Uiso   1.00
H404   H     0.79209   0.86396   0.28077   0.00000  Uiso   1.00
H405   H     0.87980   0.90771   0.70330   0.00000  Uiso   1.00
O406   O     0.41843   0.94868   0.27704   0.00000  Uiso   1.00
O407   O     0.77078   0.81445   0.23259   0.00000  Uiso   1.00
O408   O     0.38584   0.37185   0.78693   0.00000  Uiso   1.00
N409   N     0.47537   0.91000   0.32127   0.00000  Uiso   1.00
N410   N     0.72645   0.81435   0.28958   0.00000  Uiso   1.00
N411   N     0.80846   0.85524   0.68461   0.00000  Uiso   1.00
N412   N     0.51856   0.94693   0.32204   0.00000  Uiso   1.00
N413   N     0.76963   0.85128   0.29035   0.00000  Uiso   1.00
N414   N     0.85164   0.89217   0.68537   0.00000  Uiso   1.00
C415   C     0.91781   0.43550   0.92998   0.00000  Uiso   1.00
C416   C     0.89790   0.40640   0.91283   0.00000  Uiso   1.00
C417   C     0.93235   0.38406   0.94574   0.00000  Uiso   1.00
C418   C     0.90600   0.35916   0.92242   0.00000  Uiso   1.00
C419   C     0.88403   0.31434   0.90403   0.00000  Uiso   1.00
C420   C     0.90619   0.44800   0.86681   0.00000  Uiso   1.00
C421   C     0.94761   0.46064   0.86103   0.00000  Uiso   1.00
C422   C     0.92823   0.47076   0.79898   0.00000  Uiso   1.00
C423   C     0.91912   0.49055   0.70915   0.00000  Uiso   1.00
C424   C     0.87529   0.44903   0.94182   0.00000  Uiso   1.00
C425   C     0.89072   0.46254   0.99910   0.00000  Uiso   1.00
C426   C     0.84532   0.47353   0.00019   0.00000  Uiso   1.00
C427   C     0.78822   0.49491   0.02682   0.00000  Uiso   1.00
C428   C     0.80975   0.43101   0.83007   0.00000  Uiso   1.00
C429   C     0.83921   0.40396   0.85856   0.00000  Uiso   1.00
C430   C     0.81280   0.37909   0.83519   0.00000  Uiso   1.00
C431   C     0.84720   0.35671   0.86806   0.00000  Uiso   1.00
C432   C     0.84750   0.44556   0.81255   0.00000  Uiso   1.00
C433   C     0.82805   0.45567   0.75049   0.00000  Uiso   1.00
C434   C     0.86943   0.46832   0.74461   0.00000  Uiso   1.00
C435   C     0.81659   0.44659   0.88755   0.00000  Uiso   1.00
C436   C     0.77116   0.45756   0.88855   0.00000  Uiso   1.00
C437   C     0.78652   0.47109   0.94582   0.00000  Uiso   1.00
H438   H     0.96351   0.43741   0.97223   0.00000  Uiso   1.00
H439   H     0.97778   0.38596   0.98773   0.00000  Uiso   1.00
H440   H     0.99303   0.46253   0.90304   0.00000  Uiso   1.00
H441   H     0.93614   0.46443   0.04108   0.00000  Uiso   1.00
H442   H     0.96772   0.32784   0.98096   0.00000  Uiso   1.00
H443   H     0.99987   0.48931   0.80239   0.00000  Uiso   1.00
H444   H     0.87992   0.49331   0.09349   0.00000  Uiso   1.00
H445   H     0.76405   0.42911   0.78781   0.00000  Uiso   1.00
H446   H     0.76737   0.37720   0.79320   0.00000  Uiso   1.00
H447   H     0.78263   0.45377   0.70850   0.00000  Uiso   1.00
H448   H     0.72574   0.45567   0.84655   0.00000  Uiso   1.00
H449   H     0.79695   0.32073   0.82307   0.00000  Uiso   1.00
H450   H     0.82910   0.48220   0.64450   0.00000  Uiso   1.00
H451   H     0.70915   0.48620   0.93560   0.00000  Uiso   1.00
O452   O     0.88812   0.29029   0.90887   0.00000  Uiso   1.00
O453   O     0.93031   0.50213   0.67460   0.00000  Uiso   1.00
O454   O     0.77294   0.50738   0.05651   0.00000  Uiso   1.00
N455   N     0.92707   0.33329   0.94307   0.00000  Uiso   1.00
N456   N     0.95713   0.48425   0.77612   0.00000  Uiso   1.00
N457   N     0.84499   0.48799   0.04826   0.00000  Uiso   1.00
N458   N     0.83518   0.32947   0.85811   0.00000  Uiso   1.00
N459   N     0.86524   0.48043   0.69116   0.00000  Uiso   1.00
N460   N     0.75310   0.48417   0.96330   0.00000  Uiso   1.00
C461   C     0.40799   0.71040   0.58549   0.00000  Uiso   1.00
C462   C     0.47364   0.71629   0.62506   0.00000  Uiso   1.00
C463   C     0.49992   0.74084   0.65268   0.00000  Uiso   1.00
C464   C     0.56061   0.74213   0.68704   0.00000  Uiso   1.00
C465   C     0.65749   0.75469   0.74747   0.00000  Uiso   1.00
C466   C     0.39101   0.69943   0.51872   0.00000  Uiso   1.00
C467   C     0.34780   0.70979   0.45691   0.00000  Uiso   1.00
C468   C     0.33893   0.69688   0.40175   0.00000  Uiso   1.00
C469   C     0.30750   0.68325   0.29707   0.00000  Uiso   1.00
C470   C     0.40116   0.68714   0.62087   0.00000  Uiso   1.00
C471   C     0.36649   0.68717   0.64494   0.00000  Uiso   1.00
C472   C     0.36615   0.66391   0.67577   0.00000  Uiso   1.00
C473   C     0.35048   0.63121   0.72970   0.00000  Uiso   1.00
C474   C     0.46904   0.66904   0.59742   0.00000  Uiso   1.00
C475   C     0.50680   0.69383   0.63154   0.00000  Uiso   1.00
C476   C     0.56746   0.69508   0.66587   0.00000  Uiso   1.00
C477   C     0.59382   0.71962   0.69353   0.00000  Uiso   1.00
C478   C     0.42416   0.67696   0.52519   0.00000  Uiso   1.00
C479   C     0.41534   0.66403   0.47011   0.00000  Uiso   1.00
C480   C     0.37214   0.67437   0.40824   0.00000  Uiso   1.00
C481   C     0.43432   0.66468   0.62735   0.00000  Uiso   1.00
C482   C     0.43403   0.64141   0.65814   0.00000  Uiso   1.00
C483   C     0.39936   0.64141   0.68226   0.00000  Uiso   1.00
H484   H     0.38218   0.72789   0.58045   0.00000  Uiso   1.00
H485   H     0.47424   0.75822   0.64765   0.00000  Uiso   1.00
H486   H     0.32215   0.72717   0.45192   0.00000  Uiso   1.00
H487   H     0.34083   0.70456   0.63992   0.00000  Uiso   1.00
H488   H     0.59094   0.78194   0.72499   0.00000  Uiso   1.00
H489   H     0.27022   0.71647   0.31228   0.00000  Uiso   1.00
H490   H     0.80962   0.16878   0.70872   0.00000  Uiso   1.00
H491   H     0.49485   0.65155   0.60246   0.00000  Uiso   1.00
H492   H     0.59311   0.67769   0.67087   0.00000  Uiso   1.00
H493   H     0.44101   0.64665   0.47514   0.00000  Uiso   1.00
H494   H     0.45969   0.62403   0.66314   0.00000  Uiso   1.00
H495   H     0.68741   0.71658   0.74384   0.00000  Uiso   1.00
H496   H     0.36669   0.65112   0.33113   0.00000  Uiso   1.00
H497   H     0.40609   0.60343   0.72757   0.00000  Uiso   1.00
O498   O     0.70177   0.76783   0.77900   0.00000  Uiso   1.00
O499   O     0.28100   0.68194   0.23754   0.00000  Uiso   1.00
O500   O     0.83269   0.11938   0.75766   0.00000  Uiso   1.00
N501   N     0.60016   0.76297   0.72005   0.00000  Uiso   1.00
N502   N     0.30032   0.70176   0.33419   0.00000  Uiso   1.00
N503   N     0.83714   0.15718   0.70481   0.00000  Uiso   1.00
N504   N     0.65207   0.72780   0.73019   0.00000  Uiso   1.00
N505   N     0.35223   0.66660   0.34433   0.00000  Uiso   1.00
N506   N     0.38905   0.62201   0.71495   0.00000  Uiso   1.00
C507   C     0.16628   0.35662   0.43177   0.00000  Uiso   1.00
C508   C     0.12422   0.38036   0.40151   0.00000  Uiso   1.00
C509   C     0.06480   0.37974   0.37564   0.00000  Uiso   1.00
C510   C     0.03390   0.40358   0.35024   0.00000  Uiso   1.00
C511   C     0.96439   0.43685   0.30315   0.00000  Uiso   1.00
C512   C     0.19341   0.35400   0.39276   0.00000  Uiso   1.00
C513   C     0.19217   0.33122   0.35955   0.00000  Uiso   1.00
C514   C     0.21952   0.33286   0.32679   0.00000  Uiso   1.00
C515   C     0.25747   0.32520   0.26617   0.00000  Uiso   1.00
C516   C     0.21600   0.36527   0.50163   0.00000  Uiso   1.00
C517   C     0.23377   0.35196   0.55995   0.00000  Uiso   1.00
C518   C     0.28016   0.36310   0.61886   0.00000  Uiso   1.00
C519   C     0.35319   0.37294   0.72727   0.00000  Uiso   1.00
C520   C     0.21706   0.40005   0.43267   0.00000  Uiso   1.00
C521   C     0.15180   0.40395   0.40200   0.00000  Uiso   1.00
C522   C     0.12099   0.42779   0.37663   0.00000  Uiso   1.00
C523   C     0.06153   0.42721   0.35073   0.00000  Uiso   1.00
C524   C     0.22099   0.37758   0.39325   0.00000  Uiso   1.00
C525   C     0.24836   0.37927   0.36054   0.00000  Uiso   1.00
C526   C     0.24716   0.35650   0.32728   0.00000  Uiso   1.00
C527   C     0.24359   0.38886   0.50212   0.00000  Uiso   1.00
C528   C     0.28996   0.40002   0.56095   0.00000  Uiso   1.00
C529   C     0.30779   0.38673   0.61935   0.00000  Uiso   1.00
H530   H     0.14480   0.33826   0.43138   0.00000  Uiso   1.00
H531   H     0.04347   0.36148   0.37526   0.00000  Uiso   1.00
H532   H     0.17082   0.31296   0.35918   0.00000  Uiso   1.00
H533   H     0.21242   0.33371   0.55955   0.00000  Uiso   1.00
H534   H     0.94328   0.39764   0.31323   0.00000  Uiso   1.00
H535   H     0.21183   0.29533   0.27935   0.00000  Uiso   1.00
H536   H     0.79954   0.83907   0.70188   0.00000  Uiso   1.00
H537   H     0.23854   0.41842   0.43305   0.00000  Uiso   1.00
H538   H     0.14235   0.44604   0.37702   0.00000  Uiso   1.00
H539   H     0.26970   0.39752   0.36094   0.00000  Uiso   1.00
H540   H     0.31129   0.41827   0.56131   0.00000  Uiso   1.00
H541   H     0.02353   0.46627   0.31466   0.00000  Uiso   1.00
H542   H     0.29209   0.36396   0.28077   0.00000  Uiso   1.00
H543   H     0.37980   0.40771   0.70330   0.00000  Uiso   1.00
O544   O     0.91843   0.44868   0.27704   0.00000  Uiso   1.00
O545   O     0.27078   0.31445   0.23259   0.00000  Uiso   1.00
O546   O     0.88584   0.87185   0.78693   0.00000  Uiso   1.00
N547   N     0.97537   0.41000   0.32127   0.00000  Uiso   1.00
N548   N     0.22645   0.31435   0.28958   0.00000  Uiso   1.00
N549   N     0.30846   0.35524   0.68461   0.00000  Uiso   1.00
N550   N     0.01856   0.44693   0.32204   0.00000  Uiso   1.00
N551   N     0.26963   0.35128   0.29035   0.00000  Uiso   1.00
N552   N     0.35164   0.39217   0.68537   0.00000  Uiso   1.00
C553   C     0.41781   0.06450   0.42998   0.00000  Uiso   1.00
C554   C     0.39790   0.09360   0.41283   0.00000  Uiso   1.00
C555   C     0.43235   0.11594   0.44574   0.00000  Uiso   1.00
C556   C     0.40600   0.14084   0.42242   0.00000  Uiso   1.00
C557   C     0.38403   0.18566   0.40403   0.00000  Uiso   1.00
C558   C     0.40619   0.05200   0.36681   0.00000  Uiso   1.00
C559   C     0.44761   0.03936   0.36103   0.00000  Uiso   1.00
C560   C     0.42823   0.02924   0.29898   0.00000  Uiso   1.00
C561   C     0.41912   0.00945   0.20915   0.00000  Uiso   1.00
C562   C     0.37529   0.05097   0.44182   0.00000  Uiso   1.00
C563   C     0.39072   0.03746   0.49910   0.00000  Uiso   1.00
C564   C     0.34532   0.02647   0.50019   0.00000  Uiso   1.00
C565   C     0.28822   0.00509   0.52682   0.00000  Uiso   1.00
C566   C     0.30975   0.06899   0.33007   0.00000  Uiso   1.00
C567   C     0.33921   0.09604   0.35856   0.00000  Uiso   1.00
C568   C     0.31280   0.12091   0.33519   0.00000  Uiso   1.00
C569   C     0.34720   0.14329   0.36806   0.00000  Uiso   1.00
C570   C     0.34750   0.05444   0.31255   0.00000  Uiso   1.00
C571   C     0.32805   0.04433   0.25049   0.00000  Uiso   1.00
C572   C     0.36943   0.03168   0.24461   0.00000  Uiso   1.00
C573   C     0.31659   0.05341   0.38755   0.00000  Uiso   1.00
C574   C     0.27116   0.04244   0.38855   0.00000  Uiso   1.00
C575   C     0.28652   0.02891   0.44582   0.00000  Uiso   1.00
H576   H     0.46351   0.06259   0.47223   0.00000  Uiso   1.00
H577   H     0.47778   0.11404   0.48773   0.00000  Uiso   1.00
H578   H     0.49303   0.03747   0.40304   0.00000  Uiso   1.00
H579   H     0.43614   0.03557   0.54108   0.00000  Uiso   1.00
H580   H     0.46772   0.17216   0.48096   0.00000  Uiso   1.00
H581   H     0.49987   0.01069   0.30239   0.00000  Uiso   1.00
H582   H     0.37992   0.00669   0.59349   0.00000  Uiso   1.00
H583   H     0.26405   0.07089   0.28781   0.00000  Uiso   1.00
H584   H     0.26737   0.12280   0.29320   0.00000  Uiso   1.00
H585   H     0.28263   0.04623   0.20850   0.00000  Uiso   1.00
H586   H     0.22574   0.04433   0.34655   0.00000  Uiso   1.00
H587   H     0.29695   0.17927   0.32307   0.00000  Uiso   1.00
H588   H     0.32910   0.01780   0.14450   0.00000  Uiso   1.00
H589   H     0.20915   0.01380   0.43560   0.00000  Uiso   1.00
O590   O     0.38812   0.20971   0.40887   0.00000  Uiso   1.00
O591   O     0.43031   0.99787   0.17460   0.00000  Uiso   1.00
O592   O     0.27294   0.99262   0.55651   0.00000  Uiso   1.00
N593   N     0.42707   0.16671   0.44307   0.00000  Uiso   1.00
N594   N     0.45713   0.01575   0.27612   0.00000  Uiso   1.00
N595   N     0.34499   0.01201   0.54826   0.00000  Uiso   1.00
N596   N     0.33518   0.17053   0.35811   0.00000  Uiso   1.00
N597   N     0.36524   0.01957   0.19116   0.00000  Uiso   1.00
N598   N     0.25310   0.01583   0.46330   0.00000  Uiso   1.00
C599   C     0.90799   0.78960   0.08549   0.00000  Uiso   1.00
C600   C     0.97364   0.78371   0.12506   0.00000  Uiso   1.00
C601   C     0.99992   0.75916   0.15268   0.00000  Uiso   1.00
C602   C     0.06061   0.75787   0.18704   0.00000  Uiso   1.00
C603   C     0.15749   0.74531   0.24747   0.00000  Uiso   1.00
C604   C     0.89101   0.80057   0.01872   0.00000  Uiso   1.00
C605   C     0.84780   0.79021   0.95691   0.00000  Uiso   1.00
C606   C     0.83893   0.80312   0.90175   0.00000  Uiso   1.00
C607   C     0.80750   0.81675   0.79707   0.00000  Uiso   1.00
C608   C     0.90116   0.81286   0.12087   0.00000  Uiso   1.00
C609   C     0.86649   0.81283   0.14494   0.00000  Uiso   1.00
C610   C     0.86615   0.83609   0.17577   0.00000  Uiso   1.00
C611   C     0.85048   0.86879   0.22970   0.00000  Uiso   1.00
C612   C     0.96904   0.83096   0.09742   0.00000  Uiso   1.00
C613   C     0.00680   0.80617   0.13154   0.00000  Uiso   1.00
C614   C     0.06746   0.80492   0.16587   0.00000  Uiso   1.00
C615   C     0.09382   0.78038   0.19353   0.00000  Uiso   1.00
C616   C     0.92416   0.82304   0.02519   0.00000  Uiso   1.00
C617   C     0.91534   0.83597   0.97011   0.00000  Uiso   1.00
C618   C     0.87214   0.82563   0.90824   0.00000  Uiso   1.00
C619   C     0.93432   0.83532   0.12735   0.00000  Uiso   1.00
C620   C     0.93403   0.85859   0.15814   0.00000  Uiso   1.00
C621   C     0.89936   0.85859   0.18226   0.00000  Uiso   1.00
H622   H     0.88218   0.77211   0.08045   0.00000  Uiso   1.00
H623   H     0.97424   0.74178   0.14765   0.00000  Uiso   1.00
H624   H     0.82215   0.77283   0.95192   0.00000  Uiso   1.00
H625   H     0.84083   0.79544   0.13992   0.00000  Uiso   1.00
H626   H     0.09094   0.71806   0.22499   0.00000  Uiso   1.00
H627   H     0.77022   0.78353   0.81228   0.00000  Uiso   1.00
H628   H     0.30962   0.33122   0.20872   0.00000  Uiso   1.00
H629   H     0.99485   0.84845   0.10246   0.00000  Uiso   1.00
H630   H     0.09311   0.82231   0.17087   0.00000  Uiso   1.00
H631   H     0.94101   0.85335   0.97514   0.00000  Uiso   1.00
H632   H     0.95969   0.87597   0.16314   0.00000  Uiso   1.00
H633   H     0.18741   0.78342   0.24384   0.00000  Uiso   1.00
H634   H     0.86669   0.84888   0.83113   0.00000  Uiso   1.00
H635   H     0.90609   0.89657   0.22757   0.00000  Uiso   1.00
O636   O     0.20177   0.73217   0.27900   0.00000  Uiso   1.00
O637   O     0.78100   0.81806   0.73754   0.00000  Uiso   1.00
O638   O     0.33269   0.38062   0.25766   0.00000  Uiso   1.00
N639   N     0.10016   0.73703   0.22005   0.00000  Uiso   1.00
N640   N     0.80032   0.79824   0.83419   0.00000  Uiso   1.00
N641   N     0.33714   0.34282   0.20481   0.00000  Uiso   1.00
N642   N     0.15207   0.77220   0.23019   0.00000  Uiso   1.00
N643   N     0.85223   0.83340   0.84433   0.00000  Uiso   1.00
N644   N     0.88905   0.87799   0.21495   0.00000  Uiso   1.00
C645   C     0.66628   0.14338   0.93177   0.00000  Uiso   1.00
C646   C     0.62422   0.11964   0.90151   0.00000  Uiso   1.00
C647   C     0.56480   0.12026   0.87564   0.00000  Uiso   1.00
C648   C     0.53390   0.09642   0.85024   0.00000  Uiso   1.00
C649   C     0.46439   0.06315   0.80315   0.00000  Uiso   1.00
C650   C     0.69341   0.14600   0.89276   0.00000  Uiso   1.00
C651   C     0.69217   0.16878   0.85955   0.00000  Uiso   1.00
C652   C     0.71952   0.16714   0.82679   0.00000  Uiso   1.00
C653   C     0.75747   0.17480   0.76617   0.00000  Uiso   1.00
C654   C     0.71600   0.13473   0.00163   0.00000  Uiso   1.00
C655   C     0.73377   0.14804   0.05995   0.00000  Uiso   1.00
C656   C     0.78016   0.13690   0.11886   0.00000  Uiso   1.00
C657   C     0.85319   0.12706   0.22727   0.00000  Uiso   1.00
C658   C     0.71706   0.09995   0.93267   0.00000  Uiso   1.00
C659   C     0.65180   0.09605   0.90200   0.00000  Uiso   1.00
C660   C     0.62099   0.07221   0.87663   0.00000  Uiso   1.00
C661   C     0.56153   0.07279   0.85073   0.00000  Uiso   1.00
C662   C     0.72099   0.12242   0.89325   0.00000  Uiso   1.00
C663   C     0.74836   0.12073   0.86054   0.00000  Uiso   1.00
C664   C     0.74716   0.14350   0.82728   0.00000  Uiso   1.00
C665   C     0.74359   0.11114   0.00212   0.00000  Uiso   1.00
C666   C     0.78996   0.09998   0.06095   0.00000  Uiso   1.00
C667   C     0.80779   0.11327   0.11935   0.00000  Uiso   1.00
H668   H     0.64480   0.16174   0.93138   0.00000  Uiso   1.00
H669   H     0.54347   0.13852   0.87526   0.00000  Uiso   1.00
H670   H     0.67082   0.18704   0.85918   0.00000  Uiso   1.00
H671   H     0.71242   0.16629   0.05955   0.00000  Uiso   1.00
H672   H     0.44328   0.10236   0.81323   0.00000  Uiso   1.00
H673   H     0.71183   0.20467   0.77935   0.00000  Uiso   1.00
H674   H     0.29954   0.66093   0.20188   0.00000  Uiso   1.00
H675   H     0.73854   0.08158   0.93305   0.00000  Uiso   1.00
H676   H     0.64235   0.05396   0.87702   0.00000  Uiso   1.00
H677   H     0.76970   0.10248   0.86094   0.00000  Uiso   1.00
H678   H     0.81129   0.08173   0.06131   0.00000  Uiso   1.00
H679   H     0.52353   0.03373   0.81466   0.00000  Uiso   1.00
H680   H     0.79209   0.13604   0.78077   0.00000  Uiso   1.00
H681   H     0.87980   0.09229   0.20330   0.00000  Uiso   1.00
O682   O     0.41843   0.05132   0.77704   0.00000  Uiso   1.00
O683   O     0.77078   0.18555   0.73259   0.00000  Uiso   1.00
O684   O     0.38584   0.62815   0.28693   0.00000  Uiso   1.00
N685   N     0.47537   0.09000   0.82127   0.00000  Uiso   1.00
N686   N     0.72645   0.18565   0.78958   0.00000  Uiso   1.00
N687   N     0.80846   0.14476   0.18461   0.00000  Uiso   1.00
N688   N     0.51856   0.05307   0.82204   0.00000  Uiso   1.00
N689   N     0.76963   0.14872   0.79035   0.00000  Uiso   1.00
N690   N     0.85164   0.10783   0.18537   0.00000  Uiso   1.00
C691   C     0.91781   0.56450   0.42998   0.00000  Uiso   1.00
C692   C     0.89790   0.59360   0.41283   0.00000  Uiso   1.00
C693   C     0.93235   0.61594   0.44574   0.00000  Uiso   1.00
C694   C     0.90600   0.64084   0.42242   0.00000  Uiso   1.00
C695   C     0.88403   0.68566   0.40403   0.00000  Uiso   1.00
C696   C     0.90619   0.55200   0.36681   0.00000  Uiso   1.00
C697   C     0.94761   0.53936   0.36103   0.00000  Uiso   1.00
C698   C     0.92823   0.52924   0.29898   0.00000  Uiso   1.00
C699   C     0.91912   0.50945   0.20915   0.00000  Uiso   1.00
C700   C     0.87529   0.55097   0.44182   0.00000  Uiso   1.00
C701   C     0.89072   0.53746   0.49910   0.00000  Uiso   1.00
C702   C     0.84532   0.52647   0.50019   0.00000  Uiso   1.00
C703   C     0.78822   0.50509   0.52682   0.00000  Uiso   1.00
C704   C     0.80975   0.56899   0.33007   0.00000  Uiso   1.00
C705   C     0.83921   0.59604   0.35856   0.00000  Uiso   1.00
C706   C     0.81280   0.62091   0.33519   0.00000  Uiso   1.00
C707   C     0.84720   0.64329   0.36806   0.00000  Uiso   1.00
C708   C     0.84750   0.55444   0.31255   0.00000  Uiso   1.00
C709   C     0.82805   0.54433   0.25049   0.00000  Uiso   1.00
C710   C     0.86943   0.53168   0.24461   0.00000  Uiso   1.00
C711   C     0.81659   0.55341   0.38755   0.00000  Uiso   1.00
C712   C     0.77116   0.54244   0.38855   0.00000  Uiso   1.00
C713   C     0.78652   0.52891   0.44582   0.00000  Uiso   1.00
H714   H     0.96351   0.56259   0.47223   0.00000  Uiso   1.00
H715   H     0.97778   0.61404   0.48773   0.00000  Uiso   1.00
H716   H     0.99303   0.53747   0.40304   0.00000  Uiso   1.00
H717   H     0.93614   0.53557   0.54108   0.00000  Uiso   1.00
H718   H     0.96772   0.67216   0.48096   0.00000  Uiso   1.00
H719   H     0.99987   0.51069   0.30239   0.00000  Uiso   1.00
H720   H     0.87992   0.50669   0.59349   0.00000  Uiso   1.00
H721   H     0.76405   0.57089   0.28781   0.00000  Uiso   1.00
H722   H     0.76737   0.62280   0.29320   0.00000  Uiso   1.00
H723   H     0.78263   0.54623   0.20850   0.00000  Uiso   1.00
H724   H     0.72574   0.54433   0.34655   0.00000  Uiso   1.00
H725   H     0.79695   0.67927   0.32307   0.00000  Uiso   1.00
H726   H     0.82910   0.51780   0.14450   0.00000  Uiso   1.00
H727   H     0.70915   0.51380   0.43560   0.00000  Uiso   1.00
O728   O     0.88812   0.70971   0.40887   0.00000  Uiso   1.00
O729   O     0.93031   0.49787   0.17460   0.00000  Uiso   1.00
O730   O     0.77294   0.49262   0.55651   0.00000  Uiso   1.00
N731   N     0.92707   0.66671   0.44307   0.00000  Uiso   1.00
N732   N     0.95713   0.51575   0.27612   0.00000  Uiso   1.00
N733   N     0.84499   0.51201   0.54826   0.00000  Uiso   1.00
N734   N     0.83518   0.67053   0.35811   0.00000  Uiso   1.00
N735   N     0.86524   0.51957   0.19116   0.00000  Uiso   1.00
N736   N     0.75310   0.51583   0.46330   0.00000  Uiso   1.00
C737   C     0.40799   0.28960   0.08549   0.00000  Uiso   1.00
C738   C     0.47364   0.28371   0.12506   0.00000  Uiso   1.00
C739   C     0.49992   0.25916   0.15268   0.00000  Uiso   1.00
C740   C     0.56061   0.25787   0.18704   0.00000  Uiso   1.00
C741   C     0.65749   0.24531   0.24747   0.00000  Uiso   1.00
C742   C     0.39101   0.30057   0.01872   0.00000  Uiso   1.00
C743   C     0.34780   0.29021   0.95691   0.00000  Uiso   1.00
C744   C     0.33893   0.30312   0.90175   0.00000  Uiso   1.00
C745   C     0.30750   0.31675   0.79707   0.00000  Uiso   1.00
C746   C     0.40116   0.31286   0.12087   0.00000  Uiso   1.00
C747   C     0.36649   0.31283   0.14494   0.00000  Uiso   1.00
C748   C     0.36615   0.33609   0.17577   0.00000  Uiso   1.00
C749   C     0.35048   0.36879   0.22970   0.00000  Uiso   1.00
C750   C     0.46904   0.33096   0.09742   0.00000  Uiso   1.00
C751   C     0.50680   0.30617   0.13154   0.00000  Uiso   1.00
C752   C     0.56746   0.30492   0.16587   0.00000  Uiso   1.00
C753   C     0.59382   0.28038   0.19353   0.00000  Uiso   1.00
C754   C     0.42416   0.32304   0.02519   0.00000  Uiso   1.00
C755   C     0.41534   0.33597   0.97011   0.00000  Uiso   1.00
C756   C     0.37214   0.32563   0.90824   0.00000  Uiso   1.00
C757   C     0.43432   0.33532   0.12735   0.00000  Uiso   1.00
C758   C     0.43403   0.35859   0.15814   0.00000  Uiso   1.00
C759   C     0.39936   0.35859   0.18226   0.00000  Uiso   1.00
H760   H     0.38218   0.27211   0.08045   0.00000  Uiso   1.00
H761   H     0.47424   0.24178   0.14765   0.00000  Uiso   1.00
H762   H     0.32215   0.27283   0.95192   0.00000  Uiso   1.00
H763   H     0.34083   0.29544   0.13992   0.00000  Uiso   1.00
H764   H     0.59094   0.21806   0.22499   0.00000  Uiso   1.00
H765   H     0.27022   0.28353   0.81228   0.00000  Uiso   1.00
H766   H     0.80962   0.83122   0.20872   0.00000  Uiso   1.00
H767   H     0.49485   0.34845   0.10246   0.00000  Uiso   1.00
H768   H     0.59311   0.32231   0.17087   0.00000  Uiso   1.00
H769   H     0.44101   0.35335   0.97514   0.00000  Uiso   1.00
H770   H     0.45969   0.37597   0.16314   0.00000  Uiso   1.00
H771   H     0.68741   0.28342   0.24384   0.00000  Uiso   1.00
H772   H     0.36669   0.34888   0.83113   0.00000  Uiso   1.00
H773   H     0.40609   0.39657   0.22757   0.00000  Uiso   1.00
O774   O     0.70177   0.23217   0.27900   0.00000  Uiso   1.00
O775   O     0.28100   0.31806   0.73754   0.00000  Uiso   1.00
O776   O     0.83269   0.88062   0.25766   0.00000  Uiso   1.00
N777   N     0.60016   0.23703   0.22005   0.00000  Uiso   1.00
N778   N     0.30032   0.29824   0.83419   0.00000  Uiso   1.00
N779   N     0.83714   0.84282   0.20481   0.00000  Uiso   1.00
N780   N     0.65207   0.27220   0.23019   0.00000  Uiso   1.00
N781   N     0.35223   0.33340   0.84433   0.00000  Uiso   1.00
N782   N     0.38905   0.37799   0.21495   0.00000  Uiso   1.00
C783   C     0.16628   0.64338   0.93177   0.00000  Uiso   1.00
C784   C     0.12422   0.61964   0.90151   0.00000  Uiso   1.00
C785   C     0.06480   0.62026   0.87564   0.00000  Uiso   1.00
C786   C     0.03390   0.59642   0.85024   0.00000  Uiso   1.00
C787   C     0.96439   0.56315   0.80315   0.00000  Uiso   1.00
C788   C     0.19341   0.64600   0.89276   0.00000  Uiso   1.00
C789   C     0.19217   0.66878   0.85955   0.00000  Uiso   1.00
C790   C     0.21952   0.66714   0.82679   0.00000  Uiso   1.00
C791   C     0.25747   0.67480   0.76617   0.00000  Uiso   1.00
C792   C     0.21600   0.63473   0.00163   0.00000  Uiso   1.00
C793   C     0.23377   0.64804   0.05995   0.00000  Uiso   1.00
C794   C     0.28016   0.63690   0.11886   0.00000  Uiso   1.00
C795   C     0.35319   0.62706   0.22727   0.00000  Uiso   1.00
C796   C     0.21706   0.59995   0.93267   0.00000  Uiso   1.00
C797   C     0.15180   0.59605   0.90200   0.00000  Uiso   1.00
C798   C     0.12099   0.57221   0.87663   0.00000  Uiso   1.00
C799   C     0.06153   0.57279   0.85073   0.00000  Uiso   1.00
C800   C     0.22099   0.62242   0.89325   0.00000  Uiso   1.00
C801   C     0.24836   0.62073   0.86054   0.00000  Uiso   1.00
C802   C     0.24716   0.64350   0.82728   0.00000  Uiso   1.00
C803   C     0.24359   0.61114   0.00212   0.00000  Uiso   1.00
C804   C     0.28996   0.59998   0.06095   0.00000  Uiso   1.00
C805   C     0.30779   0.61327   0.11935   0.00000  Uiso   1.00
H806   H     0.14480   0.66174   0.93138   0.00000  Uiso   1.00
H807   H     0.04347   0.63852   0.87526   0.00000  Uiso   1.00
H808   H     0.17082   0.68704   0.85918   0.00000  Uiso   1.00
H809   H     0.21242   0.66629   0.05955   0.00000  Uiso   1.00
H810   H     0.94328   0.60236   0.81323   0.00000  Uiso   1.00
H811   H     0.21183   0.70467   0.77935   0.00000  Uiso   1.00
H812   H     0.79954   0.16093   0.20188   0.00000  Uiso   1.00
H813   H     0.23854   0.58158   0.93305   0.00000  Uiso   1.00
H814   H     0.14235   0.55396   0.87702   0.00000  Uiso   1.00
H815   H     0.26970   0.60248   0.86094   0.00000  Uiso   1.00
H816   H     0.31129   0.58173   0.06131   0.00000  Uiso   1.00
H817   H     0.02353   0.53373   0.81466   0.00000  Uiso   1.00
H818   H     0.29209   0.63604   0.78077   0.00000  Uiso   1.00
H819   H     0.37980   0.59229   0.20330   0.00000  Uiso   1.00
O820   O     0.91843   0.55132   0.77704   0.00000  Uiso   1.00
O821   O     0.27078   0.68555   0.73259   0.00000  Uiso   1.00
O822   O     0.88584   0.12815   0.28693   0.00000  Uiso   1.00
N823   N     0.97537   0.59000   0.82127   0.00000  Uiso   1.00
N824   N     0.22645   0.68565   0.78958   0.00000  Uiso   1.00
N825   N     0.30846   0.64476   0.18461   0.00000  Uiso   1.00
N826   N     0.01856   0.55307   0.82204   0.00000  Uiso   1.00
N827   N     0.26963   0.64872   0.79035   0.00000  Uiso   1.00
N828   N     0.35164   0.60783   0.18537   0.00000  Uiso   1.00
C829   C     0.58219   0.06450   0.07002   0.00000  Uiso   1.00
C830   C     0.60210   0.09360   0.08717   0.00000  Uiso   1.00
C831   C     0.56765   0.11594   0.05426   0.00000  Uiso   1.00
C832   C     0.59400   0.14084   0.07758   0.00000  Uiso   1.00
C833   C     0.61597   0.18566   0.09597   0.00000  Uiso   1.00
C834   C     0.59381   0.05200   0.13319   0.00000  Uiso   1.00
C835   C     0.55239   0.03936   0.13897   0.00000  Uiso   1.00
C836   C     0.57177   0.02924   0.20102   0.00000  Uiso   1.00
C837   C     0.58088   0.00945   0.29085   0.00000  Uiso   1.00
C838   C     0.62471   0.05097   0.05818   0.00000  Uiso   1.00
C839   C     0.60928   0.03746   0.00090   0.00000  Uiso   1.00
C840   C     0.65468   0.02647   0.99981   0.00000  Uiso   1.00
C841   C     0.71178   0.00509   0.97318   0.00000  Uiso   1.00
C842   C     0.69025   0.06899   0.16993   0.00000  Uiso   1.00
C843   C     0.66079   0.09604   0.14144   0.00000  Uiso   1.00
C844   C     0.68720   0.12091   0.16481   0.00000  Uiso   1.00
C845   C     0.65280   0.14329   0.13194   0.00000  Uiso   1.00
C846   C     0.65250   0.05444   0.18745   0.00000  Uiso   1.00
C847   C     0.67195   0.04433   0.24951   0.00000  Uiso   1.00
C848   C     0.63057   0.03168   0.25539   0.00000  Uiso   1.00
C849   C     0.68341   0.05341   0.11245   0.00000  Uiso   1.00
C850   C     0.72884   0.04244   0.11145   0.00000  Uiso   1.00
C851   C     0.71348   0.02891   0.05418   0.00000  Uiso   1.00
H852   H     0.53649   0.06259   0.02777   0.00000  Uiso   1.00
H853   H     0.52222   0.11404   0.01227   0.00000  Uiso   1.00
H854   H     0.50697   0.03747   0.09696   0.00000  Uiso   1.00
H855   H     0.56386   0.03557   0.95892   0.00000  Uiso   1.00
H856   H     0.53228   0.17216   0.01904   0.00000  Uiso   1.00
H857   H     0.50013   0.01069   0.19761   0.00000  Uiso   1.00
H858   H     0.62008   0.00669   0.90651   0.00000  Uiso   1.00
H859   H     0.73595   0.07089   0.21219   0.00000  Uiso   1.00
H860   H     0.73263   0.12280   0.20680   0.00000  Uiso   1.00
H861   H     0.71737   0.04623   0.29150   0.00000  Uiso   1.00
H862   H     0.77426   0.04433   0.15345   0.00000  Uiso   1.00
H863   H     0.70305   0.17927   0.17693   0.00000  Uiso   1.00
H864   H     0.67090   0.01780   0.35550   0.00000  Uiso   1.00
H865   H     0.79085   0.01380   0.06440   0.00000  Uiso   1.00
O866   O     0.61188   0.20971   0.09113   0.00000  Uiso   1.00
O867   O     0.56969   0.99787   0.32540   0.00000  Uiso   1.00
O868   O     0.72706   0.99262   0.94349   0.00000  Uiso   1.00
N869   N     0.57293   0.16671   0.05693   0.00000  Uiso   1.00
N870   N     0.54287   0.01575   0.22388   0.00000  Uiso   1.00
N871   N     0.65501   0.01201   0.95174   0.00000  Uiso   1.00
N872   N     0.66482   0.17053   0.14189   0.00000  Uiso   1.00
N873   N     0.63476   0.01957   0.30884   0.00000  Uiso   1.00
N874   N     0.74690   0.01583   0.03670   0.00000  Uiso   1.00
C875   C     0.09201   0.78960   0.41451   0.00000  Uiso   1.00
C876   C     0.02636   0.78371   0.37494   0.00000  Uiso   1.00
C877   C     0.00008   0.75916   0.34732   0.00000  Uiso   1.00
C878   C     0.93939   0.75787   0.31296   0.00000  Uiso   1.00
C879   C     0.84251   0.74531   0.25253   0.00000  Uiso   1.00
C880   C     0.10899   0.80057   0.48128   0.00000  Uiso   1.00
C881   C     0.15220   0.79021   0.54309   0.00000  Uiso   1.00
C882   C     0.16107   0.80312   0.59825   0.00000  Uiso   1.00
C883   C     0.19250   0.81675   0.70293   0.00000  Uiso   1.00
C884   C     0.09884   0.81286   0.37913   0.00000  Uiso   1.00
C885   C     0.13351   0.81283   0.35506   0.00000  Uiso   1.00
C886   C     0.13385   0.83609   0.32423   0.00000  Uiso   1.00
C887   C     0.14952   0.86879   0.27030   0.00000  Uiso   1.00
C888   C     0.03096   0.83096   0.40258   0.00000  Uiso   1.00
C889   C     0.99320   0.80617   0.36846   0.00000  Uiso   1.00
C890   C     0.93254   0.80492   0.33413   0.00000  Uiso   1.00
C891   C     0.90618   0.78038   0.30647   0.00000  Uiso   1.00
C892   C     0.07584   0.82304   0.47481   0.00000  Uiso   1.00
C893   C     0.08466   0.83597   0.52989   0.00000  Uiso   1.00
C894   C     0.12786   0.82563   0.59176   0.00000  Uiso   1.00
C895   C     0.06568   0.83532   0.37265   0.00000  Uiso   1.00
C896   C     0.06597   0.85859   0.34186   0.00000  Uiso   1.00
C897   C     0.10064   0.85859   0.31774   0.00000  Uiso   1.00
H898   H     0.11782   0.77211   0.41955   0.00000  Uiso   1.00
H899   H     0.02576   0.74178   0.35235   0.00000  Uiso   1.00
H900   H     0.17785   0.77283   0.54808   0.00000  Uiso   1.00
H901   H     0.15917   0.79544   0.36008   0.00000  Uiso   1.00
H902   H     0.90906   0.71806   0.27501   0.00000  Uiso   1.00
H903   H     0.22978   0.78353   0.68772   0.00000  Uiso   1.00
H904   H     0.69038   0.33122   0.29128   0.00000  Uiso   1.00
H905   H     0.00515   0.84845   0.39754   0.00000  Uiso   1.00
H906   H     0.90689   0.82231   0.32913   0.00000  Uiso   1.00
H907   H     0.05899   0.85335   0.52486   0.00000  Uiso   1.00
H908   H     0.04031   0.87597   0.33686   0.00000  Uiso   1.00
H909   H     0.81259   0.78342   0.25616   0.00000  Uiso   1.00
H910   H     0.13331   0.84888   0.66887   0.00000  Uiso   1.00
H911   H     0.09391   0.89657   0.27243   0.00000  Uiso   1.00
O912   O     0.79823   0.73217   0.22100   0.00000  Uiso   1.00
O913   O     0.21900   0.81806   0.76246   0.00000  Uiso   1.00
O914   O     0.66731   0.38062   0.24234   0.00000  Uiso   1.00
N915   N     0.89984   0.73703   0.27995   0.00000  Uiso   1.00
N916   N     0.19968   0.79824   0.66581   0.00000  Uiso   1.00
N917   N     0.66286   0.34282   0.29519   0.00000  Uiso   1.00
N918   N     0.84793   0.77220   0.26981   0.00000  Uiso   1.00
N919   N     0.14777   0.83340   0.65567   0.00000  Uiso   1.00
N920   N     0.11095   0.87799   0.28505   0.00000  Uiso   1.00
C921   C     0.33372   0.14338   0.56823   0.00000  Uiso   1.00
C922   C     0.37578   0.11964   0.59849   0.00000  Uiso   1.00
C923   C     0.43520   0.12026   0.62436   0.00000  Uiso   1.00
C924   C     0.46610   0.09642   0.64976   0.00000  Uiso   1.00
C925   C     0.53561   0.06315   0.69685   0.00000  Uiso   1.00
C926   C     0.30659   0.14600   0.60724   0.00000  Uiso   1.00
C927   C     0.30783   0.16878   0.64045   0.00000  Uiso   1.00
C928   C     0.28048   0.16714   0.67321   0.00000  Uiso   1.00
C929   C     0.24253   0.17480   0.73383   0.00000  Uiso   1.00
C930   C     0.28400   0.13473   0.49837   0.00000  Uiso   1.00
C931   C     0.26623   0.14804   0.44005   0.00000  Uiso   1.00
C932   C     0.21984   0.13690   0.38114   0.00000  Uiso   1.00
C933   C     0.14681   0.12706   0.27273   0.00000  Uiso   1.00
C934   C     0.28294   0.09995   0.56733   0.00000  Uiso   1.00
C935   C     0.34820   0.09605   0.59800   0.00000  Uiso   1.00
C936   C     0.37901   0.07221   0.62337   0.00000  Uiso   1.00
C937   C     0.43847   0.07279   0.64927   0.00000  Uiso   1.00
C938   C     0.27901   0.12242   0.60675   0.00000  Uiso   1.00
C939   C     0.25164   0.12073   0.63946   0.00000  Uiso   1.00
C940   C     0.25284   0.14350   0.67272   0.00000  Uiso   1.00
C941   C     0.25641   0.11114   0.49788   0.00000  Uiso   1.00
C942   C     0.21004   0.09998   0.43905   0.00000  Uiso   1.00
C943   C     0.19221   0.11327   0.38065   0.00000  Uiso   1.00
H944   H     0.35520   0.16174   0.56862   0.00000  Uiso   1.00
H945   H     0.45653   0.13852   0.62474   0.00000  Uiso   1.00
H946   H     0.32918   0.18704   0.64082   0.00000  Uiso   1.00
H947   H     0.28758   0.16629   0.44045   0.00000  Uiso   1.00
H948   H     0.55672   0.10236   0.68677   0.00000  Uiso   1.00
H949   H     0.28817   0.20467   0.72065   0.00000  Uiso   1.00
H950   H     0.70046   0.66093   0.29812   0.00000  Uiso   1.00
H951   H     0.26146   0.08158   0.56695   0.00000  Uiso   1.00
H952   H     0.35765   0.05396   0.62298   0.00000  Uiso   1.00
H953   H     0.23030   0.10248   0.63906   0.00000  Uiso   1.00
H954   H     0.18871   0.08173   0.43869   0.00000  Uiso   1.00
H955   H     0.47647   0.03373   0.68534   0.00000  Uiso   1.00
H956   H     0.20791   0.13604   0.71923   0.00000  Uiso   1.00
H957   H     0.12020   0.09229   0.29670   0.00000  Uiso   1.00
O958   O     0.58157   0.05132   0.72296   0.00000  Uiso   1.00
O959   O     0.22922   0.18555   0.76741   0.00000  Uiso   1.00
O960   O     0.61416   0.62815   0.21307   0.00000  Uiso   1.00
N961   N     0.52463   0.09000   0.67873   0.00000  Uiso   1.00
N962   N     0.27355   0.18565   0.71042   0.00000  Uiso   1.00
N963   N     0.19154   0.14476   0.31539   0.00000  Uiso   1.00
N964   N     0.48144   0.05307   0.67796   0.00000  Uiso   1.00
N965   N     0.23037   0.14872   0.70965   0.00000  Uiso   1.00
N966   N     0.14836   0.10783   0.31463   0.00000  Uiso   1.00
C967   C     0.08219   0.56450   0.07002   0.00000  Uiso   1.00
C968   C     0.10210   0.59360   0.08717   0.00000  Uiso   1.00
C969   C     0.06765   0.61594   0.05426   0.00000  Uiso   1.00
C970   C     0.09400   0.64084   0.07758   0.00000  Uiso   1.00
C971   C     0.11597   0.68566   0.09597   0.00000  Uiso   1.00
C972   C     0.09381   0.55200   0.13319   0.00000  Uiso   1.00
C973   C     0.05239   0.53936   0.13897   0.00000  Uiso   1.00
C974   C     0.07177   0.52924   0.20102   0.00000  Uiso   1.00
C975   C     0.08088   0.50945   0.29085   0.00000  Uiso   1.00
C976   C     0.12471   0.55097   0.05818   0.00000  Uiso   1.00
C977   C     0.10928   0.53746   0.00090   0.00000  Uiso   1.00
C978   C     0.15468   0.52647   0.99981   0.00000  Uiso   1.00
C979   C     0.21178   0.50509   0.97318   0.00000  Uiso   1.00
C980   C     0.19025   0.56899   0.16993   0.00000  Uiso   1.00
C981   C     0.16079   0.59604   0.14144   0.00000  Uiso   1.00
C982   C     0.18720   0.62091   0.16481   0.00000  Uiso   1.00
C983   C     0.15280   0.64329   0.13194   0.00000  Uiso   1.00
C984   C     0.15250   0.55444   0.18745   0.00000  Uiso   1.00
C985   C     0.17195   0.54433   0.24951   0.00000  Uiso   1.00
C986   C     0.13057   0.53168   0.25539   0.00000  Uiso   1.00
C987   C     0.18341   0.55341   0.11245   0.00000  Uiso   1.00
C988   C     0.22884   0.54244   0.11145   0.00000  Uiso   1.00
C989   C     0.21348   0.52891   0.05418   0.00000  Uiso   1.00
H990   H     0.03649   0.56259   0.02777   0.00000  Uiso   1.00
H991   H     0.02222   0.61404   0.01227   0.00000  Uiso   1.00
H992   H     0.00697   0.53747   0.09696   0.00000  Uiso   1.00
H993   H     0.06386   0.53557   0.95892   0.00000  Uiso   1.00
H994   H     0.03228   0.67216   0.01904   0.00000  Uiso   1.00
H995   H     0.00013   0.51069   0.19761   0.00000  Uiso   1.00
H996   H     0.12008   0.50669   0.90651   0.00000  Uiso   1.00
H997   H     0.23595   0.57089   0.21219   0.00000  Uiso   1.00
H998   H     0.23263   0.62280   0.20680   0.00000  Uiso   1.00
H999   H     0.21737   0.54623   0.29150   0.00000  Uiso   1.00
H1000  H     0.27426   0.54433   0.15345   0.00000  Uiso   1.00
H1001  H     0.20305   0.67927   0.17693   0.00000  Uiso   1.00
H1002  H     0.17090   0.51780   0.35550   0.00000  Uiso   1.00
H1003  H     0.29085   0.51380   0.06440   0.00000  Uiso   1.00
O1004  O     0.11188   0.70971   0.09113   0.00000  Uiso   1.00
O1005  O     0.06969   0.49787   0.32540   0.00000  Uiso   1.00
O1006  O     0.22706   0.49262   0.94349   0.00000  Uiso   1.00
N1007  N     0.07293   0.66671   0.05693   0.00000  Uiso   1.00
N1008  N     0.04287   0.51575   0.22388   0.00000  Uiso   1.00
N1009  N     0.15501   0.51201   0.95174   0.00000  Uiso   1.00
N1010  N     0.16482   0.67053   0.14189   0.00000  Uiso   1.00
N1011  N     0.13476   0.51957   0.30884   0.00000  Uiso   1.00
N1012  N     0.24690   0.51583   0.03670   0.00000  Uiso   1.00
C1013  C     0.59201   0.28960   0.41451   0.00000  Uiso   1.00
C1014  C     0.52636   0.28371   0.37494   0.00000  Uiso   1.00
C1015  C     0.50008   0.25916   0.34732   0.00000  Uiso   1.00
C1016  C     0.43939   0.25787   0.31296   0.00000  Uiso   1.00
C1017  C     0.34251   0.24531   0.25253   0.00000  Uiso   1.00
C1018  C     0.60899   0.30057   0.48128   0.00000  Uiso   1.00
C1019  C     0.65220   0.29021   0.54309   0.00000  Uiso   1.00
C1020  C     0.66107   0.30312   0.59825   0.00000  Uiso   1.00
C1021  C     0.69250   0.31675   0.70293   0.00000  Uiso   1.00
C1022  C     0.59884   0.31286   0.37913   0.00000  Uiso   1.00
C1023  C     0.63351   0.31283   0.35506   0.00000  Uiso   1.00
C1024  C     0.63385   0.33609   0.32423   0.00000  Uiso   1.00
C1025  C     0.64952   0.36879   0.27030   0.00000  Uiso   1.00
C1026  C     0.53096   0.33096   0.40258   0.00000  Uiso   1.00
C1027  C     0.49320   0.30617   0.36846   0.00000  Uiso   1.00
C1028  C     0.43254   0.30492   0.33413   0.00000  Uiso   1.00
C1029  C     0.40618   0.28038   0.30647   0.00000  Uiso   1.00
C1030  C     0.57584   0.32304   0.47481   0.00000  Uiso   1.00
C1031  C     0.58466   0.33597   0.52989   0.00000  Uiso   1.00
C1032  C     0.62786   0.32563   0.59176   0.00000  Uiso   1.00
C1033  C     0.56568   0.33532   0.37265   0.00000  Uiso   1.00
C1034  C     0.56597   0.35859   0.34186   0.00000  Uiso   1.00
C1035  C     0.60064   0.35859   0.31774   0.00000  Uiso   1.00
H1036  H     0.61782   0.27211   0.41955   0.00000  Uiso   1.00
H1037  H     0.52576   0.24178   0.35235   0.00000  Uiso   1.00
H1038  H     0.67785   0.27283   0.54808   0.00000  Uiso   1.00
H1039  H     0.65917   0.29544   0.36008   0.00000  Uiso   1.00
H1040  H     0.40906   0.21806   0.27501   0.00000  Uiso   1.00
H1041  H     0.72978   0.28353   0.68772   0.00000  Uiso   1.00
H1042  H     0.19038   0.83122   0.29128   0.00000  Uiso   1.00
H1043  H     0.50515   0.34845   0.39754   0.00000  Uiso   1.00
H1044  H     0.40689   0.32231   0.32913   0.00000  Uiso   1.00
H1045  H     0.55899   0.35335   0.52486   0.00000  Uiso   1.00
H1046  H     0.54031   0.37597   0.33686   0.00000  Uiso   1.00
H1047  H     0.31259   0.28342   0.25616   0.00000  Uiso   1.00
H1048  H     0.63331   0.34888   0.66887   0.00000  Uiso   1.00
H1049  H     0.59391   0.39657   0.27243   0.00000  Uiso   1.00
O1050  O     0.29823   0.23217   0.22100   0.00000  Uiso   1.00
O1051  O     0.71900   0.31806   0.76246   0.00000  Uiso   1.00
O1052  O     0.16731   0.88062   0.24234   0.00000  Uiso   1.00
N1053  N     0.39984   0.23703   0.27995   0.00000  Uiso   1.00
N1054  N     0.69968   0.29824   0.66581   0.00000  Uiso   1.00
N1055  N     0.16286   0.84282   0.29519   0.00000  Uiso   1.00
N1056  N     0.34793   0.27220   0.26981   0.00000  Uiso   1.00
N1057  N     0.64777   0.33340   0.65567   0.00000  Uiso   1.00
N1058  N     0.61095   0.37799   0.28505   0.00000  Uiso   1.00
C1059  C     0.83372   0.64338   0.56823   0.00000  Uiso   1.00
C1060  C     0.87578   0.61964   0.59849   0.00000  Uiso   1.00
C1061  C     0.93520   0.62026   0.62436   0.00000  Uiso   1.00
C1062  C     0.96610   0.59642   0.64976   0.00000  Uiso   1.00
C1063  C     0.03561   0.56315   0.69685   0.00000  Uiso   1.00
C1064  C     0.80659   0.64600   0.60724   0.00000  Uiso   1.00
C1065  C     0.80783   0.66878   0.64045   0.00000  Uiso   1.00
C1066  C     0.78048   0.66714   0.67321   0.00000  Uiso   1.00
C1067  C     0.74253   0.67480   0.73383   0.00000  Uiso   1.00
C1068  C     0.78400   0.63473   0.49837   0.00000  Uiso   1.00
C1069  C     0.76623   0.64804   0.44005   0.00000  Uiso   1.00
C1070  C     0.71984   0.63690   0.38114   0.00000  Uiso   1.00
C1071  C     0.64681   0.62706   0.27273   0.00000  Uiso   1.00
C1072  C     0.78294   0.59995   0.56733   0.00000  Uiso   1.00
C1073  C     0.84820   0.59605   0.59800   0.00000  Uiso   1.00
C1074  C     0.87901   0.57221   0.62337   0.00000  Uiso   1.00
C1075  C     0.93847   0.57279   0.64927   0.00000  Uiso   1.00
C1076  C     0.77901   0.62242   0.60675   0.00000  Uiso   1.00
C1077  C     0.75164   0.62073   0.63946   0.00000  Uiso   1.00
C1078  C     0.75284   0.64350   0.67272   0.00000  Uiso   1.00
C1079  C     0.75641   0.61114   0.49788   0.00000  Uiso   1.00
C1080  C     0.71004   0.59998   0.43905   0.00000  Uiso   1.00
C1081  C     0.69221   0.61327   0.38065   0.00000  Uiso   1.00
H1082  H     0.85520   0.66174   0.56862   0.00000  Uiso   1.00
H1083  H     0.95653   0.63852   0.62474   0.00000  Uiso   1.00
H1084  H     0.82918   0.68704   0.64082   0.00000  Uiso   1.00
H1085  H     0.78758   0.66629   0.44045   0.00000  Uiso   1.00
H1086  H     0.05672   0.60236   0.68677   0.00000  Uiso   1.00
H1087  H     0.78817   0.70467   0.72065   0.00000  Uiso   1.00
H1088  H     0.20046   0.16093   0.29812   0.00000  Uiso   1.00
H1089  H     0.76146   0.58158   0.56695   0.00000  Uiso   1.00
H1090  H     0.85765   0.55396   0.62298   0.00000  Uiso   1.00
H1091  H     0.73030   0.60248   0.63906   0.00000  Uiso   1.00
H1092  H     0.68871   0.58173   0.43869   0.00000  Uiso   1.00
H1093  H     0.97647   0.53373   0.68534   0.00000  Uiso   1.00
H1094  H     0.70791   0.63604   0.71923   0.00000  Uiso   1.00
H1095  H     0.62020   0.59229   0.29670   0.00000  Uiso   1.00
O1096  O     0.08157   0.55132   0.72296   0.00000  Uiso   1.00
O1097  O     0.72922   0.68555   0.76741   0.00000  Uiso   1.00
O1098  O     0.11416   0.12815   0.21307   0.00000  Uiso   1.00
N1099  N     0.02463   0.59000   0.67873   0.00000  Uiso   1.00
N1100  N     0.77355   0.68565   0.71042   0.00000  Uiso   1.00
N1101  N     0.69154   0.64476   0.31539   0.00000  Uiso   1.00
N1102  N     0.98144   0.55307   0.67796   0.00000  Uiso   1.00
N1103  N     0.73037   0.64872   0.70965   0.00000  Uiso   1.00
N1104  N     0.64836   0.60783   0.31463   0.00000  Uiso   1.00
