data_job_05169
_audit_creation_date              2018-12-19
_audit_creation_method            'Materials Studio'
_symmetry_space_group_name_H-M    'P1'
_symmetry_Int_Tables_number       1
_symmetry_cell_setting            triclinic
loop_
_symmetry_equiv_pos_as_xyz
  x,y,z
_cell_length_a                    29.4841
_cell_length_b                    29.4841
_cell_length_c                    11.2411
_cell_angle_alpha                 90.0000
_cell_angle_beta                  90.0000
_cell_angle_gamma                 90.0000
loop_
_atom_site_label
_atom_site_type_symbol
_atom_site_fract_x
_atom_site_fract_y
_atom_site_fract_z
_atom_site_U_iso_or_equiv
_atom_site_adp_type
_atom_site_occupancy
C1     C     0.20195   0.01818   0.65840   0.00000  Uiso   1.00
C2     C     0.15756   0.99345   0.68375   0.00000  Uiso   1.00
C3     C     0.12957   0.00071   0.78117   0.00000  Uiso   1.00
C4     C     0.09046   0.97462   0.78825   0.00000  Uiso   1.00
C5     C     0.02318   0.94110   0.84091   0.00000  Uiso   1.00
C6     C     0.23806   0.98144   0.64630   0.00000  Uiso   1.00
C7     C     0.27775   0.97861   0.71223   0.00000  Uiso   1.00
C8     C     0.30641   0.94242   0.68778   0.00000  Uiso   1.00
C9     C     0.36411   0.89027   0.68225   0.00000  Uiso   1.00
C10    C     0.19673   0.03907   0.53506   0.00000  Uiso   1.00
C11    C     0.20169   0.08468   0.50744   0.00000  Uiso   1.00
C12    C     0.19555   0.09700   0.38932   0.00000  Uiso   1.00
C13    C     0.18909   0.13432   0.21106   0.00000  Uiso   1.00
C14    C     0.18225   0.95897   0.49773   0.00000  Uiso   1.00
C15    C     0.14687   0.96129   0.59648   0.00000  Uiso   1.00
C16    C     0.10778   0.93519   0.60341   0.00000  Uiso   1.00
C17    C     0.07974   0.94240   0.70082   0.00000  Uiso   1.00
C18    C     0.22736   0.94928   0.55904   0.00000  Uiso   1.00
C19    C     0.25596   0.91309   0.53447   0.00000  Uiso   1.00
C20    C     0.29569   0.91019   0.60036   0.00000  Uiso   1.00
C21    C     0.18603   0.00690   0.44779   0.00000  Uiso   1.00
C22    C     0.17989   0.01916   0.32968   0.00000  Uiso   1.00
C23    C     0.18484   0.06478   0.30189   0.00000  Uiso   1.00
H24    H     0.21028   0.04322   0.72634   0.00000  Uiso   1.00
H25    H     0.13787   0.02560   0.84869   0.00000  Uiso   1.00
H26    H     0.28603   0.00350   0.77975   0.00000  Uiso   1.00
H27    H     0.20996   0.10956   0.57500   0.00000  Uiso   1.00
H28    H     0.05288   0.99186   0.94587   0.00000  Uiso   1.00
H29    H     0.36528   0.94528   0.80049   0.00000  Uiso   1.00
H30    H     0.20490   0.16892   0.36872   0.00000  Uiso   1.00
H31    H     0.17392   0.93392   0.42979   0.00000  Uiso   1.00
H32    H     0.09951   0.91030   0.53586   0.00000  Uiso   1.00
H33    H     0.24767   0.88821   0.46693   0.00000  Uiso   1.00
H34    H     0.17161   0.99426   0.26217   0.00000  Uiso   1.00
H35    H     0.02175   0.89828   0.69197   0.00000  Uiso   1.00
H36    H     0.33416   0.85170   0.54659   0.00000  Uiso   1.00
H37    H     0.17377   0.07533   0.11482   0.00000  Uiso   1.00
O38    O     0.98903   0.93149   0.89407   0.00000  Uiso   1.00
O39    O     0.39890   0.87039   0.70332   0.00000  Uiso   1.00
O40    O     0.18847   0.16379   0.13685   0.00000  Uiso   1.00
N41    N     0.05576   0.97309   0.87154   0.00000  Uiso   1.00
N42    N     0.34784   0.92953   0.73564   0.00000  Uiso   1.00
N43    N     0.19790   0.13861   0.33196   0.00000  Uiso   1.00
N44    N     0.03901   0.92273   0.73492   0.00000  Uiso   1.00
N45    N     0.33109   0.87918   0.59902   0.00000  Uiso   1.00
N46    N     0.18115   0.08825   0.19534   0.00000  Uiso   1.00
C47    C     0.70195   0.51818   0.15840   0.00000  Uiso   1.00
C48    C     0.65756   0.49345   0.18375   0.00000  Uiso   1.00
C49    C     0.62957   0.50071   0.28117   0.00000  Uiso   1.00
C50    C     0.59046   0.47462   0.28825   0.00000  Uiso   1.00
C51    C     0.52318   0.44110   0.34091   0.00000  Uiso   1.00
C52    C     0.73806   0.48144   0.14630   0.00000  Uiso   1.00
C53    C     0.77775   0.47861   0.21223   0.00000  Uiso   1.00
C54    C     0.80641   0.44242   0.18778   0.00000  Uiso   1.00
C55    C     0.86411   0.39027   0.18225   0.00000  Uiso   1.00
C56    C     0.69673   0.53907   0.03506   0.00000  Uiso   1.00
C57    C     0.70169   0.58468   0.00744   0.00000  Uiso   1.00
C58    C     0.69555   0.59700   0.88932   0.00000  Uiso   1.00
C59    C     0.68909   0.63432   0.71106   0.00000  Uiso   1.00
C60    C     0.68225   0.45897   0.99773   0.00000  Uiso   1.00
C61    C     0.64687   0.46129   0.09648   0.00000  Uiso   1.00
C62    C     0.60778   0.43519   0.10341   0.00000  Uiso   1.00
C63    C     0.57974   0.44240   0.20082   0.00000  Uiso   1.00
C64    C     0.72736   0.44928   0.05904   0.00000  Uiso   1.00
C65    C     0.75596   0.41309   0.03447   0.00000  Uiso   1.00
C66    C     0.79569   0.41019   0.10036   0.00000  Uiso   1.00
C67    C     0.68603   0.50690   0.94779   0.00000  Uiso   1.00
C68    C     0.67989   0.51916   0.82968   0.00000  Uiso   1.00
C69    C     0.68484   0.56478   0.80189   0.00000  Uiso   1.00
H70    H     0.71028   0.54322   0.22634   0.00000  Uiso   1.00
H71    H     0.63787   0.52560   0.34869   0.00000  Uiso   1.00
H72    H     0.78603   0.50350   0.27975   0.00000  Uiso   1.00
H73    H     0.70996   0.60956   0.07500   0.00000  Uiso   1.00
H74    H     0.55288   0.49186   0.44587   0.00000  Uiso   1.00
H75    H     0.86528   0.44528   0.30049   0.00000  Uiso   1.00
H76    H     0.70490   0.66892   0.86872   0.00000  Uiso   1.00
H77    H     0.67392   0.43392   0.92979   0.00000  Uiso   1.00
H78    H     0.59951   0.41030   0.03586   0.00000  Uiso   1.00
H79    H     0.74767   0.38821   0.96693   0.00000  Uiso   1.00
H80    H     0.67161   0.49426   0.76217   0.00000  Uiso   1.00
H81    H     0.52175   0.39828   0.19197   0.00000  Uiso   1.00
H82    H     0.83416   0.35170   0.04659   0.00000  Uiso   1.00
H83    H     0.67377   0.57533   0.61482   0.00000  Uiso   1.00
O84    O     0.48903   0.43149   0.39407   0.00000  Uiso   1.00
O85    O     0.89890   0.37039   0.20332   0.00000  Uiso   1.00
O86    O     0.68847   0.66379   0.63685   0.00000  Uiso   1.00
N87    N     0.55576   0.47309   0.37154   0.00000  Uiso   1.00
N88    N     0.84784   0.42953   0.23564   0.00000  Uiso   1.00
N89    N     0.69790   0.63861   0.83196   0.00000  Uiso   1.00
N90    N     0.53901   0.42273   0.23492   0.00000  Uiso   1.00
N91    N     0.83109   0.37918   0.09902   0.00000  Uiso   1.00
N92    N     0.68115   0.58825   0.69534   0.00000  Uiso   1.00
C93    C     0.79805   0.98182   0.65840   0.00000  Uiso   1.00
C94    C     0.84244   0.00655   0.68375   0.00000  Uiso   1.00
C95    C     0.87043   0.99929   0.78117   0.00000  Uiso   1.00
C96    C     0.90954   0.02538   0.78825   0.00000  Uiso   1.00
C97    C     0.97682   0.05890   0.84091   0.00000  Uiso   1.00
C98    C     0.76194   0.01856   0.64630   0.00000  Uiso   1.00
C99    C     0.72225   0.02139   0.71223   0.00000  Uiso   1.00
C100   C     0.69359   0.05758   0.68778   0.00000  Uiso   1.00
C101   C     0.63589   0.10973   0.68225   0.00000  Uiso   1.00
C102   C     0.80327   0.96093   0.53506   0.00000  Uiso   1.00
C103   C     0.79831   0.91532   0.50744   0.00000  Uiso   1.00
C104   C     0.80445   0.90300   0.38932   0.00000  Uiso   1.00
C105   C     0.81091   0.86568   0.21106   0.00000  Uiso   1.00
C106   C     0.81775   0.04103   0.49773   0.00000  Uiso   1.00
C107   C     0.85313   0.03871   0.59648   0.00000  Uiso   1.00
C108   C     0.89222   0.06481   0.60341   0.00000  Uiso   1.00
C109   C     0.92026   0.05760   0.70082   0.00000  Uiso   1.00
C110   C     0.77264   0.05072   0.55904   0.00000  Uiso   1.00
C111   C     0.74404   0.08691   0.53447   0.00000  Uiso   1.00
C112   C     0.70431   0.08981   0.60036   0.00000  Uiso   1.00
C113   C     0.81397   0.99310   0.44779   0.00000  Uiso   1.00
C114   C     0.82011   0.98084   0.32968   0.00000  Uiso   1.00
C115   C     0.81516   0.93522   0.30189   0.00000  Uiso   1.00
H116   H     0.78972   0.95678   0.72634   0.00000  Uiso   1.00
H117   H     0.86213   0.97440   0.84869   0.00000  Uiso   1.00
H118   H     0.71397   0.99650   0.77975   0.00000  Uiso   1.00
H119   H     0.79004   0.89044   0.57500   0.00000  Uiso   1.00
H120   H     0.94712   0.00814   0.94587   0.00000  Uiso   1.00
H121   H     0.63472   0.05472   0.80049   0.00000  Uiso   1.00
H122   H     0.79510   0.83108   0.36872   0.00000  Uiso   1.00
H123   H     0.82608   0.06608   0.42979   0.00000  Uiso   1.00
H124   H     0.90049   0.08970   0.53586   0.00000  Uiso   1.00
H125   H     0.75233   0.11179   0.46693   0.00000  Uiso   1.00
H126   H     0.82839   0.00574   0.26217   0.00000  Uiso   1.00
H127   H     0.97825   0.10172   0.69197   0.00000  Uiso   1.00
H128   H     0.66584   0.14830   0.54659   0.00000  Uiso   1.00
H129   H     0.82623   0.92467   0.11482   0.00000  Uiso   1.00
O130   O     0.01097   0.06851   0.89407   0.00000  Uiso   1.00
O131   O     0.60110   0.12961   0.70332   0.00000  Uiso   1.00
O132   O     0.81153   0.83621   0.13685   0.00000  Uiso   1.00
N133   N     0.94424   0.02691   0.87154   0.00000  Uiso   1.00
N134   N     0.65216   0.07047   0.73564   0.00000  Uiso   1.00
N135   N     0.80210   0.86139   0.33196   0.00000  Uiso   1.00
N136   N     0.96099   0.07727   0.73492   0.00000  Uiso   1.00
N137   N     0.66891   0.12082   0.59902   0.00000  Uiso   1.00
N138   N     0.81885   0.91175   0.19534   0.00000  Uiso   1.00
C139   C     0.29805   0.48182   0.15840   0.00000  Uiso   1.00
C140   C     0.34244   0.50655   0.18375   0.00000  Uiso   1.00
C141   C     0.37043   0.49929   0.28117   0.00000  Uiso   1.00
C142   C     0.40954   0.52538   0.28825   0.00000  Uiso   1.00
C143   C     0.47682   0.55890   0.34091   0.00000  Uiso   1.00
C144   C     0.26194   0.51856   0.14630   0.00000  Uiso   1.00
C145   C     0.22225   0.52139   0.21223   0.00000  Uiso   1.00
C146   C     0.19359   0.55758   0.18778   0.00000  Uiso   1.00
C147   C     0.13589   0.60973   0.18225   0.00000  Uiso   1.00
C148   C     0.30327   0.46093   0.03506   0.00000  Uiso   1.00
C149   C     0.29831   0.41532   0.00744   0.00000  Uiso   1.00
C150   C     0.30445   0.40300   0.88932   0.00000  Uiso   1.00
C151   C     0.31091   0.36568   0.71106   0.00000  Uiso   1.00
C152   C     0.31775   0.54103   0.99773   0.00000  Uiso   1.00
C153   C     0.35313   0.53871   0.09648   0.00000  Uiso   1.00
C154   C     0.39222   0.56481   0.10341   0.00000  Uiso   1.00
C155   C     0.42026   0.55760   0.20082   0.00000  Uiso   1.00
C156   C     0.27264   0.55072   0.05904   0.00000  Uiso   1.00
C157   C     0.24404   0.58691   0.03447   0.00000  Uiso   1.00
C158   C     0.20431   0.58981   0.10036   0.00000  Uiso   1.00
C159   C     0.31397   0.49310   0.94779   0.00000  Uiso   1.00
C160   C     0.32011   0.48084   0.82968   0.00000  Uiso   1.00
C161   C     0.31516   0.43522   0.80189   0.00000  Uiso   1.00
H162   H     0.28972   0.45678   0.22634   0.00000  Uiso   1.00
H163   H     0.36213   0.47440   0.34869   0.00000  Uiso   1.00
H164   H     0.21397   0.49650   0.27975   0.00000  Uiso   1.00
H165   H     0.29004   0.39044   0.07500   0.00000  Uiso   1.00
H166   H     0.44712   0.50814   0.44587   0.00000  Uiso   1.00
H167   H     0.13472   0.55472   0.30049   0.00000  Uiso   1.00
H168   H     0.29510   0.33108   0.86872   0.00000  Uiso   1.00
H169   H     0.32608   0.56608   0.92979   0.00000  Uiso   1.00
H170   H     0.40049   0.58970   0.03586   0.00000  Uiso   1.00
H171   H     0.25233   0.61179   0.96693   0.00000  Uiso   1.00
H172   H     0.32839   0.50574   0.76217   0.00000  Uiso   1.00
H173   H     0.47825   0.60172   0.19197   0.00000  Uiso   1.00
H174   H     0.16584   0.64830   0.04659   0.00000  Uiso   1.00
H175   H     0.32623   0.42467   0.61482   0.00000  Uiso   1.00
O176   O     0.51097   0.56851   0.39407   0.00000  Uiso   1.00
O177   O     0.10110   0.62961   0.20332   0.00000  Uiso   1.00
O178   O     0.31153   0.33621   0.63685   0.00000  Uiso   1.00
N179   N     0.44424   0.52691   0.37154   0.00000  Uiso   1.00
N180   N     0.15216   0.57047   0.23564   0.00000  Uiso   1.00
N181   N     0.30210   0.36139   0.83196   0.00000  Uiso   1.00
N182   N     0.46099   0.57727   0.23492   0.00000  Uiso   1.00
N183   N     0.16891   0.62082   0.09902   0.00000  Uiso   1.00
N184   N     0.31885   0.41175   0.69534   0.00000  Uiso   1.00
C185   C     0.01818   0.79805   0.34160   0.00000  Uiso   1.00
C186   C     0.99345   0.84244   0.31625   0.00000  Uiso   1.00
C187   C     0.00071   0.87043   0.21883   0.00000  Uiso   1.00
C188   C     0.97462   0.90954   0.21175   0.00000  Uiso   1.00
C189   C     0.94110   0.97682   0.15909   0.00000  Uiso   1.00
C190   C     0.98144   0.76194   0.35370   0.00000  Uiso   1.00
C191   C     0.97861   0.72225   0.28777   0.00000  Uiso   1.00
C192   C     0.94242   0.69359   0.31222   0.00000  Uiso   1.00
C193   C     0.89027   0.63589   0.31775   0.00000  Uiso   1.00
C194   C     0.03907   0.80327   0.46494   0.00000  Uiso   1.00
C195   C     0.08468   0.79831   0.49256   0.00000  Uiso   1.00
C196   C     0.09700   0.80445   0.61068   0.00000  Uiso   1.00
C197   C     0.13432   0.81091   0.78894   0.00000  Uiso   1.00
C198   C     0.95897   0.81775   0.50227   0.00000  Uiso   1.00
C199   C     0.96129   0.85313   0.40352   0.00000  Uiso   1.00
C200   C     0.93519   0.89222   0.39659   0.00000  Uiso   1.00
C201   C     0.94240   0.92026   0.29918   0.00000  Uiso   1.00
C202   C     0.94928   0.77264   0.44096   0.00000  Uiso   1.00
C203   C     0.91309   0.74404   0.46553   0.00000  Uiso   1.00
C204   C     0.91019   0.70431   0.39964   0.00000  Uiso   1.00
C205   C     0.00690   0.81397   0.55221   0.00000  Uiso   1.00
C206   C     0.01916   0.82011   0.67032   0.00000  Uiso   1.00
C207   C     0.06478   0.81516   0.69811   0.00000  Uiso   1.00
H208   H     0.04322   0.78972   0.27366   0.00000  Uiso   1.00
H209   H     0.02560   0.86213   0.15131   0.00000  Uiso   1.00
H210   H     0.00350   0.71397   0.22025   0.00000  Uiso   1.00
H211   H     0.10956   0.79004   0.42500   0.00000  Uiso   1.00
H212   H     0.99186   0.94712   0.05413   0.00000  Uiso   1.00
H213   H     0.94528   0.63472   0.19951   0.00000  Uiso   1.00
H214   H     0.16892   0.79510   0.63128   0.00000  Uiso   1.00
H215   H     0.93392   0.82608   0.57021   0.00000  Uiso   1.00
H216   H     0.91030   0.90049   0.46414   0.00000  Uiso   1.00
H217   H     0.88821   0.75233   0.53307   0.00000  Uiso   1.00
H218   H     0.99426   0.82839   0.73783   0.00000  Uiso   1.00
H219   H     0.89828   0.97825   0.30803   0.00000  Uiso   1.00
H220   H     0.85170   0.66584   0.45341   0.00000  Uiso   1.00
H221   H     0.07533   0.82623   0.88518   0.00000  Uiso   1.00
O222   O     0.93149   0.01097   0.10593   0.00000  Uiso   1.00
O223   O     0.87039   0.60110   0.29668   0.00000  Uiso   1.00
O224   O     0.16379   0.81153   0.86315   0.00000  Uiso   1.00
N225   N     0.97309   0.94424   0.12846   0.00000  Uiso   1.00
N226   N     0.92953   0.65216   0.26436   0.00000  Uiso   1.00
N227   N     0.13861   0.80210   0.66804   0.00000  Uiso   1.00
N228   N     0.92273   0.96099   0.26508   0.00000  Uiso   1.00
N229   N     0.87918   0.66891   0.40098   0.00000  Uiso   1.00
N230   N     0.08825   0.81885   0.80466   0.00000  Uiso   1.00
C231   C     0.51818   0.29805   0.84160   0.00000  Uiso   1.00
C232   C     0.49345   0.34244   0.81625   0.00000  Uiso   1.00
C233   C     0.50071   0.37043   0.71883   0.00000  Uiso   1.00
C234   C     0.47462   0.40954   0.71175   0.00000  Uiso   1.00
C235   C     0.44110   0.47682   0.65909   0.00000  Uiso   1.00
C236   C     0.48144   0.26194   0.85370   0.00000  Uiso   1.00
C237   C     0.47861   0.22225   0.78777   0.00000  Uiso   1.00
C238   C     0.44242   0.19359   0.81222   0.00000  Uiso   1.00
C239   C     0.39027   0.13589   0.81775   0.00000  Uiso   1.00
C240   C     0.53907   0.30327   0.96494   0.00000  Uiso   1.00
C241   C     0.58468   0.29831   0.99256   0.00000  Uiso   1.00
C242   C     0.59700   0.30445   0.11068   0.00000  Uiso   1.00
C243   C     0.63432   0.31091   0.28894   0.00000  Uiso   1.00
C244   C     0.45897   0.31775   0.00227   0.00000  Uiso   1.00
C245   C     0.46129   0.35313   0.90352   0.00000  Uiso   1.00
C246   C     0.43519   0.39222   0.89659   0.00000  Uiso   1.00
C247   C     0.44240   0.42026   0.79918   0.00000  Uiso   1.00
C248   C     0.44928   0.27264   0.94096   0.00000  Uiso   1.00
C249   C     0.41309   0.24404   0.96553   0.00000  Uiso   1.00
C250   C     0.41019   0.20431   0.89964   0.00000  Uiso   1.00
C251   C     0.50690   0.31397   0.05221   0.00000  Uiso   1.00
C252   C     0.51916   0.32011   0.17032   0.00000  Uiso   1.00
C253   C     0.56478   0.31516   0.19811   0.00000  Uiso   1.00
H254   H     0.54322   0.28972   0.77366   0.00000  Uiso   1.00
H255   H     0.52560   0.36213   0.65131   0.00000  Uiso   1.00
H256   H     0.50350   0.21397   0.72025   0.00000  Uiso   1.00
H257   H     0.60956   0.29004   0.92500   0.00000  Uiso   1.00
H258   H     0.49186   0.44712   0.55413   0.00000  Uiso   1.00
H259   H     0.44528   0.13472   0.69951   0.00000  Uiso   1.00
H260   H     0.66892   0.29510   0.13128   0.00000  Uiso   1.00
H261   H     0.43392   0.32608   0.07021   0.00000  Uiso   1.00
H262   H     0.41030   0.40049   0.96414   0.00000  Uiso   1.00
H263   H     0.38821   0.25233   0.03307   0.00000  Uiso   1.00
H264   H     0.49426   0.32839   0.23783   0.00000  Uiso   1.00
H265   H     0.39828   0.47825   0.80803   0.00000  Uiso   1.00
H266   H     0.35170   0.16584   0.95341   0.00000  Uiso   1.00
H267   H     0.57533   0.32623   0.38518   0.00000  Uiso   1.00
O268   O     0.43149   0.51097   0.60593   0.00000  Uiso   1.00
O269   O     0.37039   0.10110   0.79668   0.00000  Uiso   1.00
O270   O     0.66379   0.31153   0.36315   0.00000  Uiso   1.00
N271   N     0.47309   0.44424   0.62846   0.00000  Uiso   1.00
N272   N     0.42953   0.15216   0.76436   0.00000  Uiso   1.00
N273   N     0.63861   0.30210   0.16804   0.00000  Uiso   1.00
N274   N     0.42273   0.46099   0.76508   0.00000  Uiso   1.00
N275   N     0.37918   0.16891   0.90098   0.00000  Uiso   1.00
N276   N     0.58825   0.31885   0.30466   0.00000  Uiso   1.00
C277   C     0.98182   0.20195   0.34160   0.00000  Uiso   1.00
C278   C     0.00655   0.15756   0.31625   0.00000  Uiso   1.00
C279   C     0.99929   0.12957   0.21883   0.00000  Uiso   1.00
C280   C     0.02538   0.09046   0.21175   0.00000  Uiso   1.00
C281   C     0.05890   0.02318   0.15909   0.00000  Uiso   1.00
C282   C     0.01856   0.23806   0.35370   0.00000  Uiso   1.00
C283   C     0.02139   0.27775   0.28777   0.00000  Uiso   1.00
C284   C     0.05758   0.30641   0.31222   0.00000  Uiso   1.00
C285   C     0.10973   0.36411   0.31775   0.00000  Uiso   1.00
C286   C     0.96093   0.19673   0.46494   0.00000  Uiso   1.00
C287   C     0.91532   0.20169   0.49256   0.00000  Uiso   1.00
C288   C     0.90300   0.19555   0.61068   0.00000  Uiso   1.00
C289   C     0.86568   0.18909   0.78894   0.00000  Uiso   1.00
C290   C     0.04103   0.18225   0.50227   0.00000  Uiso   1.00
C291   C     0.03871   0.14687   0.40352   0.00000  Uiso   1.00
C292   C     0.06481   0.10778   0.39659   0.00000  Uiso   1.00
C293   C     0.05760   0.07974   0.29918   0.00000  Uiso   1.00
C294   C     0.05072   0.22736   0.44096   0.00000  Uiso   1.00
C295   C     0.08691   0.25596   0.46553   0.00000  Uiso   1.00
C296   C     0.08981   0.29569   0.39964   0.00000  Uiso   1.00
C297   C     0.99310   0.18603   0.55221   0.00000  Uiso   1.00
C298   C     0.98084   0.17989   0.67032   0.00000  Uiso   1.00
C299   C     0.93522   0.18484   0.69811   0.00000  Uiso   1.00
H300   H     0.95678   0.21028   0.27366   0.00000  Uiso   1.00
H301   H     0.97440   0.13787   0.15131   0.00000  Uiso   1.00
H302   H     0.99650   0.28603   0.22025   0.00000  Uiso   1.00
H303   H     0.89044   0.20996   0.42500   0.00000  Uiso   1.00
H304   H     0.00814   0.05288   0.05413   0.00000  Uiso   1.00
H305   H     0.05472   0.36528   0.19951   0.00000  Uiso   1.00
H306   H     0.83108   0.20490   0.63128   0.00000  Uiso   1.00
H307   H     0.06608   0.17392   0.57021   0.00000  Uiso   1.00
H308   H     0.08970   0.09951   0.46414   0.00000  Uiso   1.00
H309   H     0.11179   0.24767   0.53307   0.00000  Uiso   1.00
H310   H     0.00574   0.17161   0.73783   0.00000  Uiso   1.00
H311   H     0.10172   0.02175   0.30803   0.00000  Uiso   1.00
H312   H     0.14830   0.33416   0.45341   0.00000  Uiso   1.00
H313   H     0.92467   0.17377   0.88518   0.00000  Uiso   1.00
O314   O     0.06851   0.98903   0.10593   0.00000  Uiso   1.00
O315   O     0.12961   0.39890   0.29668   0.00000  Uiso   1.00
O316   O     0.83621   0.18847   0.86315   0.00000  Uiso   1.00
N317   N     0.02691   0.05576   0.12846   0.00000  Uiso   1.00
N318   N     0.07047   0.34784   0.26436   0.00000  Uiso   1.00
N319   N     0.86139   0.19790   0.66804   0.00000  Uiso   1.00
N320   N     0.07727   0.03901   0.26508   0.00000  Uiso   1.00
N321   N     0.12082   0.33109   0.40098   0.00000  Uiso   1.00
N322   N     0.91175   0.18115   0.80466   0.00000  Uiso   1.00
C323   C     0.48182   0.70195   0.84160   0.00000  Uiso   1.00
C324   C     0.50655   0.65756   0.81625   0.00000  Uiso   1.00
C325   C     0.49929   0.62957   0.71883   0.00000  Uiso   1.00
C326   C     0.52538   0.59046   0.71175   0.00000  Uiso   1.00
C327   C     0.55890   0.52318   0.65909   0.00000  Uiso   1.00
C328   C     0.51856   0.73806   0.85370   0.00000  Uiso   1.00
C329   C     0.52139   0.77775   0.78777   0.00000  Uiso   1.00
C330   C     0.55758   0.80641   0.81222   0.00000  Uiso   1.00
C331   C     0.60973   0.86411   0.81775   0.00000  Uiso   1.00
C332   C     0.46093   0.69673   0.96494   0.00000  Uiso   1.00
C333   C     0.41532   0.70169   0.99256   0.00000  Uiso   1.00
C334   C     0.40300   0.69555   0.11068   0.00000  Uiso   1.00
C335   C     0.36568   0.68909   0.28894   0.00000  Uiso   1.00
C336   C     0.54103   0.68225   0.00227   0.00000  Uiso   1.00
C337   C     0.53871   0.64687   0.90352   0.00000  Uiso   1.00
C338   C     0.56481   0.60778   0.89659   0.00000  Uiso   1.00
C339   C     0.55760   0.57974   0.79918   0.00000  Uiso   1.00
C340   C     0.55072   0.72736   0.94096   0.00000  Uiso   1.00
C341   C     0.58691   0.75596   0.96553   0.00000  Uiso   1.00
C342   C     0.58981   0.79569   0.89964   0.00000  Uiso   1.00
C343   C     0.49310   0.68603   0.05221   0.00000  Uiso   1.00
C344   C     0.48084   0.67989   0.17032   0.00000  Uiso   1.00
C345   C     0.43522   0.68484   0.19811   0.00000  Uiso   1.00
H346   H     0.45678   0.71028   0.77366   0.00000  Uiso   1.00
H347   H     0.47440   0.63787   0.65131   0.00000  Uiso   1.00
H348   H     0.49650   0.78603   0.72025   0.00000  Uiso   1.00
H349   H     0.39044   0.70996   0.92500   0.00000  Uiso   1.00
H350   H     0.50814   0.55288   0.55413   0.00000  Uiso   1.00
H351   H     0.55472   0.86528   0.69951   0.00000  Uiso   1.00
H352   H     0.33108   0.70490   0.13128   0.00000  Uiso   1.00
H353   H     0.56608   0.67392   0.07021   0.00000  Uiso   1.00
H354   H     0.58970   0.59951   0.96414   0.00000  Uiso   1.00
H355   H     0.61179   0.74767   0.03307   0.00000  Uiso   1.00
H356   H     0.50574   0.67161   0.23783   0.00000  Uiso   1.00
H357   H     0.60172   0.52175   0.80803   0.00000  Uiso   1.00
H358   H     0.64830   0.83416   0.95341   0.00000  Uiso   1.00
H359   H     0.42467   0.67377   0.38518   0.00000  Uiso   1.00
O360   O     0.56851   0.48903   0.60593   0.00000  Uiso   1.00
O361   O     0.62961   0.89890   0.79668   0.00000  Uiso   1.00
O362   O     0.33621   0.68847   0.36315   0.00000  Uiso   1.00
N363   N     0.52691   0.55576   0.62846   0.00000  Uiso   1.00
N364   N     0.57047   0.84784   0.76436   0.00000  Uiso   1.00
N365   N     0.36139   0.69790   0.16804   0.00000  Uiso   1.00
N366   N     0.57727   0.53901   0.76508   0.00000  Uiso   1.00
N367   N     0.62082   0.83109   0.90098   0.00000  Uiso   1.00
N368   N     0.41175   0.68115   0.30466   0.00000  Uiso   1.00
C369   C     0.29805   0.01818   0.09160   0.00000  Uiso   1.00
C370   C     0.34244   0.99345   0.06625   0.00000  Uiso   1.00
C371   C     0.37043   0.00071   0.96883   0.00000  Uiso   1.00
C372   C     0.40954   0.97462   0.96175   0.00000  Uiso   1.00
C373   C     0.47682   0.94110   0.90909   0.00000  Uiso   1.00
C374   C     0.26194   0.98144   0.10370   0.00000  Uiso   1.00
C375   C     0.22225   0.97861   0.03777   0.00000  Uiso   1.00
C376   C     0.19359   0.94242   0.06222   0.00000  Uiso   1.00
C377   C     0.13589   0.89027   0.06775   0.00000  Uiso   1.00
C378   C     0.30327   0.03907   0.21494   0.00000  Uiso   1.00
C379   C     0.29831   0.08468   0.24256   0.00000  Uiso   1.00
C380   C     0.30445   0.09700   0.36068   0.00000  Uiso   1.00
C381   C     0.31091   0.13432   0.53894   0.00000  Uiso   1.00
C382   C     0.31775   0.95897   0.25227   0.00000  Uiso   1.00
C383   C     0.35313   0.96129   0.15352   0.00000  Uiso   1.00
C384   C     0.39222   0.93519   0.14659   0.00000  Uiso   1.00
C385   C     0.42026   0.94240   0.04918   0.00000  Uiso   1.00
C386   C     0.27264   0.94928   0.19096   0.00000  Uiso   1.00
C387   C     0.24404   0.91309   0.21553   0.00000  Uiso   1.00
C388   C     0.20431   0.91019   0.14964   0.00000  Uiso   1.00
C389   C     0.31397   0.00690   0.30221   0.00000  Uiso   1.00
C390   C     0.32011   0.01916   0.42032   0.00000  Uiso   1.00
C391   C     0.31516   0.06478   0.44811   0.00000  Uiso   1.00
H392   H     0.28972   0.04322   0.02366   0.00000  Uiso   1.00
H393   H     0.36213   0.02560   0.90131   0.00000  Uiso   1.00
H394   H     0.21397   0.00350   0.97025   0.00000  Uiso   1.00
H395   H     0.29004   0.10956   0.17500   0.00000  Uiso   1.00
H396   H     0.44712   0.99186   0.80413   0.00000  Uiso   1.00
H397   H     0.13472   0.94528   0.94951   0.00000  Uiso   1.00
H398   H     0.29510   0.16892   0.38128   0.00000  Uiso   1.00
H399   H     0.32608   0.93392   0.32021   0.00000  Uiso   1.00
H400   H     0.40049   0.91030   0.21414   0.00000  Uiso   1.00
H401   H     0.25233   0.88821   0.28307   0.00000  Uiso   1.00
H402   H     0.32839   0.99426   0.48783   0.00000  Uiso   1.00
H403   H     0.47825   0.89828   0.05803   0.00000  Uiso   1.00
H404   H     0.16584   0.85170   0.20341   0.00000  Uiso   1.00
H405   H     0.32623   0.07533   0.63518   0.00000  Uiso   1.00
O406   O     0.51097   0.93149   0.85593   0.00000  Uiso   1.00
O407   O     0.10110   0.87039   0.04668   0.00000  Uiso   1.00
O408   O     0.31153   0.16379   0.61315   0.00000  Uiso   1.00
N409   N     0.44424   0.97309   0.87846   0.00000  Uiso   1.00
N410   N     0.15216   0.92953   0.01436   0.00000  Uiso   1.00
N411   N     0.30210   0.13861   0.41804   0.00000  Uiso   1.00
N412   N     0.46099   0.92273   0.01508   0.00000  Uiso   1.00
N413   N     0.16891   0.87918   0.15098   0.00000  Uiso   1.00
N414   N     0.31885   0.08825   0.55466   0.00000  Uiso   1.00
C415   C     0.79805   0.51818   0.59160   0.00000  Uiso   1.00
C416   C     0.84244   0.49345   0.56625   0.00000  Uiso   1.00
C417   C     0.87043   0.50071   0.46883   0.00000  Uiso   1.00
C418   C     0.90954   0.47462   0.46175   0.00000  Uiso   1.00
C419   C     0.97682   0.44110   0.40909   0.00000  Uiso   1.00
C420   C     0.76194   0.48144   0.60370   0.00000  Uiso   1.00
C421   C     0.72225   0.47861   0.53777   0.00000  Uiso   1.00
C422   C     0.69359   0.44242   0.56222   0.00000  Uiso   1.00
C423   C     0.63589   0.39027   0.56775   0.00000  Uiso   1.00
C424   C     0.80327   0.53907   0.71494   0.00000  Uiso   1.00
C425   C     0.79831   0.58468   0.74256   0.00000  Uiso   1.00
C426   C     0.80445   0.59700   0.86068   0.00000  Uiso   1.00
C427   C     0.81091   0.63432   0.03894   0.00000  Uiso   1.00
C428   C     0.81775   0.45897   0.75227   0.00000  Uiso   1.00
C429   C     0.85313   0.46129   0.65352   0.00000  Uiso   1.00
C430   C     0.89222   0.43519   0.64659   0.00000  Uiso   1.00
C431   C     0.92026   0.44240   0.54918   0.00000  Uiso   1.00
C432   C     0.77264   0.44928   0.69096   0.00000  Uiso   1.00
C433   C     0.74404   0.41309   0.71553   0.00000  Uiso   1.00
C434   C     0.70431   0.41019   0.64964   0.00000  Uiso   1.00
C435   C     0.81397   0.50690   0.80221   0.00000  Uiso   1.00
C436   C     0.82011   0.51916   0.92032   0.00000  Uiso   1.00
C437   C     0.81516   0.56478   0.94811   0.00000  Uiso   1.00
H438   H     0.78972   0.54322   0.52366   0.00000  Uiso   1.00
H439   H     0.86213   0.52560   0.40131   0.00000  Uiso   1.00
H440   H     0.71397   0.50350   0.47025   0.00000  Uiso   1.00
H441   H     0.79004   0.60956   0.67500   0.00000  Uiso   1.00
H442   H     0.94712   0.49186   0.30413   0.00000  Uiso   1.00
H443   H     0.63472   0.44528   0.44951   0.00000  Uiso   1.00
H444   H     0.79510   0.66892   0.88128   0.00000  Uiso   1.00
H445   H     0.82608   0.43392   0.82021   0.00000  Uiso   1.00
H446   H     0.90049   0.41030   0.71414   0.00000  Uiso   1.00
H447   H     0.75233   0.38821   0.78307   0.00000  Uiso   1.00
H448   H     0.82839   0.49426   0.98783   0.00000  Uiso   1.00
H449   H     0.97825   0.39828   0.55803   0.00000  Uiso   1.00
H450   H     0.66584   0.35170   0.70341   0.00000  Uiso   1.00
H451   H     0.82623   0.57533   0.13518   0.00000  Uiso   1.00
O452   O     0.01097   0.43149   0.35593   0.00000  Uiso   1.00
O453   O     0.60110   0.37039   0.54668   0.00000  Uiso   1.00
O454   O     0.81153   0.66379   0.11315   0.00000  Uiso   1.00
N455   N     0.94424   0.47309   0.37846   0.00000  Uiso   1.00
N456   N     0.65216   0.42953   0.51436   0.00000  Uiso   1.00
N457   N     0.80210   0.63861   0.91804   0.00000  Uiso   1.00
N458   N     0.96099   0.42273   0.51508   0.00000  Uiso   1.00
N459   N     0.66891   0.37918   0.65098   0.00000  Uiso   1.00
N460   N     0.81885   0.58825   0.05466   0.00000  Uiso   1.00
C461   C     0.70195   0.98182   0.09160   0.00000  Uiso   1.00
C462   C     0.65756   0.00655   0.06625   0.00000  Uiso   1.00
C463   C     0.62957   0.99929   0.96883   0.00000  Uiso   1.00
C464   C     0.59046   0.02538   0.96175   0.00000  Uiso   1.00
C465   C     0.52318   0.05890   0.90909   0.00000  Uiso   1.00
C466   C     0.73806   0.01856   0.10370   0.00000  Uiso   1.00
C467   C     0.77775   0.02139   0.03777   0.00000  Uiso   1.00
C468   C     0.80641   0.05758   0.06222   0.00000  Uiso   1.00
C469   C     0.86411   0.10973   0.06775   0.00000  Uiso   1.00
C470   C     0.69673   0.96093   0.21494   0.00000  Uiso   1.00
C471   C     0.70169   0.91532   0.24256   0.00000  Uiso   1.00
C472   C     0.69555   0.90300   0.36068   0.00000  Uiso   1.00
C473   C     0.68909   0.86568   0.53894   0.00000  Uiso   1.00
C474   C     0.68225   0.04103   0.25227   0.00000  Uiso   1.00
C475   C     0.64687   0.03871   0.15352   0.00000  Uiso   1.00
C476   C     0.60778   0.06481   0.14659   0.00000  Uiso   1.00
C477   C     0.57974   0.05760   0.04918   0.00000  Uiso   1.00
C478   C     0.72736   0.05072   0.19096   0.00000  Uiso   1.00
C479   C     0.75596   0.08691   0.21553   0.00000  Uiso   1.00
C480   C     0.79569   0.08981   0.14964   0.00000  Uiso   1.00
C481   C     0.68603   0.99310   0.30221   0.00000  Uiso   1.00
C482   C     0.67989   0.98084   0.42032   0.00000  Uiso   1.00
C483   C     0.68484   0.93522   0.44811   0.00000  Uiso   1.00
H484   H     0.71028   0.95678   0.02366   0.00000  Uiso   1.00
H485   H     0.63787   0.97440   0.90131   0.00000  Uiso   1.00
H486   H     0.78603   0.99650   0.97025   0.00000  Uiso   1.00
H487   H     0.70996   0.89044   0.17500   0.00000  Uiso   1.00
H488   H     0.55288   0.00814   0.80413   0.00000  Uiso   1.00
H489   H     0.86528   0.05472   0.94951   0.00000  Uiso   1.00
H490   H     0.70490   0.83108   0.38128   0.00000  Uiso   1.00
H491   H     0.67392   0.06608   0.32021   0.00000  Uiso   1.00
H492   H     0.59951   0.08970   0.21414   0.00000  Uiso   1.00
H493   H     0.74767   0.11179   0.28307   0.00000  Uiso   1.00
H494   H     0.67161   0.00574   0.48783   0.00000  Uiso   1.00
H495   H     0.52175   0.10172   0.05803   0.00000  Uiso   1.00
H496   H     0.83416   0.14830   0.20341   0.00000  Uiso   1.00
H497   H     0.67377   0.92467   0.63518   0.00000  Uiso   1.00
O498   O     0.48903   0.06851   0.85593   0.00000  Uiso   1.00
O499   O     0.89890   0.12961   0.04668   0.00000  Uiso   1.00
O500   O     0.68847   0.83621   0.61315   0.00000  Uiso   1.00
N501   N     0.55576   0.02691   0.87846   0.00000  Uiso   1.00
N502   N     0.84784   0.07047   0.01436   0.00000  Uiso   1.00
N503   N     0.69790   0.86139   0.41804   0.00000  Uiso   1.00
N504   N     0.53901   0.07727   0.01508   0.00000  Uiso   1.00
N505   N     0.83109   0.12082   0.15098   0.00000  Uiso   1.00
N506   N     0.68115   0.91175   0.55466   0.00000  Uiso   1.00
C507   C     0.20195   0.48182   0.59160   0.00000  Uiso   1.00
C508   C     0.15756   0.50655   0.56625   0.00000  Uiso   1.00
C509   C     0.12957   0.49929   0.46883   0.00000  Uiso   1.00
C510   C     0.09046   0.52538   0.46175   0.00000  Uiso   1.00
C511   C     0.02318   0.55890   0.40909   0.00000  Uiso   1.00
C512   C     0.23806   0.51856   0.60370   0.00000  Uiso   1.00
C513   C     0.27775   0.52139   0.53777   0.00000  Uiso   1.00
C514   C     0.30641   0.55758   0.56222   0.00000  Uiso   1.00
C515   C     0.36411   0.60973   0.56775   0.00000  Uiso   1.00
C516   C     0.19673   0.46093   0.71494   0.00000  Uiso   1.00
C517   C     0.20169   0.41532   0.74256   0.00000  Uiso   1.00
C518   C     0.19555   0.40300   0.86068   0.00000  Uiso   1.00
C519   C     0.18909   0.36568   0.03894   0.00000  Uiso   1.00
C520   C     0.18225   0.54103   0.75227   0.00000  Uiso   1.00
C521   C     0.14687   0.53871   0.65352   0.00000  Uiso   1.00
C522   C     0.10778   0.56481   0.64659   0.00000  Uiso   1.00
C523   C     0.07974   0.55760   0.54918   0.00000  Uiso   1.00
C524   C     0.22736   0.55072   0.69096   0.00000  Uiso   1.00
C525   C     0.25596   0.58691   0.71553   0.00000  Uiso   1.00
C526   C     0.29569   0.58981   0.64964   0.00000  Uiso   1.00
C527   C     0.18603   0.49310   0.80221   0.00000  Uiso   1.00
C528   C     0.17989   0.48084   0.92032   0.00000  Uiso   1.00
C529   C     0.18484   0.43522   0.94811   0.00000  Uiso   1.00
H530   H     0.21028   0.45678   0.52366   0.00000  Uiso   1.00
H531   H     0.13787   0.47440   0.40131   0.00000  Uiso   1.00
H532   H     0.28603   0.49650   0.47025   0.00000  Uiso   1.00
H533   H     0.20996   0.39044   0.67500   0.00000  Uiso   1.00
H534   H     0.05288   0.50814   0.30413   0.00000  Uiso   1.00
H535   H     0.36528   0.55472   0.44951   0.00000  Uiso   1.00
H536   H     0.20490   0.33108   0.88128   0.00000  Uiso   1.00
H537   H     0.17392   0.56608   0.82021   0.00000  Uiso   1.00
H538   H     0.09951   0.58970   0.71414   0.00000  Uiso   1.00
H539   H     0.24767   0.61179   0.78307   0.00000  Uiso   1.00
H540   H     0.17161   0.50574   0.98783   0.00000  Uiso   1.00
H541   H     0.02175   0.60172   0.55803   0.00000  Uiso   1.00
H542   H     0.33416   0.64830   0.70341   0.00000  Uiso   1.00
H543   H     0.17377   0.42467   0.13518   0.00000  Uiso   1.00
O544   O     0.98903   0.56851   0.35593   0.00000  Uiso   1.00
O545   O     0.39890   0.62961   0.54668   0.00000  Uiso   1.00
O546   O     0.18847   0.33621   0.11315   0.00000  Uiso   1.00
N547   N     0.05576   0.52691   0.37846   0.00000  Uiso   1.00
N548   N     0.34784   0.57047   0.51436   0.00000  Uiso   1.00
N549   N     0.19790   0.36139   0.91804   0.00000  Uiso   1.00
N550   N     0.03901   0.57727   0.51508   0.00000  Uiso   1.00
N551   N     0.33109   0.62082   0.65098   0.00000  Uiso   1.00
N552   N     0.18115   0.41175   0.05466   0.00000  Uiso   1.00
C553   C     0.48182   0.79805   0.40840   0.00000  Uiso   1.00
C554   C     0.50655   0.84244   0.43375   0.00000  Uiso   1.00
C555   C     0.49929   0.87043   0.53117   0.00000  Uiso   1.00
C556   C     0.52538   0.90954   0.53825   0.00000  Uiso   1.00
C557   C     0.55890   0.97682   0.59091   0.00000  Uiso   1.00
C558   C     0.51856   0.76194   0.39630   0.00000  Uiso   1.00
C559   C     0.52139   0.72225   0.46223   0.00000  Uiso   1.00
C560   C     0.55758   0.69359   0.43778   0.00000  Uiso   1.00
C561   C     0.60973   0.63589   0.43225   0.00000  Uiso   1.00
C562   C     0.46093   0.80327   0.28506   0.00000  Uiso   1.00
C563   C     0.41532   0.79831   0.25744   0.00000  Uiso   1.00
C564   C     0.40300   0.80445   0.13932   0.00000  Uiso   1.00
C565   C     0.36568   0.81091   0.96106   0.00000  Uiso   1.00
C566   C     0.54103   0.81775   0.24773   0.00000  Uiso   1.00
C567   C     0.53871   0.85313   0.34648   0.00000  Uiso   1.00
C568   C     0.56481   0.89222   0.35341   0.00000  Uiso   1.00
C569   C     0.55760   0.92026   0.45082   0.00000  Uiso   1.00
C570   C     0.55072   0.77264   0.30904   0.00000  Uiso   1.00
C571   C     0.58691   0.74404   0.28447   0.00000  Uiso   1.00
C572   C     0.58981   0.70431   0.35036   0.00000  Uiso   1.00
C573   C     0.49310   0.81397   0.19779   0.00000  Uiso   1.00
C574   C     0.48084   0.82011   0.07968   0.00000  Uiso   1.00
C575   C     0.43522   0.81516   0.05189   0.00000  Uiso   1.00
H576   H     0.45678   0.78972   0.47634   0.00000  Uiso   1.00
H577   H     0.47440   0.86213   0.59869   0.00000  Uiso   1.00
H578   H     0.49650   0.71397   0.52975   0.00000  Uiso   1.00
H579   H     0.39044   0.79004   0.32500   0.00000  Uiso   1.00
H580   H     0.50814   0.94712   0.69587   0.00000  Uiso   1.00
H581   H     0.55472   0.63472   0.55049   0.00000  Uiso   1.00
H582   H     0.33108   0.79510   0.11872   0.00000  Uiso   1.00
H583   H     0.56608   0.82608   0.17979   0.00000  Uiso   1.00
H584   H     0.58970   0.90049   0.28586   0.00000  Uiso   1.00
H585   H     0.61179   0.75233   0.21693   0.00000  Uiso   1.00
H586   H     0.50574   0.82839   0.01217   0.00000  Uiso   1.00
H587   H     0.60172   0.97825   0.44197   0.00000  Uiso   1.00
H588   H     0.64830   0.66584   0.29659   0.00000  Uiso   1.00
H589   H     0.42467   0.82623   0.86482   0.00000  Uiso   1.00
O590   O     0.56851   0.01097   0.64407   0.00000  Uiso   1.00
O591   O     0.62961   0.60110   0.45332   0.00000  Uiso   1.00
O592   O     0.33621   0.81153   0.88685   0.00000  Uiso   1.00
N593   N     0.52691   0.94424   0.62154   0.00000  Uiso   1.00
N594   N     0.57047   0.65216   0.48564   0.00000  Uiso   1.00
N595   N     0.36139   0.80210   0.08196   0.00000  Uiso   1.00
N596   N     0.57727   0.96099   0.48492   0.00000  Uiso   1.00
N597   N     0.62082   0.66891   0.34902   0.00000  Uiso   1.00
N598   N     0.41175   0.81885   0.94534   0.00000  Uiso   1.00
C599   C     0.98182   0.29805   0.90840   0.00000  Uiso   1.00
C600   C     0.00655   0.34244   0.93375   0.00000  Uiso   1.00
C601   C     0.99929   0.37043   0.03117   0.00000  Uiso   1.00
C602   C     0.02538   0.40954   0.03825   0.00000  Uiso   1.00
C603   C     0.05890   0.47682   0.09091   0.00000  Uiso   1.00
C604   C     0.01856   0.26194   0.89630   0.00000  Uiso   1.00
C605   C     0.02139   0.22225   0.96223   0.00000  Uiso   1.00
C606   C     0.05758   0.19359   0.93778   0.00000  Uiso   1.00
C607   C     0.10973   0.13589   0.93225   0.00000  Uiso   1.00
C608   C     0.96093   0.30327   0.78506   0.00000  Uiso   1.00
C609   C     0.91532   0.29831   0.75744   0.00000  Uiso   1.00
C610   C     0.90300   0.30445   0.63932   0.00000  Uiso   1.00
C611   C     0.86568   0.31091   0.46106   0.00000  Uiso   1.00
C612   C     0.04103   0.31775   0.74773   0.00000  Uiso   1.00
C613   C     0.03871   0.35313   0.84648   0.00000  Uiso   1.00
C614   C     0.06481   0.39222   0.85341   0.00000  Uiso   1.00
C615   C     0.05760   0.42026   0.95082   0.00000  Uiso   1.00
C616   C     0.05072   0.27264   0.80904   0.00000  Uiso   1.00
C617   C     0.08691   0.24404   0.78447   0.00000  Uiso   1.00
C618   C     0.08981   0.20431   0.85036   0.00000  Uiso   1.00
C619   C     0.99310   0.31397   0.69779   0.00000  Uiso   1.00
C620   C     0.98084   0.32011   0.57968   0.00000  Uiso   1.00
C621   C     0.93522   0.31516   0.55189   0.00000  Uiso   1.00
H622   H     0.95678   0.28972   0.97634   0.00000  Uiso   1.00
H623   H     0.97440   0.36213   0.09869   0.00000  Uiso   1.00
H624   H     0.99650   0.21397   0.02975   0.00000  Uiso   1.00
H625   H     0.89044   0.29004   0.82500   0.00000  Uiso   1.00
H626   H     0.00814   0.44712   0.19587   0.00000  Uiso   1.00
H627   H     0.05472   0.13472   0.05049   0.00000  Uiso   1.00
H628   H     0.83108   0.29510   0.61872   0.00000  Uiso   1.00
H629   H     0.06608   0.32608   0.67979   0.00000  Uiso   1.00
H630   H     0.08970   0.40049   0.78586   0.00000  Uiso   1.00
H631   H     0.11179   0.25233   0.71693   0.00000  Uiso   1.00
H632   H     0.00574   0.32839   0.51217   0.00000  Uiso   1.00
H633   H     0.10172   0.47825   0.94197   0.00000  Uiso   1.00
H634   H     0.14830   0.16584   0.79659   0.00000  Uiso   1.00
H635   H     0.92467   0.32623   0.36482   0.00000  Uiso   1.00
O636   O     0.06851   0.51097   0.14407   0.00000  Uiso   1.00
O637   O     0.12961   0.10110   0.95332   0.00000  Uiso   1.00
O638   O     0.83621   0.31153   0.38685   0.00000  Uiso   1.00
N639   N     0.02691   0.44424   0.12154   0.00000  Uiso   1.00
N640   N     0.07047   0.15216   0.98564   0.00000  Uiso   1.00
N641   N     0.86139   0.30210   0.58196   0.00000  Uiso   1.00
N642   N     0.07727   0.46099   0.98492   0.00000  Uiso   1.00
N643   N     0.12082   0.16891   0.84902   0.00000  Uiso   1.00
N644   N     0.91175   0.31885   0.44534   0.00000  Uiso   1.00
C645   C     0.51818   0.20195   0.40840   0.00000  Uiso   1.00
C646   C     0.49345   0.15756   0.43375   0.00000  Uiso   1.00
C647   C     0.50071   0.12957   0.53117   0.00000  Uiso   1.00
C648   C     0.47462   0.09046   0.53825   0.00000  Uiso   1.00
C649   C     0.44110   0.02318   0.59091   0.00000  Uiso   1.00
C650   C     0.48144   0.23806   0.39630   0.00000  Uiso   1.00
C651   C     0.47861   0.27775   0.46223   0.00000  Uiso   1.00
C652   C     0.44242   0.30641   0.43778   0.00000  Uiso   1.00
C653   C     0.39027   0.36411   0.43225   0.00000  Uiso   1.00
C654   C     0.53907   0.19673   0.28506   0.00000  Uiso   1.00
C655   C     0.58468   0.20169   0.25744   0.00000  Uiso   1.00
C656   C     0.59700   0.19555   0.13932   0.00000  Uiso   1.00
C657   C     0.63432   0.18909   0.96106   0.00000  Uiso   1.00
C658   C     0.45897   0.18225   0.24773   0.00000  Uiso   1.00
C659   C     0.46129   0.14687   0.34648   0.00000  Uiso   1.00
C660   C     0.43519   0.10778   0.35341   0.00000  Uiso   1.00
C661   C     0.44240   0.07974   0.45082   0.00000  Uiso   1.00
C662   C     0.44928   0.22736   0.30904   0.00000  Uiso   1.00
C663   C     0.41309   0.25596   0.28447   0.00000  Uiso   1.00
C664   C     0.41019   0.29569   0.35036   0.00000  Uiso   1.00
C665   C     0.50690   0.18603   0.19779   0.00000  Uiso   1.00
C666   C     0.51916   0.17989   0.07968   0.00000  Uiso   1.00
C667   C     0.56478   0.18484   0.05189   0.00000  Uiso   1.00
H668   H     0.54322   0.21028   0.47634   0.00000  Uiso   1.00
H669   H     0.52560   0.13787   0.59869   0.00000  Uiso   1.00
H670   H     0.50350   0.28603   0.52975   0.00000  Uiso   1.00
H671   H     0.60956   0.20996   0.32500   0.00000  Uiso   1.00
H672   H     0.49186   0.05288   0.69587   0.00000  Uiso   1.00
H673   H     0.44528   0.36528   0.55049   0.00000  Uiso   1.00
H674   H     0.66892   0.20490   0.11872   0.00000  Uiso   1.00
H675   H     0.43392   0.17392   0.17979   0.00000  Uiso   1.00
H676   H     0.41030   0.09951   0.28586   0.00000  Uiso   1.00
H677   H     0.38821   0.24767   0.21693   0.00000  Uiso   1.00
H678   H     0.49426   0.17161   0.01217   0.00000  Uiso   1.00
H679   H     0.39828   0.02175   0.44197   0.00000  Uiso   1.00
H680   H     0.35170   0.33416   0.29659   0.00000  Uiso   1.00
H681   H     0.57533   0.17377   0.86482   0.00000  Uiso   1.00
O682   O     0.43149   0.98903   0.64407   0.00000  Uiso   1.00
O683   O     0.37039   0.39890   0.45332   0.00000  Uiso   1.00
O684   O     0.66379   0.18847   0.88685   0.00000  Uiso   1.00
N685   N     0.47309   0.05576   0.62154   0.00000  Uiso   1.00
N686   N     0.42953   0.34784   0.48564   0.00000  Uiso   1.00
N687   N     0.63861   0.19790   0.08196   0.00000  Uiso   1.00
N688   N     0.42273   0.03901   0.48492   0.00000  Uiso   1.00
N689   N     0.37918   0.33109   0.34902   0.00000  Uiso   1.00
N690   N     0.58825   0.18115   0.94534   0.00000  Uiso   1.00
C691   C     0.01818   0.70195   0.90840   0.00000  Uiso   1.00
C692   C     0.99345   0.65756   0.93375   0.00000  Uiso   1.00
C693   C     0.00071   0.62957   0.03117   0.00000  Uiso   1.00
C694   C     0.97462   0.59046   0.03825   0.00000  Uiso   1.00
C695   C     0.94110   0.52318   0.09091   0.00000  Uiso   1.00
C696   C     0.98144   0.73806   0.89630   0.00000  Uiso   1.00
C697   C     0.97861   0.77775   0.96223   0.00000  Uiso   1.00
C698   C     0.94242   0.80641   0.93778   0.00000  Uiso   1.00
C699   C     0.89027   0.86411   0.93225   0.00000  Uiso   1.00
C700   C     0.03907   0.69673   0.78506   0.00000  Uiso   1.00
C701   C     0.08468   0.70169   0.75744   0.00000  Uiso   1.00
C702   C     0.09700   0.69555   0.63932   0.00000  Uiso   1.00
C703   C     0.13432   0.68909   0.46106   0.00000  Uiso   1.00
C704   C     0.95897   0.68225   0.74773   0.00000  Uiso   1.00
C705   C     0.96129   0.64687   0.84648   0.00000  Uiso   1.00
C706   C     0.93519   0.60778   0.85341   0.00000  Uiso   1.00
C707   C     0.94240   0.57974   0.95082   0.00000  Uiso   1.00
C708   C     0.94928   0.72736   0.80904   0.00000  Uiso   1.00
C709   C     0.91309   0.75596   0.78447   0.00000  Uiso   1.00
C710   C     0.91019   0.79569   0.85036   0.00000  Uiso   1.00
C711   C     0.00690   0.68603   0.69779   0.00000  Uiso   1.00
C712   C     0.01916   0.67989   0.57968   0.00000  Uiso   1.00
C713   C     0.06478   0.68484   0.55189   0.00000  Uiso   1.00
H714   H     0.04322   0.71028   0.97634   0.00000  Uiso   1.00
H715   H     0.02560   0.63787   0.09869   0.00000  Uiso   1.00
H716   H     0.00350   0.78603   0.02975   0.00000  Uiso   1.00
H717   H     0.10956   0.70996   0.82500   0.00000  Uiso   1.00
H718   H     0.99186   0.55288   0.19587   0.00000  Uiso   1.00
H719   H     0.94528   0.86528   0.05049   0.00000  Uiso   1.00
H720   H     0.16892   0.70490   0.61872   0.00000  Uiso   1.00
H721   H     0.93392   0.67392   0.67979   0.00000  Uiso   1.00
H722   H     0.91030   0.59951   0.78586   0.00000  Uiso   1.00
H723   H     0.88821   0.74767   0.71693   0.00000  Uiso   1.00
H724   H     0.99426   0.67161   0.51217   0.00000  Uiso   1.00
H725   H     0.89828   0.52175   0.94197   0.00000  Uiso   1.00
H726   H     0.85170   0.83416   0.79659   0.00000  Uiso   1.00
H727   H     0.07533   0.67377   0.36482   0.00000  Uiso   1.00
O728   O     0.93149   0.48903   0.14407   0.00000  Uiso   1.00
O729   O     0.87039   0.89890   0.95332   0.00000  Uiso   1.00
O730   O     0.16379   0.68847   0.38685   0.00000  Uiso   1.00
N731   N     0.97309   0.55576   0.12154   0.00000  Uiso   1.00
N732   N     0.92953   0.84784   0.98564   0.00000  Uiso   1.00
N733   N     0.13861   0.69790   0.58196   0.00000  Uiso   1.00
N734   N     0.92273   0.53901   0.98492   0.00000  Uiso   1.00
N735   N     0.87918   0.83109   0.84902   0.00000  Uiso   1.00
N736   N     0.08825   0.68115   0.44534   0.00000  Uiso   1.00
