data_job_03797
_audit_creation_date              2018-12-19
_audit_creation_method            'Materials Studio'
_symmetry_space_group_name_H-M    'P1'
_symmetry_Int_Tables_number       1
_symmetry_cell_setting            triclinic
loop_
_symmetry_equiv_pos_as_xyz
  x,y,z
_cell_length_a                    31.5620
_cell_length_b                    21.2787
_cell_length_c                    18.2056
_cell_angle_alpha                 90.0000
_cell_angle_beta                  90.0000
_cell_angle_gamma                 90.0000
loop_
_atom_site_label
_atom_site_type_symbol
_atom_site_fract_x
_atom_site_fract_y
_atom_site_fract_z
_atom_site_U_iso_or_equiv
_atom_site_adp_type
_atom_site_occupancy
C1     C     0.06283   0.73569   0.39795   0.00000  Uiso   1.00
C2     C     0.09858   0.75926   0.44710   0.00000  Uiso   1.00
C3     C     0.09369   0.78630   0.51595   0.00000  Uiso   1.00
C4     C     0.13033   0.80480   0.55216   0.00000  Uiso   1.00
C5     C     0.17975   0.84268   0.63327   0.00000  Uiso   1.00
C6     C     0.06768   0.77042   0.32517   0.00000  Uiso   1.00
C7     C     0.03681   0.80684   0.29149   0.00000  Uiso   1.00
C8     C     0.04745   0.83473   0.22505   0.00000  Uiso   1.00
C9     C     0.04888   0.88991   0.11683   0.00000  Uiso   1.00
C10    C     0.07280   0.66695   0.38175   0.00000  Uiso   1.00
C11    C     0.04622   0.61636   0.39563   0.00000  Uiso   1.00
C12    C     0.06116   0.55714   0.37682   0.00000  Uiso   1.00
C13    C     0.07053   0.45166   0.35646   0.00000  Uiso   1.00
C14    C     0.13662   0.72045   0.33984   0.00000  Uiso   1.00
C15    C     0.13866   0.75098   0.41554   0.00000  Uiso   1.00
C16    C     0.17532   0.76944   0.45166   0.00000  Uiso   1.00
C17    C     0.17049   0.79651   0.52055   0.00000  Uiso   1.00
C18    C     0.10776   0.76215   0.29361   0.00000  Uiso   1.00
C19    C     0.11844   0.78999   0.22720   0.00000  Uiso   1.00
C20    C     0.08759   0.82644   0.19344   0.00000  Uiso   1.00
C21    C     0.11288   0.65867   0.35019   0.00000  Uiso   1.00
C22    C     0.12786   0.59951   0.33135   0.00000  Uiso   1.00
C23    C     0.10131   0.54885   0.34520   0.00000  Uiso   1.00
H24    H     0.03163   0.74213   0.42251   0.00000  Uiso   1.00
H25    H     0.06267   0.79270   0.54035   0.00000  Uiso   1.00
H26    H     0.00579   0.81323   0.31592   0.00000  Uiso   1.00
H27    H     0.01521   0.62279   0.42006   0.00000  Uiso   1.00
H28    H     0.11475   0.84514   0.65706   0.00000  Uiso   1.00
H29    H     0.99483   0.88841   0.18383   0.00000  Uiso   1.00
H30    H     0.01467   0.48682   0.40342   0.00000  Uiso   1.00
H31    H     0.16782   0.71401   0.31527   0.00000  Uiso   1.00
H32    H     0.20633   0.76303   0.42722   0.00000  Uiso   1.00
H33    H     0.14946   0.78357   0.20280   0.00000  Uiso   1.00
H34    H     0.15887   0.59313   0.30693   0.00000  Uiso   1.00
H35    H     0.23136   0.82106   0.56524   0.00000  Uiso   1.00
H36    H     0.11143   0.86434   0.09201   0.00000  Uiso   1.00
H37    H     0.13128   0.46275   0.31160   0.00000  Uiso   1.00
O38    O     0.19593   0.86588   0.68672   0.00000  Uiso   1.00
O39    O     0.03859   0.92264   0.06586   0.00000  Uiso   1.00
O40    O     0.06463   0.39577   0.35395   0.00000  Uiso   1.00
N41    N     0.13691   0.83273   0.62009   0.00000  Uiso   1.00
N42    N     0.02479   0.87320   0.17766   0.00000  Uiso   1.00
N43    N     0.04334   0.49775   0.38293   0.00000  Uiso   1.00
N44    N     0.19965   0.81978   0.57069   0.00000  Uiso   1.00
N45    N     0.08754   0.86025   0.12825   0.00000  Uiso   1.00
N46    N     0.10608   0.48479   0.33353   0.00000  Uiso   1.00
C47    C     0.56283   0.23569   0.89795   0.00000  Uiso   1.00
C48    C     0.59858   0.25926   0.94710   0.00000  Uiso   1.00
C49    C     0.59369   0.28630   0.01595   0.00000  Uiso   1.00
C50    C     0.63033   0.30480   0.05216   0.00000  Uiso   1.00
C51    C     0.67975   0.34268   0.13327   0.00000  Uiso   1.00
C52    C     0.56768   0.27042   0.82517   0.00000  Uiso   1.00
C53    C     0.53681   0.30684   0.79149   0.00000  Uiso   1.00
C54    C     0.54745   0.33473   0.72505   0.00000  Uiso   1.00
C55    C     0.54888   0.38991   0.61683   0.00000  Uiso   1.00
C56    C     0.57280   0.16695   0.88175   0.00000  Uiso   1.00
C57    C     0.54622   0.11636   0.89563   0.00000  Uiso   1.00
C58    C     0.56116   0.05714   0.87682   0.00000  Uiso   1.00
C59    C     0.57053   0.95166   0.85646   0.00000  Uiso   1.00
C60    C     0.63662   0.22045   0.83984   0.00000  Uiso   1.00
C61    C     0.63866   0.25098   0.91554   0.00000  Uiso   1.00
C62    C     0.67532   0.26944   0.95166   0.00000  Uiso   1.00
C63    C     0.67049   0.29651   0.02055   0.00000  Uiso   1.00
C64    C     0.60776   0.26215   0.79361   0.00000  Uiso   1.00
C65    C     0.61844   0.28999   0.72720   0.00000  Uiso   1.00
C66    C     0.58759   0.32644   0.69344   0.00000  Uiso   1.00
C67    C     0.61288   0.15867   0.85019   0.00000  Uiso   1.00
C68    C     0.62786   0.09951   0.83135   0.00000  Uiso   1.00
C69    C     0.60131   0.04885   0.84520   0.00000  Uiso   1.00
H70    H     0.53163   0.24213   0.92251   0.00000  Uiso   1.00
H71    H     0.56267   0.29270   0.04035   0.00000  Uiso   1.00
H72    H     0.50579   0.31323   0.81592   0.00000  Uiso   1.00
H73    H     0.51521   0.12279   0.92006   0.00000  Uiso   1.00
H74    H     0.61475   0.34514   0.15706   0.00000  Uiso   1.00
H75    H     0.49483   0.38841   0.68383   0.00000  Uiso   1.00
H76    H     0.51467   0.98682   0.90342   0.00000  Uiso   1.00
H77    H     0.66782   0.21401   0.81527   0.00000  Uiso   1.00
H78    H     0.70633   0.26303   0.92722   0.00000  Uiso   1.00
H79    H     0.64946   0.28357   0.70280   0.00000  Uiso   1.00
H80    H     0.65887   0.09313   0.80693   0.00000  Uiso   1.00
H81    H     0.73136   0.32106   0.06524   0.00000  Uiso   1.00
H82    H     0.61143   0.36434   0.59201   0.00000  Uiso   1.00
H83    H     0.63128   0.96275   0.81160   0.00000  Uiso   1.00
O84    O     0.69593   0.36588   0.18672   0.00000  Uiso   1.00
O85    O     0.53859   0.42264   0.56586   0.00000  Uiso   1.00
O86    O     0.56463   0.89577   0.85395   0.00000  Uiso   1.00
N87    N     0.63691   0.33273   0.12009   0.00000  Uiso   1.00
N88    N     0.52479   0.37320   0.67766   0.00000  Uiso   1.00
N89    N     0.54334   0.99775   0.88293   0.00000  Uiso   1.00
N90    N     0.69965   0.31978   0.07069   0.00000  Uiso   1.00
N91    N     0.58754   0.36025   0.62825   0.00000  Uiso   1.00
N92    N     0.60608   0.98479   0.83353   0.00000  Uiso   1.00
C93    C     0.43717   0.26431   0.89795   0.00000  Uiso   1.00
C94    C     0.40142   0.24074   0.94710   0.00000  Uiso   1.00
C95    C     0.40631   0.21370   0.01595   0.00000  Uiso   1.00
C96    C     0.36967   0.19520   0.05216   0.00000  Uiso   1.00
C97    C     0.32025   0.15732   0.13327   0.00000  Uiso   1.00
C98    C     0.43232   0.22958   0.82517   0.00000  Uiso   1.00
C99    C     0.46319   0.19316   0.79149   0.00000  Uiso   1.00
C100   C     0.45255   0.16527   0.72505   0.00000  Uiso   1.00
C101   C     0.45112   0.11009   0.61683   0.00000  Uiso   1.00
C102   C     0.42720   0.33305   0.88175   0.00000  Uiso   1.00
C103   C     0.45378   0.38364   0.89563   0.00000  Uiso   1.00
C104   C     0.43884   0.44286   0.87682   0.00000  Uiso   1.00
C105   C     0.42947   0.54834   0.85646   0.00000  Uiso   1.00
C106   C     0.36338   0.27955   0.83984   0.00000  Uiso   1.00
C107   C     0.36134   0.24902   0.91554   0.00000  Uiso   1.00
C108   C     0.32468   0.23056   0.95166   0.00000  Uiso   1.00
C109   C     0.32951   0.20349   0.02055   0.00000  Uiso   1.00
C110   C     0.39224   0.23785   0.79361   0.00000  Uiso   1.00
C111   C     0.38156   0.21001   0.72720   0.00000  Uiso   1.00
C112   C     0.41241   0.17356   0.69344   0.00000  Uiso   1.00
C113   C     0.38712   0.34133   0.85019   0.00000  Uiso   1.00
C114   C     0.37214   0.40049   0.83135   0.00000  Uiso   1.00
C115   C     0.39869   0.45115   0.84520   0.00000  Uiso   1.00
H116   H     0.46837   0.25787   0.92251   0.00000  Uiso   1.00
H117   H     0.43733   0.20730   0.04035   0.00000  Uiso   1.00
H118   H     0.49421   0.18677   0.81592   0.00000  Uiso   1.00
H119   H     0.48479   0.37721   0.92006   0.00000  Uiso   1.00
H120   H     0.38525   0.15486   0.15706   0.00000  Uiso   1.00
H121   H     0.50517   0.11159   0.68383   0.00000  Uiso   1.00
H122   H     0.48533   0.51318   0.90342   0.00000  Uiso   1.00
H123   H     0.33218   0.28599   0.81527   0.00000  Uiso   1.00
H124   H     0.29367   0.23697   0.92722   0.00000  Uiso   1.00
H125   H     0.35054   0.21643   0.70280   0.00000  Uiso   1.00
H126   H     0.34113   0.40687   0.80693   0.00000  Uiso   1.00
H127   H     0.26864   0.17894   0.06524   0.00000  Uiso   1.00
H128   H     0.38857   0.13566   0.59201   0.00000  Uiso   1.00
H129   H     0.36872   0.53725   0.81160   0.00000  Uiso   1.00
O130   O     0.30407   0.13412   0.18672   0.00000  Uiso   1.00
O131   O     0.46141   0.07736   0.56586   0.00000  Uiso   1.00
O132   O     0.43537   0.60423   0.85395   0.00000  Uiso   1.00
N133   N     0.36309   0.16727   0.12009   0.00000  Uiso   1.00
N134   N     0.47521   0.12680   0.67766   0.00000  Uiso   1.00
N135   N     0.45666   0.50225   0.88293   0.00000  Uiso   1.00
N136   N     0.30035   0.18022   0.07069   0.00000  Uiso   1.00
N137   N     0.41246   0.13975   0.62825   0.00000  Uiso   1.00
N138   N     0.39392   0.51521   0.83353   0.00000  Uiso   1.00
C139   C     0.93717   0.76431   0.39795   0.00000  Uiso   1.00
C140   C     0.90142   0.74074   0.44710   0.00000  Uiso   1.00
C141   C     0.90631   0.71370   0.51595   0.00000  Uiso   1.00
C142   C     0.86967   0.69520   0.55216   0.00000  Uiso   1.00
C143   C     0.82025   0.65732   0.63327   0.00000  Uiso   1.00
C144   C     0.93232   0.72958   0.32517   0.00000  Uiso   1.00
C145   C     0.96319   0.69316   0.29149   0.00000  Uiso   1.00
C146   C     0.95255   0.66527   0.22505   0.00000  Uiso   1.00
C147   C     0.95112   0.61009   0.11683   0.00000  Uiso   1.00
C148   C     0.92720   0.83305   0.38175   0.00000  Uiso   1.00
C149   C     0.95378   0.88364   0.39563   0.00000  Uiso   1.00
C150   C     0.93884   0.94286   0.37682   0.00000  Uiso   1.00
C151   C     0.92947   0.04834   0.35646   0.00000  Uiso   1.00
C152   C     0.86338   0.77955   0.33984   0.00000  Uiso   1.00
C153   C     0.86134   0.74902   0.41554   0.00000  Uiso   1.00
C154   C     0.82468   0.73056   0.45166   0.00000  Uiso   1.00
C155   C     0.82951   0.70349   0.52055   0.00000  Uiso   1.00
C156   C     0.89224   0.73785   0.29361   0.00000  Uiso   1.00
C157   C     0.88156   0.71001   0.22720   0.00000  Uiso   1.00
C158   C     0.91241   0.67356   0.19344   0.00000  Uiso   1.00
C159   C     0.88712   0.84133   0.35019   0.00000  Uiso   1.00
C160   C     0.87214   0.90049   0.33135   0.00000  Uiso   1.00
C161   C     0.89869   0.95115   0.34520   0.00000  Uiso   1.00
H162   H     0.96837   0.75787   0.42251   0.00000  Uiso   1.00
H163   H     0.93733   0.70730   0.54035   0.00000  Uiso   1.00
H164   H     0.99421   0.68677   0.31592   0.00000  Uiso   1.00
H165   H     0.98479   0.87721   0.42006   0.00000  Uiso   1.00
H166   H     0.88525   0.65486   0.65706   0.00000  Uiso   1.00
H167   H     0.00517   0.61159   0.18383   0.00000  Uiso   1.00
H168   H     0.98533   0.01318   0.40342   0.00000  Uiso   1.00
H169   H     0.83218   0.78599   0.31527   0.00000  Uiso   1.00
H170   H     0.79367   0.73697   0.42722   0.00000  Uiso   1.00
H171   H     0.85054   0.71643   0.20280   0.00000  Uiso   1.00
H172   H     0.84113   0.90687   0.30693   0.00000  Uiso   1.00
H173   H     0.76864   0.67894   0.56524   0.00000  Uiso   1.00
H174   H     0.88857   0.63566   0.09201   0.00000  Uiso   1.00
H175   H     0.86872   0.03725   0.31160   0.00000  Uiso   1.00
O176   O     0.80407   0.63412   0.68672   0.00000  Uiso   1.00
O177   O     0.96141   0.57736   0.06586   0.00000  Uiso   1.00
O178   O     0.93537   0.10423   0.35395   0.00000  Uiso   1.00
N179   N     0.86309   0.66727   0.62009   0.00000  Uiso   1.00
N180   N     0.97521   0.62680   0.17766   0.00000  Uiso   1.00
N181   N     0.95666   0.00225   0.38293   0.00000  Uiso   1.00
N182   N     0.80035   0.68022   0.57069   0.00000  Uiso   1.00
N183   N     0.91246   0.63975   0.12825   0.00000  Uiso   1.00
N184   N     0.89392   0.01521   0.33353   0.00000  Uiso   1.00
C185   C     0.93717   0.23569   0.10205   0.00000  Uiso   1.00
C186   C     0.90142   0.25926   0.05290   0.00000  Uiso   1.00
C187   C     0.90631   0.28630   0.98405   0.00000  Uiso   1.00
C188   C     0.86967   0.30480   0.94784   0.00000  Uiso   1.00
C189   C     0.82025   0.34268   0.86673   0.00000  Uiso   1.00
C190   C     0.93232   0.27042   0.17483   0.00000  Uiso   1.00
C191   C     0.96319   0.30684   0.20851   0.00000  Uiso   1.00
C192   C     0.95255   0.33473   0.27495   0.00000  Uiso   1.00
C193   C     0.95112   0.38991   0.38317   0.00000  Uiso   1.00
C194   C     0.92720   0.16695   0.11825   0.00000  Uiso   1.00
C195   C     0.95378   0.11636   0.10437   0.00000  Uiso   1.00
C196   C     0.93884   0.05714   0.12318   0.00000  Uiso   1.00
C197   C     0.92947   0.95166   0.14354   0.00000  Uiso   1.00
C198   C     0.86338   0.22045   0.16016   0.00000  Uiso   1.00
C199   C     0.86134   0.25098   0.08446   0.00000  Uiso   1.00
C200   C     0.82468   0.26944   0.04834   0.00000  Uiso   1.00
C201   C     0.82951   0.29651   0.97945   0.00000  Uiso   1.00
C202   C     0.89224   0.26215   0.20639   0.00000  Uiso   1.00
C203   C     0.88156   0.28999   0.27280   0.00000  Uiso   1.00
C204   C     0.91241   0.32644   0.30656   0.00000  Uiso   1.00
C205   C     0.88712   0.15867   0.14981   0.00000  Uiso   1.00
C206   C     0.87214   0.09951   0.16865   0.00000  Uiso   1.00
C207   C     0.89869   0.04885   0.15480   0.00000  Uiso   1.00
H208   H     0.96837   0.24213   0.07749   0.00000  Uiso   1.00
H209   H     0.93733   0.29270   0.95965   0.00000  Uiso   1.00
H210   H     0.99421   0.31323   0.18408   0.00000  Uiso   1.00
H211   H     0.98479   0.12279   0.07994   0.00000  Uiso   1.00
H212   H     0.88525   0.34514   0.84294   0.00000  Uiso   1.00
H213   H     0.00517   0.38841   0.31617   0.00000  Uiso   1.00
H214   H     0.98533   0.98682   0.09658   0.00000  Uiso   1.00
H215   H     0.83218   0.21401   0.18473   0.00000  Uiso   1.00
H216   H     0.79367   0.26303   0.07278   0.00000  Uiso   1.00
H217   H     0.85054   0.28357   0.29720   0.00000  Uiso   1.00
H218   H     0.84113   0.09313   0.19307   0.00000  Uiso   1.00
H219   H     0.76864   0.32106   0.93476   0.00000  Uiso   1.00
H220   H     0.88857   0.36434   0.40799   0.00000  Uiso   1.00
H221   H     0.86872   0.96275   0.18840   0.00000  Uiso   1.00
O222   O     0.80407   0.36588   0.81328   0.00000  Uiso   1.00
O223   O     0.96141   0.42264   0.43414   0.00000  Uiso   1.00
O224   O     0.93537   0.89577   0.14605   0.00000  Uiso   1.00
N225   N     0.86309   0.33273   0.87991   0.00000  Uiso   1.00
N226   N     0.97521   0.37320   0.32234   0.00000  Uiso   1.00
N227   N     0.95666   0.99775   0.11707   0.00000  Uiso   1.00
N228   N     0.80035   0.31978   0.92931   0.00000  Uiso   1.00
N229   N     0.91246   0.36025   0.37175   0.00000  Uiso   1.00
N230   N     0.89392   0.98479   0.16647   0.00000  Uiso   1.00
C231   C     0.43717   0.73569   0.60205   0.00000  Uiso   1.00
C232   C     0.40142   0.75926   0.55290   0.00000  Uiso   1.00
C233   C     0.40631   0.78630   0.48405   0.00000  Uiso   1.00
C234   C     0.36967   0.80480   0.44784   0.00000  Uiso   1.00
C235   C     0.32025   0.84268   0.36673   0.00000  Uiso   1.00
C236   C     0.43232   0.77042   0.67483   0.00000  Uiso   1.00
C237   C     0.46319   0.80684   0.70851   0.00000  Uiso   1.00
C238   C     0.45255   0.83473   0.77495   0.00000  Uiso   1.00
C239   C     0.45112   0.88991   0.88317   0.00000  Uiso   1.00
C240   C     0.42720   0.66695   0.61825   0.00000  Uiso   1.00
C241   C     0.45378   0.61636   0.60437   0.00000  Uiso   1.00
C242   C     0.43884   0.55714   0.62318   0.00000  Uiso   1.00
C243   C     0.42947   0.45166   0.64354   0.00000  Uiso   1.00
C244   C     0.36338   0.72045   0.66016   0.00000  Uiso   1.00
C245   C     0.36134   0.75098   0.58446   0.00000  Uiso   1.00
C246   C     0.32468   0.76944   0.54834   0.00000  Uiso   1.00
C247   C     0.32951   0.79651   0.47945   0.00000  Uiso   1.00
C248   C     0.39224   0.76215   0.70639   0.00000  Uiso   1.00
C249   C     0.38156   0.78999   0.77280   0.00000  Uiso   1.00
C250   C     0.41241   0.82644   0.80656   0.00000  Uiso   1.00
C251   C     0.38712   0.65867   0.64981   0.00000  Uiso   1.00
C252   C     0.37214   0.59951   0.66865   0.00000  Uiso   1.00
C253   C     0.39869   0.54885   0.65480   0.00000  Uiso   1.00
H254   H     0.46837   0.74213   0.57749   0.00000  Uiso   1.00
H255   H     0.43733   0.79270   0.45965   0.00000  Uiso   1.00
H256   H     0.49421   0.81323   0.68408   0.00000  Uiso   1.00
H257   H     0.48479   0.62279   0.57994   0.00000  Uiso   1.00
H258   H     0.38525   0.84514   0.34294   0.00000  Uiso   1.00
H259   H     0.50517   0.88841   0.81617   0.00000  Uiso   1.00
H260   H     0.48533   0.48682   0.59658   0.00000  Uiso   1.00
H261   H     0.33218   0.71401   0.68473   0.00000  Uiso   1.00
H262   H     0.29367   0.76303   0.57278   0.00000  Uiso   1.00
H263   H     0.35054   0.78357   0.79720   0.00000  Uiso   1.00
H264   H     0.34113   0.59313   0.69307   0.00000  Uiso   1.00
H265   H     0.26864   0.82106   0.43476   0.00000  Uiso   1.00
H266   H     0.38857   0.86434   0.90799   0.00000  Uiso   1.00
H267   H     0.36872   0.46275   0.68840   0.00000  Uiso   1.00
O268   O     0.30407   0.86588   0.31328   0.00000  Uiso   1.00
O269   O     0.46141   0.92264   0.93414   0.00000  Uiso   1.00
O270   O     0.43537   0.39577   0.64605   0.00000  Uiso   1.00
N271   N     0.36309   0.83273   0.37991   0.00000  Uiso   1.00
N272   N     0.47521   0.87320   0.82234   0.00000  Uiso   1.00
N273   N     0.45666   0.49775   0.61707   0.00000  Uiso   1.00
N274   N     0.30035   0.81978   0.42931   0.00000  Uiso   1.00
N275   N     0.41246   0.86025   0.87175   0.00000  Uiso   1.00
N276   N     0.39392   0.48479   0.66647   0.00000  Uiso   1.00
C277   C     0.56283   0.76431   0.60205   0.00000  Uiso   1.00
C278   C     0.59858   0.74074   0.55290   0.00000  Uiso   1.00
C279   C     0.59369   0.71370   0.48405   0.00000  Uiso   1.00
C280   C     0.63033   0.69520   0.44784   0.00000  Uiso   1.00
C281   C     0.67975   0.65732   0.36673   0.00000  Uiso   1.00
C282   C     0.56768   0.72958   0.67483   0.00000  Uiso   1.00
C283   C     0.53681   0.69316   0.70851   0.00000  Uiso   1.00
C284   C     0.54745   0.66527   0.77495   0.00000  Uiso   1.00
C285   C     0.54888   0.61009   0.88317   0.00000  Uiso   1.00
C286   C     0.57280   0.83305   0.61825   0.00000  Uiso   1.00
C287   C     0.54622   0.88364   0.60437   0.00000  Uiso   1.00
C288   C     0.56116   0.94286   0.62318   0.00000  Uiso   1.00
C289   C     0.57053   0.04834   0.64354   0.00000  Uiso   1.00
C290   C     0.63662   0.77955   0.66016   0.00000  Uiso   1.00
C291   C     0.63866   0.74902   0.58446   0.00000  Uiso   1.00
C292   C     0.67532   0.73056   0.54834   0.00000  Uiso   1.00
C293   C     0.67049   0.70349   0.47945   0.00000  Uiso   1.00
C294   C     0.60776   0.73785   0.70639   0.00000  Uiso   1.00
C295   C     0.61844   0.71001   0.77280   0.00000  Uiso   1.00
C296   C     0.58759   0.67356   0.80656   0.00000  Uiso   1.00
C297   C     0.61288   0.84133   0.64981   0.00000  Uiso   1.00
C298   C     0.62786   0.90049   0.66865   0.00000  Uiso   1.00
C299   C     0.60131   0.95115   0.65480   0.00000  Uiso   1.00
H300   H     0.53163   0.75787   0.57749   0.00000  Uiso   1.00
H301   H     0.56267   0.70730   0.45965   0.00000  Uiso   1.00
H302   H     0.50579   0.68677   0.68408   0.00000  Uiso   1.00
H303   H     0.51521   0.87721   0.57994   0.00000  Uiso   1.00
H304   H     0.61475   0.65486   0.34294   0.00000  Uiso   1.00
H305   H     0.49483   0.61159   0.81617   0.00000  Uiso   1.00
H306   H     0.51467   0.01318   0.59658   0.00000  Uiso   1.00
H307   H     0.66782   0.78599   0.68473   0.00000  Uiso   1.00
H308   H     0.70633   0.73697   0.57278   0.00000  Uiso   1.00
H309   H     0.64946   0.71643   0.79720   0.00000  Uiso   1.00
H310   H     0.65887   0.90687   0.69307   0.00000  Uiso   1.00
H311   H     0.73136   0.67894   0.43476   0.00000  Uiso   1.00
H312   H     0.61143   0.63566   0.90799   0.00000  Uiso   1.00
H313   H     0.63128   0.03725   0.68840   0.00000  Uiso   1.00
O314   O     0.69593   0.63412   0.31328   0.00000  Uiso   1.00
O315   O     0.53859   0.57736   0.93414   0.00000  Uiso   1.00
O316   O     0.56463   0.10423   0.64605   0.00000  Uiso   1.00
N317   N     0.63691   0.66727   0.37991   0.00000  Uiso   1.00
N318   N     0.52479   0.62680   0.82234   0.00000  Uiso   1.00
N319   N     0.54334   0.00225   0.61707   0.00000  Uiso   1.00
N320   N     0.69965   0.68022   0.42931   0.00000  Uiso   1.00
N321   N     0.58754   0.63975   0.87175   0.00000  Uiso   1.00
N322   N     0.60608   0.01521   0.66647   0.00000  Uiso   1.00
C323   C     0.06283   0.26431   0.10205   0.00000  Uiso   1.00
C324   C     0.09858   0.24074   0.05290   0.00000  Uiso   1.00
C325   C     0.09369   0.21370   0.98405   0.00000  Uiso   1.00
C326   C     0.13033   0.19520   0.94784   0.00000  Uiso   1.00
C327   C     0.17975   0.15732   0.86673   0.00000  Uiso   1.00
C328   C     0.06768   0.22958   0.17483   0.00000  Uiso   1.00
C329   C     0.03681   0.19316   0.20851   0.00000  Uiso   1.00
C330   C     0.04745   0.16527   0.27495   0.00000  Uiso   1.00
C331   C     0.04888   0.11009   0.38317   0.00000  Uiso   1.00
C332   C     0.07280   0.33305   0.11825   0.00000  Uiso   1.00
C333   C     0.04622   0.38364   0.10437   0.00000  Uiso   1.00
C334   C     0.06116   0.44286   0.12318   0.00000  Uiso   1.00
C335   C     0.07053   0.54834   0.14354   0.00000  Uiso   1.00
C336   C     0.13662   0.27955   0.16016   0.00000  Uiso   1.00
C337   C     0.13866   0.24902   0.08446   0.00000  Uiso   1.00
C338   C     0.17532   0.23056   0.04834   0.00000  Uiso   1.00
C339   C     0.17049   0.20349   0.97945   0.00000  Uiso   1.00
C340   C     0.10776   0.23785   0.20639   0.00000  Uiso   1.00
C341   C     0.11844   0.21001   0.27280   0.00000  Uiso   1.00
C342   C     0.08759   0.17356   0.30656   0.00000  Uiso   1.00
C343   C     0.11288   0.34133   0.14981   0.00000  Uiso   1.00
C344   C     0.12786   0.40049   0.16865   0.00000  Uiso   1.00
C345   C     0.10131   0.45115   0.15480   0.00000  Uiso   1.00
H346   H     0.03163   0.25787   0.07749   0.00000  Uiso   1.00
H347   H     0.06267   0.20730   0.95965   0.00000  Uiso   1.00
H348   H     0.00579   0.18677   0.18408   0.00000  Uiso   1.00
H349   H     0.01521   0.37721   0.07994   0.00000  Uiso   1.00
H350   H     0.11475   0.15486   0.84294   0.00000  Uiso   1.00
H351   H     0.99483   0.11159   0.31617   0.00000  Uiso   1.00
H352   H     0.01467   0.51318   0.09658   0.00000  Uiso   1.00
H353   H     0.16782   0.28599   0.18473   0.00000  Uiso   1.00
H354   H     0.20633   0.23697   0.07278   0.00000  Uiso   1.00
H355   H     0.14946   0.21643   0.29720   0.00000  Uiso   1.00
H356   H     0.15887   0.40687   0.19307   0.00000  Uiso   1.00
H357   H     0.23136   0.17894   0.93476   0.00000  Uiso   1.00
H358   H     0.11143   0.13566   0.40799   0.00000  Uiso   1.00
H359   H     0.13128   0.53725   0.18840   0.00000  Uiso   1.00
O360   O     0.19593   0.13412   0.81328   0.00000  Uiso   1.00
O361   O     0.03859   0.07736   0.43414   0.00000  Uiso   1.00
O362   O     0.06463   0.60423   0.14605   0.00000  Uiso   1.00
N363   N     0.13691   0.16727   0.87991   0.00000  Uiso   1.00
N364   N     0.02479   0.12680   0.32234   0.00000  Uiso   1.00
N365   N     0.04334   0.50225   0.11707   0.00000  Uiso   1.00
N366   N     0.19965   0.18022   0.92931   0.00000  Uiso   1.00
N367   N     0.08754   0.13975   0.37175   0.00000  Uiso   1.00
N368   N     0.10608   0.51521   0.16647   0.00000  Uiso   1.00
C369   C     0.93717   0.26431   0.60205   0.00000  Uiso   1.00
C370   C     0.90142   0.24074   0.55290   0.00000  Uiso   1.00
C371   C     0.90631   0.21370   0.48405   0.00000  Uiso   1.00
C372   C     0.86967   0.19520   0.44784   0.00000  Uiso   1.00
C373   C     0.82025   0.15732   0.36673   0.00000  Uiso   1.00
C374   C     0.93232   0.22958   0.67483   0.00000  Uiso   1.00
C375   C     0.96319   0.19316   0.70851   0.00000  Uiso   1.00
C376   C     0.95255   0.16527   0.77495   0.00000  Uiso   1.00
C377   C     0.95112   0.11009   0.88317   0.00000  Uiso   1.00
C378   C     0.92720   0.33305   0.61825   0.00000  Uiso   1.00
C379   C     0.95378   0.38364   0.60437   0.00000  Uiso   1.00
C380   C     0.93884   0.44286   0.62318   0.00000  Uiso   1.00
C381   C     0.92947   0.54834   0.64354   0.00000  Uiso   1.00
C382   C     0.86338   0.27955   0.66016   0.00000  Uiso   1.00
C383   C     0.86134   0.24902   0.58446   0.00000  Uiso   1.00
C384   C     0.82468   0.23056   0.54834   0.00000  Uiso   1.00
C385   C     0.82951   0.20349   0.47945   0.00000  Uiso   1.00
C386   C     0.89224   0.23785   0.70639   0.00000  Uiso   1.00
C387   C     0.88156   0.21001   0.77280   0.00000  Uiso   1.00
C388   C     0.91241   0.17356   0.80656   0.00000  Uiso   1.00
C389   C     0.88712   0.34133   0.64981   0.00000  Uiso   1.00
C390   C     0.87214   0.40049   0.66865   0.00000  Uiso   1.00
C391   C     0.89869   0.45115   0.65480   0.00000  Uiso   1.00
H392   H     0.96837   0.25787   0.57749   0.00000  Uiso   1.00
H393   H     0.93733   0.20730   0.45965   0.00000  Uiso   1.00
H394   H     0.99421   0.18677   0.68408   0.00000  Uiso   1.00
H395   H     0.98479   0.37721   0.57994   0.00000  Uiso   1.00
H396   H     0.88525   0.15486   0.34294   0.00000  Uiso   1.00
H397   H     0.00517   0.11159   0.81617   0.00000  Uiso   1.00
H398   H     0.98533   0.51318   0.59658   0.00000  Uiso   1.00
H399   H     0.83218   0.28599   0.68473   0.00000  Uiso   1.00
H400   H     0.79367   0.23697   0.57278   0.00000  Uiso   1.00
H401   H     0.85054   0.21643   0.79720   0.00000  Uiso   1.00
H402   H     0.84113   0.40687   0.69307   0.00000  Uiso   1.00
H403   H     0.76864   0.17894   0.43476   0.00000  Uiso   1.00
H404   H     0.88857   0.13566   0.90799   0.00000  Uiso   1.00
H405   H     0.86872   0.53725   0.68840   0.00000  Uiso   1.00
O406   O     0.80407   0.13412   0.31328   0.00000  Uiso   1.00
O407   O     0.96141   0.07736   0.93414   0.00000  Uiso   1.00
O408   O     0.93537   0.60423   0.64605   0.00000  Uiso   1.00
N409   N     0.86309   0.16727   0.37991   0.00000  Uiso   1.00
N410   N     0.97521   0.12680   0.82234   0.00000  Uiso   1.00
N411   N     0.95666   0.50225   0.61707   0.00000  Uiso   1.00
N412   N     0.80035   0.18022   0.42931   0.00000  Uiso   1.00
N413   N     0.91246   0.13975   0.87175   0.00000  Uiso   1.00
N414   N     0.89392   0.51521   0.66647   0.00000  Uiso   1.00
C415   C     0.43717   0.76431   0.10205   0.00000  Uiso   1.00
C416   C     0.40142   0.74074   0.05290   0.00000  Uiso   1.00
C417   C     0.40631   0.71370   0.98405   0.00000  Uiso   1.00
C418   C     0.36967   0.69520   0.94784   0.00000  Uiso   1.00
C419   C     0.32025   0.65732   0.86673   0.00000  Uiso   1.00
C420   C     0.43232   0.72958   0.17483   0.00000  Uiso   1.00
C421   C     0.46319   0.69316   0.20851   0.00000  Uiso   1.00
C422   C     0.45255   0.66527   0.27495   0.00000  Uiso   1.00
C423   C     0.45112   0.61009   0.38317   0.00000  Uiso   1.00
C424   C     0.42720   0.83305   0.11825   0.00000  Uiso   1.00
C425   C     0.45378   0.88364   0.10437   0.00000  Uiso   1.00
C426   C     0.43884   0.94286   0.12318   0.00000  Uiso   1.00
C427   C     0.42947   0.04834   0.14354   0.00000  Uiso   1.00
C428   C     0.36338   0.77955   0.16016   0.00000  Uiso   1.00
C429   C     0.36134   0.74902   0.08446   0.00000  Uiso   1.00
C430   C     0.32468   0.73056   0.04834   0.00000  Uiso   1.00
C431   C     0.32951   0.70349   0.97945   0.00000  Uiso   1.00
C432   C     0.39224   0.73785   0.20639   0.00000  Uiso   1.00
C433   C     0.38156   0.71001   0.27280   0.00000  Uiso   1.00
C434   C     0.41241   0.67356   0.30656   0.00000  Uiso   1.00
C435   C     0.38712   0.84133   0.14981   0.00000  Uiso   1.00
C436   C     0.37214   0.90049   0.16865   0.00000  Uiso   1.00
C437   C     0.39869   0.95115   0.15480   0.00000  Uiso   1.00
H438   H     0.46837   0.75787   0.07749   0.00000  Uiso   1.00
H439   H     0.43733   0.70730   0.95965   0.00000  Uiso   1.00
H440   H     0.49421   0.68677   0.18408   0.00000  Uiso   1.00
H441   H     0.48479   0.87721   0.07994   0.00000  Uiso   1.00
H442   H     0.38525   0.65486   0.84294   0.00000  Uiso   1.00
H443   H     0.50517   0.61159   0.31617   0.00000  Uiso   1.00
H444   H     0.48533   0.01318   0.09658   0.00000  Uiso   1.00
H445   H     0.33218   0.78599   0.18473   0.00000  Uiso   1.00
H446   H     0.29367   0.73697   0.07278   0.00000  Uiso   1.00
H447   H     0.35054   0.71643   0.29720   0.00000  Uiso   1.00
H448   H     0.34113   0.90687   0.19307   0.00000  Uiso   1.00
H449   H     0.26864   0.67894   0.93476   0.00000  Uiso   1.00
H450   H     0.38857   0.63566   0.40799   0.00000  Uiso   1.00
H451   H     0.36872   0.03725   0.18840   0.00000  Uiso   1.00
O452   O     0.30407   0.63412   0.81328   0.00000  Uiso   1.00
O453   O     0.46141   0.57736   0.43414   0.00000  Uiso   1.00
O454   O     0.43537   0.10423   0.14605   0.00000  Uiso   1.00
N455   N     0.36309   0.66727   0.87991   0.00000  Uiso   1.00
N456   N     0.47521   0.62680   0.32234   0.00000  Uiso   1.00
N457   N     0.45666   0.00225   0.11707   0.00000  Uiso   1.00
N458   N     0.30035   0.68022   0.92931   0.00000  Uiso   1.00
N459   N     0.41246   0.63975   0.37175   0.00000  Uiso   1.00
N460   N     0.39392   0.01521   0.16647   0.00000  Uiso   1.00
C461   C     0.56283   0.73569   0.10205   0.00000  Uiso   1.00
C462   C     0.59858   0.75926   0.05290   0.00000  Uiso   1.00
C463   C     0.59369   0.78630   0.98405   0.00000  Uiso   1.00
C464   C     0.63033   0.80480   0.94784   0.00000  Uiso   1.00
C465   C     0.67975   0.84268   0.86673   0.00000  Uiso   1.00
C466   C     0.56768   0.77042   0.17483   0.00000  Uiso   1.00
C467   C     0.53681   0.80684   0.20851   0.00000  Uiso   1.00
C468   C     0.54745   0.83473   0.27495   0.00000  Uiso   1.00
C469   C     0.54888   0.88991   0.38317   0.00000  Uiso   1.00
C470   C     0.57280   0.66695   0.11825   0.00000  Uiso   1.00
C471   C     0.54622   0.61636   0.10437   0.00000  Uiso   1.00
C472   C     0.56116   0.55714   0.12318   0.00000  Uiso   1.00
C473   C     0.57053   0.45166   0.14354   0.00000  Uiso   1.00
C474   C     0.63662   0.72045   0.16016   0.00000  Uiso   1.00
C475   C     0.63866   0.75098   0.08446   0.00000  Uiso   1.00
C476   C     0.67532   0.76944   0.04834   0.00000  Uiso   1.00
C477   C     0.67049   0.79651   0.97945   0.00000  Uiso   1.00
C478   C     0.60776   0.76215   0.20639   0.00000  Uiso   1.00
C479   C     0.61844   0.78999   0.27280   0.00000  Uiso   1.00
C480   C     0.58759   0.82644   0.30656   0.00000  Uiso   1.00
C481   C     0.61288   0.65867   0.14981   0.00000  Uiso   1.00
C482   C     0.62786   0.59951   0.16865   0.00000  Uiso   1.00
C483   C     0.60131   0.54885   0.15480   0.00000  Uiso   1.00
H484   H     0.53163   0.74213   0.07749   0.00000  Uiso   1.00
H485   H     0.56267   0.79270   0.95965   0.00000  Uiso   1.00
H486   H     0.50579   0.81323   0.18408   0.00000  Uiso   1.00
H487   H     0.51521   0.62279   0.07994   0.00000  Uiso   1.00
H488   H     0.61475   0.84514   0.84294   0.00000  Uiso   1.00
H489   H     0.49483   0.88841   0.31617   0.00000  Uiso   1.00
H490   H     0.51467   0.48682   0.09658   0.00000  Uiso   1.00
H491   H     0.66782   0.71401   0.18473   0.00000  Uiso   1.00
H492   H     0.70633   0.76303   0.07278   0.00000  Uiso   1.00
H493   H     0.64946   0.78357   0.29720   0.00000  Uiso   1.00
H494   H     0.65887   0.59313   0.19307   0.00000  Uiso   1.00
H495   H     0.73136   0.82106   0.93476   0.00000  Uiso   1.00
H496   H     0.61143   0.86434   0.40799   0.00000  Uiso   1.00
H497   H     0.63128   0.46275   0.18840   0.00000  Uiso   1.00
O498   O     0.69593   0.86588   0.81328   0.00000  Uiso   1.00
O499   O     0.53859   0.92264   0.43414   0.00000  Uiso   1.00
O500   O     0.56463   0.39577   0.14605   0.00000  Uiso   1.00
N501   N     0.63691   0.83273   0.87991   0.00000  Uiso   1.00
N502   N     0.52479   0.87320   0.32234   0.00000  Uiso   1.00
N503   N     0.54334   0.49775   0.11707   0.00000  Uiso   1.00
N504   N     0.69965   0.81978   0.92931   0.00000  Uiso   1.00
N505   N     0.58754   0.86025   0.37175   0.00000  Uiso   1.00
N506   N     0.60608   0.48479   0.16647   0.00000  Uiso   1.00
C507   C     0.06283   0.23569   0.60205   0.00000  Uiso   1.00
C508   C     0.09858   0.25926   0.55290   0.00000  Uiso   1.00
C509   C     0.09369   0.28630   0.48405   0.00000  Uiso   1.00
C510   C     0.13033   0.30480   0.44784   0.00000  Uiso   1.00
C511   C     0.17975   0.34268   0.36673   0.00000  Uiso   1.00
C512   C     0.06768   0.27042   0.67483   0.00000  Uiso   1.00
C513   C     0.03681   0.30684   0.70851   0.00000  Uiso   1.00
C514   C     0.04745   0.33473   0.77495   0.00000  Uiso   1.00
C515   C     0.04888   0.38991   0.88317   0.00000  Uiso   1.00
C516   C     0.07280   0.16695   0.61825   0.00000  Uiso   1.00
C517   C     0.04622   0.11636   0.60437   0.00000  Uiso   1.00
C518   C     0.06116   0.05714   0.62318   0.00000  Uiso   1.00
C519   C     0.07053   0.95166   0.64354   0.00000  Uiso   1.00
C520   C     0.13662   0.22045   0.66016   0.00000  Uiso   1.00
C521   C     0.13866   0.25098   0.58446   0.00000  Uiso   1.00
C522   C     0.17532   0.26944   0.54834   0.00000  Uiso   1.00
C523   C     0.17049   0.29651   0.47945   0.00000  Uiso   1.00
C524   C     0.10776   0.26215   0.70639   0.00000  Uiso   1.00
C525   C     0.11844   0.28999   0.77280   0.00000  Uiso   1.00
C526   C     0.08759   0.32644   0.80656   0.00000  Uiso   1.00
C527   C     0.11288   0.15867   0.64981   0.00000  Uiso   1.00
C528   C     0.12786   0.09951   0.66865   0.00000  Uiso   1.00
C529   C     0.10131   0.04885   0.65480   0.00000  Uiso   1.00
H530   H     0.03163   0.24213   0.57749   0.00000  Uiso   1.00
H531   H     0.06267   0.29270   0.45965   0.00000  Uiso   1.00
H532   H     0.00579   0.31323   0.68408   0.00000  Uiso   1.00
H533   H     0.01521   0.12279   0.57994   0.00000  Uiso   1.00
H534   H     0.11475   0.34514   0.34294   0.00000  Uiso   1.00
H535   H     0.99483   0.38841   0.81617   0.00000  Uiso   1.00
H536   H     0.01467   0.98682   0.59658   0.00000  Uiso   1.00
H537   H     0.16782   0.21401   0.68473   0.00000  Uiso   1.00
H538   H     0.20633   0.26303   0.57278   0.00000  Uiso   1.00
H539   H     0.14946   0.28357   0.79720   0.00000  Uiso   1.00
H540   H     0.15887   0.09313   0.69307   0.00000  Uiso   1.00
H541   H     0.23136   0.32106   0.43476   0.00000  Uiso   1.00
H542   H     0.11143   0.36434   0.90799   0.00000  Uiso   1.00
H543   H     0.13128   0.96275   0.68840   0.00000  Uiso   1.00
O544   O     0.19593   0.36588   0.31328   0.00000  Uiso   1.00
O545   O     0.03859   0.42264   0.93414   0.00000  Uiso   1.00
O546   O     0.06463   0.89577   0.64605   0.00000  Uiso   1.00
N547   N     0.13691   0.33273   0.37991   0.00000  Uiso   1.00
N548   N     0.02479   0.37320   0.82234   0.00000  Uiso   1.00
N549   N     0.04334   0.99775   0.61707   0.00000  Uiso   1.00
N550   N     0.19965   0.31978   0.42931   0.00000  Uiso   1.00
N551   N     0.08754   0.36025   0.87175   0.00000  Uiso   1.00
N552   N     0.10608   0.98479   0.66647   0.00000  Uiso   1.00
C553   C     0.06283   0.76431   0.89795   0.00000  Uiso   1.00
C554   C     0.09858   0.74074   0.94710   0.00000  Uiso   1.00
C555   C     0.09369   0.71370   0.01595   0.00000  Uiso   1.00
C556   C     0.13033   0.69520   0.05216   0.00000  Uiso   1.00
C557   C     0.17975   0.65732   0.13327   0.00000  Uiso   1.00
C558   C     0.06768   0.72958   0.82517   0.00000  Uiso   1.00
C559   C     0.03681   0.69316   0.79149   0.00000  Uiso   1.00
C560   C     0.04745   0.66527   0.72505   0.00000  Uiso   1.00
C561   C     0.04888   0.61009   0.61683   0.00000  Uiso   1.00
C562   C     0.07280   0.83305   0.88175   0.00000  Uiso   1.00
C563   C     0.04622   0.88364   0.89563   0.00000  Uiso   1.00
C564   C     0.06116   0.94286   0.87682   0.00000  Uiso   1.00
C565   C     0.07053   0.04834   0.85646   0.00000  Uiso   1.00
C566   C     0.13662   0.77955   0.83984   0.00000  Uiso   1.00
C567   C     0.13866   0.74902   0.91554   0.00000  Uiso   1.00
C568   C     0.17532   0.73056   0.95166   0.00000  Uiso   1.00
C569   C     0.17049   0.70349   0.02055   0.00000  Uiso   1.00
C570   C     0.10776   0.73785   0.79361   0.00000  Uiso   1.00
C571   C     0.11844   0.71001   0.72720   0.00000  Uiso   1.00
C572   C     0.08759   0.67356   0.69344   0.00000  Uiso   1.00
C573   C     0.11288   0.84133   0.85019   0.00000  Uiso   1.00
C574   C     0.12786   0.90049   0.83135   0.00000  Uiso   1.00
C575   C     0.10131   0.95115   0.84520   0.00000  Uiso   1.00
H576   H     0.03163   0.75787   0.92251   0.00000  Uiso   1.00
H577   H     0.06267   0.70730   0.04035   0.00000  Uiso   1.00
H578   H     0.00579   0.68677   0.81592   0.00000  Uiso   1.00
H579   H     0.01521   0.87721   0.92006   0.00000  Uiso   1.00
H580   H     0.11475   0.65486   0.15706   0.00000  Uiso   1.00
H581   H     0.99483   0.61159   0.68383   0.00000  Uiso   1.00
H582   H     0.01467   0.01318   0.90342   0.00000  Uiso   1.00
H583   H     0.16782   0.78599   0.81527   0.00000  Uiso   1.00
H584   H     0.20633   0.73697   0.92722   0.00000  Uiso   1.00
H585   H     0.14946   0.71643   0.70280   0.00000  Uiso   1.00
H586   H     0.15887   0.90687   0.80693   0.00000  Uiso   1.00
H587   H     0.23136   0.67894   0.06524   0.00000  Uiso   1.00
H588   H     0.11143   0.63566   0.59201   0.00000  Uiso   1.00
H589   H     0.13128   0.03725   0.81160   0.00000  Uiso   1.00
O590   O     0.19593   0.63412   0.18672   0.00000  Uiso   1.00
O591   O     0.03859   0.57736   0.56586   0.00000  Uiso   1.00
O592   O     0.06463   0.10423   0.85395   0.00000  Uiso   1.00
N593   N     0.13691   0.66727   0.12009   0.00000  Uiso   1.00
N594   N     0.02479   0.62680   0.67766   0.00000  Uiso   1.00
N595   N     0.04334   0.00225   0.88293   0.00000  Uiso   1.00
N596   N     0.19965   0.68022   0.07069   0.00000  Uiso   1.00
N597   N     0.08754   0.63975   0.62825   0.00000  Uiso   1.00
N598   N     0.10608   0.01521   0.83353   0.00000  Uiso   1.00
C599   C     0.56283   0.26431   0.39795   0.00000  Uiso   1.00
C600   C     0.59858   0.24074   0.44710   0.00000  Uiso   1.00
C601   C     0.59369   0.21370   0.51595   0.00000  Uiso   1.00
C602   C     0.63033   0.19520   0.55216   0.00000  Uiso   1.00
C603   C     0.67975   0.15732   0.63327   0.00000  Uiso   1.00
C604   C     0.56768   0.22958   0.32517   0.00000  Uiso   1.00
C605   C     0.53681   0.19316   0.29149   0.00000  Uiso   1.00
C606   C     0.54745   0.16527   0.22505   0.00000  Uiso   1.00
C607   C     0.54888   0.11009   0.11683   0.00000  Uiso   1.00
C608   C     0.57280   0.33305   0.38175   0.00000  Uiso   1.00
C609   C     0.54622   0.38364   0.39563   0.00000  Uiso   1.00
C610   C     0.56116   0.44286   0.37682   0.00000  Uiso   1.00
C611   C     0.57053   0.54834   0.35646   0.00000  Uiso   1.00
C612   C     0.63662   0.27955   0.33984   0.00000  Uiso   1.00
C613   C     0.63866   0.24902   0.41554   0.00000  Uiso   1.00
C614   C     0.67532   0.23056   0.45166   0.00000  Uiso   1.00
C615   C     0.67049   0.20349   0.52055   0.00000  Uiso   1.00
C616   C     0.60776   0.23785   0.29361   0.00000  Uiso   1.00
C617   C     0.61844   0.21001   0.22720   0.00000  Uiso   1.00
C618   C     0.58759   0.17356   0.19344   0.00000  Uiso   1.00
C619   C     0.61288   0.34133   0.35019   0.00000  Uiso   1.00
C620   C     0.62786   0.40049   0.33135   0.00000  Uiso   1.00
C621   C     0.60131   0.45115   0.34520   0.00000  Uiso   1.00
H622   H     0.53163   0.25787   0.42251   0.00000  Uiso   1.00
H623   H     0.56267   0.20730   0.54035   0.00000  Uiso   1.00
H624   H     0.50579   0.18677   0.31592   0.00000  Uiso   1.00
H625   H     0.51521   0.37721   0.42006   0.00000  Uiso   1.00
H626   H     0.61475   0.15486   0.65706   0.00000  Uiso   1.00
H627   H     0.49483   0.11159   0.18383   0.00000  Uiso   1.00
H628   H     0.51467   0.51318   0.40342   0.00000  Uiso   1.00
H629   H     0.66782   0.28599   0.31527   0.00000  Uiso   1.00
H630   H     0.70633   0.23697   0.42722   0.00000  Uiso   1.00
H631   H     0.64946   0.21643   0.20280   0.00000  Uiso   1.00
H632   H     0.65887   0.40687   0.30693   0.00000  Uiso   1.00
H633   H     0.73136   0.17894   0.56524   0.00000  Uiso   1.00
H634   H     0.61143   0.13566   0.09201   0.00000  Uiso   1.00
H635   H     0.63128   0.53725   0.31160   0.00000  Uiso   1.00
O636   O     0.69593   0.13412   0.68672   0.00000  Uiso   1.00
O637   O     0.53859   0.07736   0.06586   0.00000  Uiso   1.00
O638   O     0.56463   0.60423   0.35395   0.00000  Uiso   1.00
N639   N     0.63691   0.16727   0.62009   0.00000  Uiso   1.00
N640   N     0.52479   0.12680   0.17766   0.00000  Uiso   1.00
N641   N     0.54334   0.50225   0.38293   0.00000  Uiso   1.00
N642   N     0.69965   0.18022   0.57069   0.00000  Uiso   1.00
N643   N     0.58754   0.13975   0.12825   0.00000  Uiso   1.00
N644   N     0.60608   0.51521   0.33353   0.00000  Uiso   1.00
C645   C     0.43717   0.23569   0.39795   0.00000  Uiso   1.00
C646   C     0.40142   0.25926   0.44710   0.00000  Uiso   1.00
C647   C     0.40631   0.28630   0.51595   0.00000  Uiso   1.00
C648   C     0.36967   0.30480   0.55216   0.00000  Uiso   1.00
C649   C     0.32025   0.34268   0.63327   0.00000  Uiso   1.00
C650   C     0.43232   0.27042   0.32517   0.00000  Uiso   1.00
C651   C     0.46319   0.30684   0.29149   0.00000  Uiso   1.00
C652   C     0.45255   0.33473   0.22505   0.00000  Uiso   1.00
C653   C     0.45112   0.38991   0.11683   0.00000  Uiso   1.00
C654   C     0.42720   0.16695   0.38175   0.00000  Uiso   1.00
C655   C     0.45378   0.11636   0.39563   0.00000  Uiso   1.00
C656   C     0.43884   0.05714   0.37682   0.00000  Uiso   1.00
C657   C     0.42947   0.95166   0.35646   0.00000  Uiso   1.00
C658   C     0.36338   0.22045   0.33984   0.00000  Uiso   1.00
C659   C     0.36134   0.25098   0.41554   0.00000  Uiso   1.00
C660   C     0.32468   0.26944   0.45166   0.00000  Uiso   1.00
C661   C     0.32951   0.29651   0.52055   0.00000  Uiso   1.00
C662   C     0.39224   0.26215   0.29361   0.00000  Uiso   1.00
C663   C     0.38156   0.28999   0.22720   0.00000  Uiso   1.00
C664   C     0.41241   0.32644   0.19344   0.00000  Uiso   1.00
C665   C     0.38712   0.15867   0.35019   0.00000  Uiso   1.00
C666   C     0.37214   0.09951   0.33135   0.00000  Uiso   1.00
C667   C     0.39869   0.04885   0.34520   0.00000  Uiso   1.00
H668   H     0.46837   0.24213   0.42251   0.00000  Uiso   1.00
H669   H     0.43733   0.29270   0.54035   0.00000  Uiso   1.00
H670   H     0.49421   0.31323   0.31592   0.00000  Uiso   1.00
H671   H     0.48479   0.12279   0.42006   0.00000  Uiso   1.00
H672   H     0.38525   0.34514   0.65706   0.00000  Uiso   1.00
H673   H     0.50517   0.38841   0.18383   0.00000  Uiso   1.00
H674   H     0.48533   0.98682   0.40342   0.00000  Uiso   1.00
H675   H     0.33218   0.21401   0.31527   0.00000  Uiso   1.00
H676   H     0.29367   0.26303   0.42722   0.00000  Uiso   1.00
H677   H     0.35054   0.28357   0.20280   0.00000  Uiso   1.00
H678   H     0.34113   0.09313   0.30693   0.00000  Uiso   1.00
H679   H     0.26864   0.32106   0.56524   0.00000  Uiso   1.00
H680   H     0.38857   0.36434   0.09201   0.00000  Uiso   1.00
H681   H     0.36872   0.96275   0.31160   0.00000  Uiso   1.00
O682   O     0.30407   0.36588   0.68672   0.00000  Uiso   1.00
O683   O     0.46141   0.42264   0.06586   0.00000  Uiso   1.00
O684   O     0.43537   0.89577   0.35395   0.00000  Uiso   1.00
N685   N     0.36309   0.33273   0.62009   0.00000  Uiso   1.00
N686   N     0.47521   0.37320   0.17766   0.00000  Uiso   1.00
N687   N     0.45666   0.99775   0.38293   0.00000  Uiso   1.00
N688   N     0.30035   0.31978   0.57069   0.00000  Uiso   1.00
N689   N     0.41246   0.36025   0.12825   0.00000  Uiso   1.00
N690   N     0.39392   0.98479   0.33353   0.00000  Uiso   1.00
C691   C     0.93717   0.73569   0.89795   0.00000  Uiso   1.00
C692   C     0.90142   0.75926   0.94710   0.00000  Uiso   1.00
C693   C     0.90631   0.78630   0.01595   0.00000  Uiso   1.00
C694   C     0.86967   0.80480   0.05216   0.00000  Uiso   1.00
C695   C     0.82025   0.84268   0.13327   0.00000  Uiso   1.00
C696   C     0.93232   0.77042   0.82517   0.00000  Uiso   1.00
C697   C     0.96319   0.80684   0.79149   0.00000  Uiso   1.00
C698   C     0.95255   0.83473   0.72505   0.00000  Uiso   1.00
C699   C     0.95112   0.88991   0.61683   0.00000  Uiso   1.00
C700   C     0.92720   0.66695   0.88175   0.00000  Uiso   1.00
C701   C     0.95378   0.61636   0.89563   0.00000  Uiso   1.00
C702   C     0.93884   0.55714   0.87682   0.00000  Uiso   1.00
C703   C     0.92947   0.45166   0.85646   0.00000  Uiso   1.00
C704   C     0.86338   0.72045   0.83984   0.00000  Uiso   1.00
C705   C     0.86134   0.75098   0.91554   0.00000  Uiso   1.00
C706   C     0.82468   0.76944   0.95166   0.00000  Uiso   1.00
C707   C     0.82951   0.79651   0.02055   0.00000  Uiso   1.00
C708   C     0.89224   0.76215   0.79361   0.00000  Uiso   1.00
C709   C     0.88156   0.78999   0.72720   0.00000  Uiso   1.00
C710   C     0.91241   0.82644   0.69344   0.00000  Uiso   1.00
C711   C     0.88712   0.65867   0.85019   0.00000  Uiso   1.00
C712   C     0.87214   0.59951   0.83135   0.00000  Uiso   1.00
C713   C     0.89869   0.54885   0.84520   0.00000  Uiso   1.00
H714   H     0.96837   0.74213   0.92251   0.00000  Uiso   1.00
H715   H     0.93733   0.79270   0.04035   0.00000  Uiso   1.00
H716   H     0.99421   0.81323   0.81592   0.00000  Uiso   1.00
H717   H     0.98479   0.62279   0.92006   0.00000  Uiso   1.00
H718   H     0.88525   0.84514   0.15706   0.00000  Uiso   1.00
H719   H     0.00517   0.88841   0.68383   0.00000  Uiso   1.00
H720   H     0.98533   0.48682   0.90342   0.00000  Uiso   1.00
H721   H     0.83218   0.71401   0.81527   0.00000  Uiso   1.00
H722   H     0.79367   0.76303   0.92722   0.00000  Uiso   1.00
H723   H     0.85054   0.78357   0.70280   0.00000  Uiso   1.00
H724   H     0.84113   0.59313   0.80693   0.00000  Uiso   1.00
H725   H     0.76864   0.82106   0.06524   0.00000  Uiso   1.00
H726   H     0.88857   0.86434   0.59201   0.00000  Uiso   1.00
H727   H     0.86872   0.46275   0.81160   0.00000  Uiso   1.00
O728   O     0.80407   0.86588   0.18672   0.00000  Uiso   1.00
O729   O     0.96141   0.92264   0.56586   0.00000  Uiso   1.00
O730   O     0.93537   0.39577   0.85395   0.00000  Uiso   1.00
N731   N     0.86309   0.83273   0.12009   0.00000  Uiso   1.00
N732   N     0.97521   0.87320   0.67766   0.00000  Uiso   1.00
N733   N     0.95666   0.49775   0.88293   0.00000  Uiso   1.00
N734   N     0.80035   0.81978   0.07069   0.00000  Uiso   1.00
N735   N     0.91246   0.86025   0.62825   0.00000  Uiso   1.00
N736   N     0.89392   0.48479   0.83353   0.00000  Uiso   1.00
