data_job_05461
_audit_creation_date              2018-12-19
_audit_creation_method            'Materials Studio'
_symmetry_space_group_name_H-M    'P1'
_symmetry_Int_Tables_number       1
_symmetry_cell_setting            triclinic
loop_
_symmetry_equiv_pos_as_xyz
  x,y,z
_cell_length_a                    23.3346
_cell_length_b                    23.3346
_cell_length_c                    16.6515
_cell_angle_alpha                 90.0000
_cell_angle_beta                  90.0000
_cell_angle_gamma                 90.0000
loop_
_atom_site_label
_atom_site_type_symbol
_atom_site_fract_x
_atom_site_fract_y
_atom_site_fract_z
_atom_site_U_iso_or_equiv
_atom_site_adp_type
_atom_site_occupancy
C1     C     0.52204   0.30979   0.32338   0.00000  Uiso   1.00
C2     C     0.54798   0.36048   0.27845   0.00000  Uiso   1.00
C3     C     0.57372   0.35820   0.20339   0.00000  Uiso   1.00
C4     C     0.59483   0.40930   0.17255   0.00000  Uiso   1.00
C5     C     0.63582   0.48017   0.09629   0.00000  Uiso   1.00
C6     C     0.55237   0.30759   0.40444   0.00000  Uiso   1.00
C7     C     0.58180   0.26083   0.43531   0.00000  Uiso   1.00
C8     C     0.60660   0.26740   0.51055   0.00000  Uiso   1.00
C9     C     0.65437   0.25614   0.62992   0.00000  Uiso   1.00
C10    C     0.46009   0.32625   0.34121   0.00000  Uiso   1.00
C11    C     0.41193   0.29518   0.31893   0.00000  Uiso   1.00
C12    C     0.35904   0.31746   0.34094   0.00000  Uiso   1.00
C13    C     0.26353   0.33518   0.36214   0.00000  Uiso   1.00
C14    C     0.51374   0.40457   0.40210   0.00000  Uiso   1.00
C15    C     0.54347   0.41196   0.32121   0.00000  Uiso   1.00
C16    C     0.56454   0.46307   0.29048   0.00000  Uiso   1.00
C17    C     0.59031   0.46087   0.21538   0.00000  Uiso   1.00
C18    C     0.54787   0.35907   0.44720   0.00000  Uiso   1.00
C19    C     0.57262   0.36570   0.52240   0.00000  Uiso   1.00
C20    C     0.60209   0.31898   0.55338   0.00000  Uiso   1.00
C21    C     0.45558   0.37774   0.38396   0.00000  Uiso   1.00
C22    C     0.40275   0.40006   0.40602   0.00000  Uiso   1.00
C23    C     0.35452   0.36903   0.38378   0.00000  Uiso   1.00
H24    H     0.52555   0.26970   0.29010   0.00000  Uiso   1.00
H25    H     0.57720   0.31835   0.17032   0.00000  Uiso   1.00
H26    H     0.58528   0.22100   0.40222   0.00000  Uiso   1.00
H27    H     0.41543   0.25534   0.28585   0.00000  Uiso   1.00
H28    H     0.63251   0.39499   0.05639   0.00000  Uiso   1.00
H29    H     0.64951   0.18970   0.54537   0.00000  Uiso   1.00
H30    H     0.29136   0.26213   0.29998   0.00000  Uiso   1.00
H31    H     0.51024   0.44466   0.43539   0.00000  Uiso   1.00
H32    H     0.56105   0.50291   0.32358   0.00000  Uiso   1.00
H33    H     0.56913   0.40555   0.55547   0.00000  Uiso   1.00
H34    H     0.39928   0.43990   0.43910   0.00000  Uiso   1.00
H35    H     0.61940   0.54478   0.18078   0.00000  Uiso   1.00
H36    H     0.63640   0.33949   0.66976   0.00000  Uiso   1.00
H37    H     0.27826   0.41192   0.42437   0.00000  Uiso   1.00
O38    O     0.65967   0.50504   0.04242   0.00000  Uiso   1.00
O39    O     0.68197   0.23571   0.68395   0.00000  Uiso   1.00
O40    O     0.21209   0.33073   0.36200   0.00000  Uiso   1.00
N41    N     0.62244   0.42225   0.10100   0.00000  Uiso   1.00
N42    N     0.63834   0.23032   0.55816   0.00000  Uiso   1.00
N43    N     0.30351   0.29803   0.32877   0.00000  Uiso   1.00
N44    N     0.61538   0.50285   0.16794   0.00000  Uiso   1.00
N45    N     0.63129   0.31092   0.62510   0.00000  Uiso   1.00
N46    N     0.29645   0.37863   0.39570   0.00000  Uiso   1.00
C47    C     0.02204   0.80979   0.82338   0.00000  Uiso   1.00
C48    C     0.04798   0.86048   0.77845   0.00000  Uiso   1.00
C49    C     0.07372   0.85820   0.70339   0.00000  Uiso   1.00
C50    C     0.09483   0.90930   0.67255   0.00000  Uiso   1.00
C51    C     0.13582   0.98017   0.59629   0.00000  Uiso   1.00
C52    C     0.05237   0.80759   0.90444   0.00000  Uiso   1.00
C53    C     0.08180   0.76083   0.93531   0.00000  Uiso   1.00
C54    C     0.10660   0.76740   0.01055   0.00000  Uiso   1.00
C55    C     0.15437   0.75614   0.12992   0.00000  Uiso   1.00
C56    C     0.96009   0.82625   0.84121   0.00000  Uiso   1.00
C57    C     0.91193   0.79518   0.81893   0.00000  Uiso   1.00
C58    C     0.85904   0.81746   0.84094   0.00000  Uiso   1.00
C59    C     0.76353   0.83518   0.86214   0.00000  Uiso   1.00
C60    C     0.01374   0.90457   0.90210   0.00000  Uiso   1.00
C61    C     0.04347   0.91196   0.82121   0.00000  Uiso   1.00
C62    C     0.06454   0.96307   0.79048   0.00000  Uiso   1.00
C63    C     0.09031   0.96087   0.71538   0.00000  Uiso   1.00
C64    C     0.04787   0.85907   0.94720   0.00000  Uiso   1.00
C65    C     0.07262   0.86570   0.02240   0.00000  Uiso   1.00
C66    C     0.10209   0.81898   0.05338   0.00000  Uiso   1.00
C67    C     0.95558   0.87774   0.88396   0.00000  Uiso   1.00
C68    C     0.90275   0.90006   0.90602   0.00000  Uiso   1.00
C69    C     0.85452   0.86903   0.88378   0.00000  Uiso   1.00
H70    H     0.02555   0.76970   0.79010   0.00000  Uiso   1.00
H71    H     0.07720   0.81835   0.67032   0.00000  Uiso   1.00
H72    H     0.08528   0.72100   0.90222   0.00000  Uiso   1.00
H73    H     0.91543   0.75534   0.78585   0.00000  Uiso   1.00
H74    H     0.13251   0.89499   0.55639   0.00000  Uiso   1.00
H75    H     0.14951   0.68970   0.04537   0.00000  Uiso   1.00
H76    H     0.79136   0.76213   0.79998   0.00000  Uiso   1.00
H77    H     0.01024   0.94466   0.93539   0.00000  Uiso   1.00
H78    H     0.06105   0.00291   0.82358   0.00000  Uiso   1.00
H79    H     0.06913   0.90555   0.05547   0.00000  Uiso   1.00
H80    H     0.89928   0.93990   0.93910   0.00000  Uiso   1.00
H81    H     0.11940   0.04478   0.68078   0.00000  Uiso   1.00
H82    H     0.13640   0.83949   0.16976   0.00000  Uiso   1.00
H83    H     0.77826   0.91192   0.92437   0.00000  Uiso   1.00
O84    O     0.15967   0.00504   0.54242   0.00000  Uiso   1.00
O85    O     0.18197   0.73571   0.18395   0.00000  Uiso   1.00
O86    O     0.71209   0.83073   0.86200   0.00000  Uiso   1.00
N87    N     0.12244   0.92225   0.60100   0.00000  Uiso   1.00
N88    N     0.13834   0.73032   0.05816   0.00000  Uiso   1.00
N89    N     0.80351   0.79803   0.82877   0.00000  Uiso   1.00
N90    N     0.11538   0.00285   0.66794   0.00000  Uiso   1.00
N91    N     0.13129   0.81092   0.12510   0.00000  Uiso   1.00
N92    N     0.79645   0.87863   0.89570   0.00000  Uiso   1.00
C93    C     0.97796   0.19021   0.82338   0.00000  Uiso   1.00
C94    C     0.95202   0.13952   0.77845   0.00000  Uiso   1.00
C95    C     0.92628   0.14180   0.70339   0.00000  Uiso   1.00
C96    C     0.90517   0.09070   0.67255   0.00000  Uiso   1.00
C97    C     0.86418   0.01983   0.59629   0.00000  Uiso   1.00
C98    C     0.94763   0.19241   0.90444   0.00000  Uiso   1.00
C99    C     0.91820   0.23917   0.93531   0.00000  Uiso   1.00
C100   C     0.89340   0.23260   0.01055   0.00000  Uiso   1.00
C101   C     0.84563   0.24386   0.12992   0.00000  Uiso   1.00
C102   C     0.03991   0.17375   0.84121   0.00000  Uiso   1.00
C103   C     0.08807   0.20482   0.81893   0.00000  Uiso   1.00
C104   C     0.14096   0.18254   0.84094   0.00000  Uiso   1.00
C105   C     0.23647   0.16482   0.86214   0.00000  Uiso   1.00
C106   C     0.98626   0.09543   0.90210   0.00000  Uiso   1.00
C107   C     0.95653   0.08804   0.82121   0.00000  Uiso   1.00
C108   C     0.93546   0.03693   0.79048   0.00000  Uiso   1.00
C109   C     0.90969   0.03913   0.71538   0.00000  Uiso   1.00
C110   C     0.95213   0.14093   0.94720   0.00000  Uiso   1.00
C111   C     0.92738   0.13430   0.02240   0.00000  Uiso   1.00
C112   C     0.89791   0.18102   0.05338   0.00000  Uiso   1.00
C113   C     0.04442   0.12226   0.88396   0.00000  Uiso   1.00
C114   C     0.09725   0.09994   0.90602   0.00000  Uiso   1.00
C115   C     0.14548   0.13097   0.88378   0.00000  Uiso   1.00
H116   H     0.97445   0.23030   0.79010   0.00000  Uiso   1.00
H117   H     0.92280   0.18165   0.67032   0.00000  Uiso   1.00
H118   H     0.91472   0.27900   0.90222   0.00000  Uiso   1.00
H119   H     0.08457   0.24466   0.78585   0.00000  Uiso   1.00
H120   H     0.86749   0.10501   0.55639   0.00000  Uiso   1.00
H121   H     0.85049   0.31030   0.04537   0.00000  Uiso   1.00
H122   H     0.20864   0.23787   0.79998   0.00000  Uiso   1.00
H123   H     0.98976   0.05534   0.93539   0.00000  Uiso   1.00
H124   H     0.93895   0.99709   0.82358   0.00000  Uiso   1.00
H125   H     0.93087   0.09445   0.05547   0.00000  Uiso   1.00
H126   H     0.10072   0.06010   0.93910   0.00000  Uiso   1.00
H127   H     0.88060   0.95522   0.68078   0.00000  Uiso   1.00
H128   H     0.86360   0.16051   0.16976   0.00000  Uiso   1.00
H129   H     0.22174   0.08808   0.92437   0.00000  Uiso   1.00
O130   O     0.84033   0.99496   0.54242   0.00000  Uiso   1.00
O131   O     0.81803   0.26429   0.18395   0.00000  Uiso   1.00
O132   O     0.28791   0.16927   0.86200   0.00000  Uiso   1.00
N133   N     0.87756   0.07775   0.60100   0.00000  Uiso   1.00
N134   N     0.86166   0.26968   0.05816   0.00000  Uiso   1.00
N135   N     0.19649   0.20197   0.82877   0.00000  Uiso   1.00
N136   N     0.88462   0.99715   0.66794   0.00000  Uiso   1.00
N137   N     0.86871   0.18908   0.12510   0.00000  Uiso   1.00
N138   N     0.20355   0.12137   0.89570   0.00000  Uiso   1.00
C139   C     0.47796   0.69021   0.32338   0.00000  Uiso   1.00
C140   C     0.45202   0.63952   0.27845   0.00000  Uiso   1.00
C141   C     0.42628   0.64180   0.20339   0.00000  Uiso   1.00
C142   C     0.40517   0.59070   0.17255   0.00000  Uiso   1.00
C143   C     0.36418   0.51983   0.09629   0.00000  Uiso   1.00
C144   C     0.44763   0.69241   0.40444   0.00000  Uiso   1.00
C145   C     0.41820   0.73917   0.43531   0.00000  Uiso   1.00
C146   C     0.39340   0.73260   0.51055   0.00000  Uiso   1.00
C147   C     0.34563   0.74386   0.62992   0.00000  Uiso   1.00
C148   C     0.53991   0.67375   0.34121   0.00000  Uiso   1.00
C149   C     0.58807   0.70482   0.31893   0.00000  Uiso   1.00
C150   C     0.64096   0.68254   0.34094   0.00000  Uiso   1.00
C151   C     0.73647   0.66482   0.36214   0.00000  Uiso   1.00
C152   C     0.48626   0.59543   0.40210   0.00000  Uiso   1.00
C153   C     0.45653   0.58804   0.32121   0.00000  Uiso   1.00
C154   C     0.43546   0.53693   0.29048   0.00000  Uiso   1.00
C155   C     0.40969   0.53913   0.21538   0.00000  Uiso   1.00
C156   C     0.45213   0.64093   0.44720   0.00000  Uiso   1.00
C157   C     0.42738   0.63430   0.52240   0.00000  Uiso   1.00
C158   C     0.39791   0.68102   0.55338   0.00000  Uiso   1.00
C159   C     0.54442   0.62226   0.38396   0.00000  Uiso   1.00
C160   C     0.59725   0.59994   0.40602   0.00000  Uiso   1.00
C161   C     0.64548   0.63097   0.38378   0.00000  Uiso   1.00
H162   H     0.47445   0.73030   0.29010   0.00000  Uiso   1.00
H163   H     0.42280   0.68165   0.17032   0.00000  Uiso   1.00
H164   H     0.41472   0.77900   0.40222   0.00000  Uiso   1.00
H165   H     0.58457   0.74466   0.28585   0.00000  Uiso   1.00
H166   H     0.36749   0.60501   0.05639   0.00000  Uiso   1.00
H167   H     0.35049   0.81030   0.54537   0.00000  Uiso   1.00
H168   H     0.70864   0.73787   0.29998   0.00000  Uiso   1.00
H169   H     0.48976   0.55534   0.43539   0.00000  Uiso   1.00
H170   H     0.43895   0.49709   0.32358   0.00000  Uiso   1.00
H171   H     0.43087   0.59445   0.55547   0.00000  Uiso   1.00
H172   H     0.60072   0.56010   0.43910   0.00000  Uiso   1.00
H173   H     0.38060   0.45522   0.18078   0.00000  Uiso   1.00
H174   H     0.36360   0.66051   0.66976   0.00000  Uiso   1.00
H175   H     0.72174   0.58808   0.42437   0.00000  Uiso   1.00
O176   O     0.34033   0.49496   0.04242   0.00000  Uiso   1.00
O177   O     0.31803   0.76429   0.68395   0.00000  Uiso   1.00
O178   O     0.78791   0.66927   0.36200   0.00000  Uiso   1.00
N179   N     0.37756   0.57775   0.10100   0.00000  Uiso   1.00
N180   N     0.36166   0.76968   0.55816   0.00000  Uiso   1.00
N181   N     0.69649   0.70197   0.32877   0.00000  Uiso   1.00
N182   N     0.38462   0.49715   0.16794   0.00000  Uiso   1.00
N183   N     0.36871   0.68908   0.62510   0.00000  Uiso   1.00
N184   N     0.70355   0.62137   0.39570   0.00000  Uiso   1.00
C185   C     0.69021   0.02204   0.57338   0.00000  Uiso   1.00
C186   C     0.63952   0.04798   0.52845   0.00000  Uiso   1.00
C187   C     0.64180   0.07372   0.45339   0.00000  Uiso   1.00
C188   C     0.59070   0.09483   0.42255   0.00000  Uiso   1.00
C189   C     0.51983   0.13582   0.34629   0.00000  Uiso   1.00
C190   C     0.69241   0.05237   0.65444   0.00000  Uiso   1.00
C191   C     0.73917   0.08180   0.68531   0.00000  Uiso   1.00
C192   C     0.73260   0.10660   0.76055   0.00000  Uiso   1.00
C193   C     0.74386   0.15437   0.87992   0.00000  Uiso   1.00
C194   C     0.67375   0.96009   0.59121   0.00000  Uiso   1.00
C195   C     0.70482   0.91193   0.56893   0.00000  Uiso   1.00
C196   C     0.68254   0.85904   0.59094   0.00000  Uiso   1.00
C197   C     0.66482   0.76353   0.61214   0.00000  Uiso   1.00
C198   C     0.59543   0.01374   0.65210   0.00000  Uiso   1.00
C199   C     0.58804   0.04347   0.57121   0.00000  Uiso   1.00
C200   C     0.53693   0.06454   0.54048   0.00000  Uiso   1.00
C201   C     0.53913   0.09031   0.46538   0.00000  Uiso   1.00
C202   C     0.64093   0.04787   0.69720   0.00000  Uiso   1.00
C203   C     0.63430   0.07262   0.77240   0.00000  Uiso   1.00
C204   C     0.68102   0.10209   0.80338   0.00000  Uiso   1.00
C205   C     0.62226   0.95558   0.63396   0.00000  Uiso   1.00
C206   C     0.59994   0.90275   0.65602   0.00000  Uiso   1.00
C207   C     0.63097   0.85452   0.63378   0.00000  Uiso   1.00
H208   H     0.73030   0.02555   0.54010   0.00000  Uiso   1.00
H209   H     0.68165   0.07720   0.42032   0.00000  Uiso   1.00
H210   H     0.77900   0.08528   0.65222   0.00000  Uiso   1.00
H211   H     0.74466   0.91543   0.53585   0.00000  Uiso   1.00
H212   H     0.60501   0.13251   0.30639   0.00000  Uiso   1.00
H213   H     0.81030   0.14951   0.79537   0.00000  Uiso   1.00
H214   H     0.73787   0.79136   0.54998   0.00000  Uiso   1.00
H215   H     0.55534   0.01024   0.68539   0.00000  Uiso   1.00
H216   H     0.49709   0.06105   0.57358   0.00000  Uiso   1.00
H217   H     0.59445   0.06913   0.80547   0.00000  Uiso   1.00
H218   H     0.56010   0.89928   0.68910   0.00000  Uiso   1.00
H219   H     0.45522   0.11940   0.43078   0.00000  Uiso   1.00
H220   H     0.66051   0.13640   0.91976   0.00000  Uiso   1.00
H221   H     0.58808   0.77826   0.67437   0.00000  Uiso   1.00
O222   O     0.49496   0.15967   0.29242   0.00000  Uiso   1.00
O223   O     0.76429   0.18197   0.93395   0.00000  Uiso   1.00
O224   O     0.66927   0.71209   0.61200   0.00000  Uiso   1.00
N225   N     0.57775   0.12244   0.35100   0.00000  Uiso   1.00
N226   N     0.76968   0.13834   0.80816   0.00000  Uiso   1.00
N227   N     0.70197   0.80351   0.57877   0.00000  Uiso   1.00
N228   N     0.49715   0.11538   0.41794   0.00000  Uiso   1.00
N229   N     0.68908   0.13129   0.87510   0.00000  Uiso   1.00
N230   N     0.62137   0.79645   0.64570   0.00000  Uiso   1.00
C231   C     0.19021   0.52204   0.07338   0.00000  Uiso   1.00
C232   C     0.13952   0.54798   0.02845   0.00000  Uiso   1.00
C233   C     0.14180   0.57372   0.95339   0.00000  Uiso   1.00
C234   C     0.09070   0.59483   0.92255   0.00000  Uiso   1.00
C235   C     0.01983   0.63582   0.84629   0.00000  Uiso   1.00
C236   C     0.19241   0.55237   0.15444   0.00000  Uiso   1.00
C237   C     0.23917   0.58180   0.18531   0.00000  Uiso   1.00
C238   C     0.23260   0.60660   0.26055   0.00000  Uiso   1.00
C239   C     0.24386   0.65437   0.37992   0.00000  Uiso   1.00
C240   C     0.17375   0.46009   0.09121   0.00000  Uiso   1.00
C241   C     0.20482   0.41193   0.06893   0.00000  Uiso   1.00
C242   C     0.18254   0.35904   0.09094   0.00000  Uiso   1.00
C243   C     0.16482   0.26353   0.11214   0.00000  Uiso   1.00
C244   C     0.09543   0.51374   0.15210   0.00000  Uiso   1.00
C245   C     0.08804   0.54347   0.07121   0.00000  Uiso   1.00
C246   C     0.03693   0.56454   0.04048   0.00000  Uiso   1.00
C247   C     0.03913   0.59031   0.96538   0.00000  Uiso   1.00
C248   C     0.14093   0.54787   0.19720   0.00000  Uiso   1.00
C249   C     0.13430   0.57262   0.27240   0.00000  Uiso   1.00
C250   C     0.18102   0.60209   0.30338   0.00000  Uiso   1.00
C251   C     0.12226   0.45558   0.13396   0.00000  Uiso   1.00
C252   C     0.09994   0.40275   0.15602   0.00000  Uiso   1.00
C253   C     0.13097   0.35452   0.13378   0.00000  Uiso   1.00
H254   H     0.23030   0.52555   0.04010   0.00000  Uiso   1.00
H255   H     0.18165   0.57720   0.92032   0.00000  Uiso   1.00
H256   H     0.27900   0.58528   0.15222   0.00000  Uiso   1.00
H257   H     0.24466   0.41543   0.03585   0.00000  Uiso   1.00
H258   H     0.10501   0.63251   0.80639   0.00000  Uiso   1.00
H259   H     0.31030   0.64951   0.29537   0.00000  Uiso   1.00
H260   H     0.23787   0.29136   0.04998   0.00000  Uiso   1.00
H261   H     0.05534   0.51024   0.18539   0.00000  Uiso   1.00
H262   H     0.99709   0.56105   0.07358   0.00000  Uiso   1.00
H263   H     0.09445   0.56913   0.30547   0.00000  Uiso   1.00
H264   H     0.06010   0.39928   0.18910   0.00000  Uiso   1.00
H265   H     0.95522   0.61940   0.93078   0.00000  Uiso   1.00
H266   H     0.16051   0.63640   0.41976   0.00000  Uiso   1.00
H267   H     0.08808   0.27826   0.17437   0.00000  Uiso   1.00
O268   O     0.99496   0.65967   0.79242   0.00000  Uiso   1.00
O269   O     0.26429   0.68197   0.43395   0.00000  Uiso   1.00
O270   O     0.16927   0.21209   0.11200   0.00000  Uiso   1.00
N271   N     0.07775   0.62244   0.85100   0.00000  Uiso   1.00
N272   N     0.26968   0.63834   0.30816   0.00000  Uiso   1.00
N273   N     0.20197   0.30351   0.07877   0.00000  Uiso   1.00
N274   N     0.99715   0.61538   0.91794   0.00000  Uiso   1.00
N275   N     0.18908   0.63129   0.37510   0.00000  Uiso   1.00
N276   N     0.12137   0.29645   0.14570   0.00000  Uiso   1.00
C277   C     0.80979   0.47796   0.07338   0.00000  Uiso   1.00
C278   C     0.86048   0.45202   0.02845   0.00000  Uiso   1.00
C279   C     0.85820   0.42628   0.95339   0.00000  Uiso   1.00
C280   C     0.90930   0.40517   0.92255   0.00000  Uiso   1.00
C281   C     0.98017   0.36418   0.84629   0.00000  Uiso   1.00
C282   C     0.80759   0.44763   0.15444   0.00000  Uiso   1.00
C283   C     0.76083   0.41820   0.18531   0.00000  Uiso   1.00
C284   C     0.76740   0.39340   0.26055   0.00000  Uiso   1.00
C285   C     0.75614   0.34563   0.37992   0.00000  Uiso   1.00
C286   C     0.82625   0.53991   0.09121   0.00000  Uiso   1.00
C287   C     0.79518   0.58807   0.06893   0.00000  Uiso   1.00
C288   C     0.81746   0.64096   0.09094   0.00000  Uiso   1.00
C289   C     0.83518   0.73647   0.11214   0.00000  Uiso   1.00
C290   C     0.90457   0.48626   0.15210   0.00000  Uiso   1.00
C291   C     0.91196   0.45653   0.07121   0.00000  Uiso   1.00
C292   C     0.96307   0.43546   0.04048   0.00000  Uiso   1.00
C293   C     0.96087   0.40969   0.96538   0.00000  Uiso   1.00
C294   C     0.85907   0.45213   0.19720   0.00000  Uiso   1.00
C295   C     0.86570   0.42738   0.27240   0.00000  Uiso   1.00
C296   C     0.81898   0.39791   0.30338   0.00000  Uiso   1.00
C297   C     0.87774   0.54442   0.13396   0.00000  Uiso   1.00
C298   C     0.90006   0.59725   0.15602   0.00000  Uiso   1.00
C299   C     0.86903   0.64548   0.13378   0.00000  Uiso   1.00
H300   H     0.76970   0.47445   0.04010   0.00000  Uiso   1.00
H301   H     0.81835   0.42280   0.92032   0.00000  Uiso   1.00
H302   H     0.72100   0.41472   0.15222   0.00000  Uiso   1.00
H303   H     0.75534   0.58457   0.03585   0.00000  Uiso   1.00
H304   H     0.89499   0.36749   0.80639   0.00000  Uiso   1.00
H305   H     0.68970   0.35049   0.29537   0.00000  Uiso   1.00
H306   H     0.76213   0.70864   0.04998   0.00000  Uiso   1.00
H307   H     0.94466   0.48976   0.18539   0.00000  Uiso   1.00
H308   H     0.00291   0.43895   0.07358   0.00000  Uiso   1.00
H309   H     0.90555   0.43087   0.30547   0.00000  Uiso   1.00
H310   H     0.93990   0.60072   0.18910   0.00000  Uiso   1.00
H311   H     0.04478   0.38060   0.93078   0.00000  Uiso   1.00
H312   H     0.83949   0.36360   0.41976   0.00000  Uiso   1.00
H313   H     0.91192   0.72174   0.17437   0.00000  Uiso   1.00
O314   O     0.00504   0.34033   0.79242   0.00000  Uiso   1.00
O315   O     0.73571   0.31803   0.43395   0.00000  Uiso   1.00
O316   O     0.83073   0.78791   0.11200   0.00000  Uiso   1.00
N317   N     0.92225   0.37756   0.85100   0.00000  Uiso   1.00
N318   N     0.73032   0.36166   0.30816   0.00000  Uiso   1.00
N319   N     0.79803   0.69649   0.07877   0.00000  Uiso   1.00
N320   N     0.00285   0.38462   0.91794   0.00000  Uiso   1.00
N321   N     0.81092   0.36871   0.37510   0.00000  Uiso   1.00
N322   N     0.87863   0.70355   0.14570   0.00000  Uiso   1.00
C323   C     0.30979   0.97796   0.57338   0.00000  Uiso   1.00
C324   C     0.36048   0.95202   0.52845   0.00000  Uiso   1.00
C325   C     0.35820   0.92628   0.45339   0.00000  Uiso   1.00
C326   C     0.40930   0.90517   0.42255   0.00000  Uiso   1.00
C327   C     0.48017   0.86418   0.34629   0.00000  Uiso   1.00
C328   C     0.30759   0.94763   0.65444   0.00000  Uiso   1.00
C329   C     0.26083   0.91820   0.68531   0.00000  Uiso   1.00
C330   C     0.26740   0.89340   0.76055   0.00000  Uiso   1.00
C331   C     0.25614   0.84563   0.87992   0.00000  Uiso   1.00
C332   C     0.32625   0.03991   0.59121   0.00000  Uiso   1.00
C333   C     0.29518   0.08807   0.56893   0.00000  Uiso   1.00
C334   C     0.31746   0.14096   0.59094   0.00000  Uiso   1.00
C335   C     0.33518   0.23647   0.61214   0.00000  Uiso   1.00
C336   C     0.40457   0.98626   0.65210   0.00000  Uiso   1.00
C337   C     0.41196   0.95653   0.57121   0.00000  Uiso   1.00
C338   C     0.46307   0.93546   0.54048   0.00000  Uiso   1.00
C339   C     0.46087   0.90969   0.46538   0.00000  Uiso   1.00
C340   C     0.35907   0.95213   0.69720   0.00000  Uiso   1.00
C341   C     0.36570   0.92738   0.77240   0.00000  Uiso   1.00
C342   C     0.31898   0.89791   0.80338   0.00000  Uiso   1.00
C343   C     0.37774   0.04442   0.63396   0.00000  Uiso   1.00
C344   C     0.40006   0.09725   0.65602   0.00000  Uiso   1.00
C345   C     0.36903   0.14548   0.63378   0.00000  Uiso   1.00
H346   H     0.26970   0.97445   0.54010   0.00000  Uiso   1.00
H347   H     0.31835   0.92280   0.42032   0.00000  Uiso   1.00
H348   H     0.22100   0.91472   0.65222   0.00000  Uiso   1.00
H349   H     0.25534   0.08457   0.53585   0.00000  Uiso   1.00
H350   H     0.39499   0.86749   0.30639   0.00000  Uiso   1.00
H351   H     0.18970   0.85049   0.79537   0.00000  Uiso   1.00
H352   H     0.26213   0.20864   0.54998   0.00000  Uiso   1.00
H353   H     0.44466   0.98976   0.68539   0.00000  Uiso   1.00
H354   H     0.50291   0.93895   0.57358   0.00000  Uiso   1.00
H355   H     0.40555   0.93087   0.80547   0.00000  Uiso   1.00
H356   H     0.43990   0.10072   0.68910   0.00000  Uiso   1.00
H357   H     0.54478   0.88060   0.43078   0.00000  Uiso   1.00
H358   H     0.33949   0.86360   0.91976   0.00000  Uiso   1.00
H359   H     0.41192   0.22174   0.67437   0.00000  Uiso   1.00
O360   O     0.50504   0.84033   0.29242   0.00000  Uiso   1.00
O361   O     0.23571   0.81803   0.93395   0.00000  Uiso   1.00
O362   O     0.33073   0.28791   0.61200   0.00000  Uiso   1.00
N363   N     0.42225   0.87756   0.35100   0.00000  Uiso   1.00
N364   N     0.23032   0.86166   0.80816   0.00000  Uiso   1.00
N365   N     0.29803   0.19649   0.57877   0.00000  Uiso   1.00
N366   N     0.50285   0.88462   0.41794   0.00000  Uiso   1.00
N367   N     0.31092   0.86871   0.87510   0.00000  Uiso   1.00
N368   N     0.37863   0.20355   0.64570   0.00000  Uiso   1.00
C369   C     0.52204   0.69021   0.82338   0.00000  Uiso   1.00
C370   C     0.54798   0.63952   0.77845   0.00000  Uiso   1.00
C371   C     0.57372   0.64180   0.70339   0.00000  Uiso   1.00
C372   C     0.59483   0.59070   0.67255   0.00000  Uiso   1.00
C373   C     0.63582   0.51983   0.59629   0.00000  Uiso   1.00
C374   C     0.55237   0.69241   0.90444   0.00000  Uiso   1.00
C375   C     0.58180   0.73917   0.93531   0.00000  Uiso   1.00
C376   C     0.60660   0.73260   0.01055   0.00000  Uiso   1.00
C377   C     0.65437   0.74386   0.12992   0.00000  Uiso   1.00
C378   C     0.46009   0.67375   0.84121   0.00000  Uiso   1.00
C379   C     0.41193   0.70482   0.81893   0.00000  Uiso   1.00
C380   C     0.35904   0.68254   0.84094   0.00000  Uiso   1.00
C381   C     0.26353   0.66482   0.86214   0.00000  Uiso   1.00
C382   C     0.51374   0.59543   0.90210   0.00000  Uiso   1.00
C383   C     0.54347   0.58804   0.82121   0.00000  Uiso   1.00
C384   C     0.56454   0.53693   0.79048   0.00000  Uiso   1.00
C385   C     0.59031   0.53913   0.71538   0.00000  Uiso   1.00
C386   C     0.54787   0.64093   0.94720   0.00000  Uiso   1.00
C387   C     0.57262   0.63430   0.02240   0.00000  Uiso   1.00
C388   C     0.60209   0.68102   0.05338   0.00000  Uiso   1.00
C389   C     0.45558   0.62226   0.88396   0.00000  Uiso   1.00
C390   C     0.40275   0.59994   0.90602   0.00000  Uiso   1.00
C391   C     0.35452   0.63097   0.88378   0.00000  Uiso   1.00
H392   H     0.52555   0.73030   0.79010   0.00000  Uiso   1.00
H393   H     0.57720   0.68165   0.67032   0.00000  Uiso   1.00
H394   H     0.58528   0.77900   0.90222   0.00000  Uiso   1.00
H395   H     0.41543   0.74466   0.78585   0.00000  Uiso   1.00
H396   H     0.63251   0.60501   0.55639   0.00000  Uiso   1.00
H397   H     0.64951   0.81030   0.04537   0.00000  Uiso   1.00
H398   H     0.29136   0.73787   0.79998   0.00000  Uiso   1.00
H399   H     0.51024   0.55534   0.93539   0.00000  Uiso   1.00
H400   H     0.56105   0.49709   0.82358   0.00000  Uiso   1.00
H401   H     0.56913   0.59445   0.05547   0.00000  Uiso   1.00
H402   H     0.39928   0.56010   0.93910   0.00000  Uiso   1.00
H403   H     0.61940   0.45522   0.68078   0.00000  Uiso   1.00
H404   H     0.63640   0.66051   0.16976   0.00000  Uiso   1.00
H405   H     0.27826   0.58808   0.92437   0.00000  Uiso   1.00
O406   O     0.65967   0.49496   0.54242   0.00000  Uiso   1.00
O407   O     0.68197   0.76429   0.18395   0.00000  Uiso   1.00
O408   O     0.21209   0.66927   0.86200   0.00000  Uiso   1.00
N409   N     0.62244   0.57775   0.60100   0.00000  Uiso   1.00
N410   N     0.63834   0.76968   0.05816   0.00000  Uiso   1.00
N411   N     0.30351   0.70197   0.82877   0.00000  Uiso   1.00
N412   N     0.61538   0.49715   0.66794   0.00000  Uiso   1.00
N413   N     0.63129   0.68908   0.12510   0.00000  Uiso   1.00
N414   N     0.29645   0.62137   0.89570   0.00000  Uiso   1.00
C415   C     0.02204   0.19021   0.32338   0.00000  Uiso   1.00
C416   C     0.04798   0.13952   0.27845   0.00000  Uiso   1.00
C417   C     0.07372   0.14180   0.20339   0.00000  Uiso   1.00
C418   C     0.09483   0.09070   0.17255   0.00000  Uiso   1.00
C419   C     0.13582   0.01983   0.09629   0.00000  Uiso   1.00
C420   C     0.05237   0.19241   0.40444   0.00000  Uiso   1.00
C421   C     0.08180   0.23917   0.43531   0.00000  Uiso   1.00
C422   C     0.10660   0.23260   0.51055   0.00000  Uiso   1.00
C423   C     0.15437   0.24386   0.62992   0.00000  Uiso   1.00
C424   C     0.96009   0.17375   0.34121   0.00000  Uiso   1.00
C425   C     0.91193   0.20482   0.31893   0.00000  Uiso   1.00
C426   C     0.85904   0.18254   0.34094   0.00000  Uiso   1.00
C427   C     0.76353   0.16482   0.36214   0.00000  Uiso   1.00
C428   C     0.01374   0.09543   0.40210   0.00000  Uiso   1.00
C429   C     0.04347   0.08804   0.32121   0.00000  Uiso   1.00
C430   C     0.06454   0.03693   0.29048   0.00000  Uiso   1.00
C431   C     0.09031   0.03913   0.21538   0.00000  Uiso   1.00
C432   C     0.04787   0.14093   0.44720   0.00000  Uiso   1.00
C433   C     0.07262   0.13430   0.52240   0.00000  Uiso   1.00
C434   C     0.10209   0.18102   0.55338   0.00000  Uiso   1.00
C435   C     0.95558   0.12226   0.38396   0.00000  Uiso   1.00
C436   C     0.90275   0.09994   0.40602   0.00000  Uiso   1.00
C437   C     0.85452   0.13097   0.38378   0.00000  Uiso   1.00
H438   H     0.02555   0.23030   0.29010   0.00000  Uiso   1.00
H439   H     0.07720   0.18165   0.17032   0.00000  Uiso   1.00
H440   H     0.08528   0.27900   0.40222   0.00000  Uiso   1.00
H441   H     0.91543   0.24466   0.28585   0.00000  Uiso   1.00
H442   H     0.13251   0.10501   0.05639   0.00000  Uiso   1.00
H443   H     0.14951   0.31030   0.54537   0.00000  Uiso   1.00
H444   H     0.79136   0.23787   0.29998   0.00000  Uiso   1.00
H445   H     0.01024   0.05534   0.43539   0.00000  Uiso   1.00
H446   H     0.06105   0.99709   0.32358   0.00000  Uiso   1.00
H447   H     0.06913   0.09445   0.55547   0.00000  Uiso   1.00
H448   H     0.89928   0.06010   0.43910   0.00000  Uiso   1.00
H449   H     0.11940   0.95522   0.18078   0.00000  Uiso   1.00
H450   H     0.13640   0.16051   0.66976   0.00000  Uiso   1.00
H451   H     0.77826   0.08808   0.42437   0.00000  Uiso   1.00
O452   O     0.15967   0.99496   0.04242   0.00000  Uiso   1.00
O453   O     0.18197   0.26429   0.68395   0.00000  Uiso   1.00
O454   O     0.71209   0.16927   0.36200   0.00000  Uiso   1.00
N455   N     0.12244   0.07775   0.10100   0.00000  Uiso   1.00
N456   N     0.13834   0.26968   0.55816   0.00000  Uiso   1.00
N457   N     0.80351   0.20197   0.32877   0.00000  Uiso   1.00
N458   N     0.11538   0.99715   0.16794   0.00000  Uiso   1.00
N459   N     0.13129   0.18908   0.62510   0.00000  Uiso   1.00
N460   N     0.79645   0.12137   0.39570   0.00000  Uiso   1.00
C461   C     0.97796   0.80979   0.32338   0.00000  Uiso   1.00
C462   C     0.95202   0.86048   0.27845   0.00000  Uiso   1.00
C463   C     0.92628   0.85820   0.20339   0.00000  Uiso   1.00
C464   C     0.90517   0.90930   0.17255   0.00000  Uiso   1.00
C465   C     0.86418   0.98017   0.09629   0.00000  Uiso   1.00
C466   C     0.94763   0.80759   0.40444   0.00000  Uiso   1.00
C467   C     0.91820   0.76083   0.43531   0.00000  Uiso   1.00
C468   C     0.89340   0.76740   0.51055   0.00000  Uiso   1.00
C469   C     0.84563   0.75614   0.62992   0.00000  Uiso   1.00
C470   C     0.03991   0.82625   0.34121   0.00000  Uiso   1.00
C471   C     0.08807   0.79518   0.31893   0.00000  Uiso   1.00
C472   C     0.14096   0.81746   0.34094   0.00000  Uiso   1.00
C473   C     0.23647   0.83518   0.36214   0.00000  Uiso   1.00
C474   C     0.98626   0.90457   0.40210   0.00000  Uiso   1.00
C475   C     0.95653   0.91196   0.32121   0.00000  Uiso   1.00
C476   C     0.93546   0.96307   0.29048   0.00000  Uiso   1.00
C477   C     0.90969   0.96087   0.21538   0.00000  Uiso   1.00
C478   C     0.95213   0.85907   0.44720   0.00000  Uiso   1.00
C479   C     0.92738   0.86570   0.52240   0.00000  Uiso   1.00
C480   C     0.89791   0.81898   0.55338   0.00000  Uiso   1.00
C481   C     0.04442   0.87774   0.38396   0.00000  Uiso   1.00
C482   C     0.09725   0.90006   0.40602   0.00000  Uiso   1.00
C483   C     0.14548   0.86903   0.38378   0.00000  Uiso   1.00
H484   H     0.97445   0.76970   0.29010   0.00000  Uiso   1.00
H485   H     0.92280   0.81835   0.17032   0.00000  Uiso   1.00
H486   H     0.91472   0.72100   0.40222   0.00000  Uiso   1.00
H487   H     0.08457   0.75534   0.28585   0.00000  Uiso   1.00
H488   H     0.86749   0.89499   0.05639   0.00000  Uiso   1.00
H489   H     0.85049   0.68970   0.54537   0.00000  Uiso   1.00
H490   H     0.20864   0.76213   0.29998   0.00000  Uiso   1.00
H491   H     0.98976   0.94466   0.43539   0.00000  Uiso   1.00
H492   H     0.93895   0.00291   0.32358   0.00000  Uiso   1.00
H493   H     0.93087   0.90555   0.55547   0.00000  Uiso   1.00
H494   H     0.10072   0.93990   0.43910   0.00000  Uiso   1.00
H495   H     0.88060   0.04478   0.18078   0.00000  Uiso   1.00
H496   H     0.86360   0.83949   0.66976   0.00000  Uiso   1.00
H497   H     0.22174   0.91192   0.42437   0.00000  Uiso   1.00
O498   O     0.84033   0.00504   0.04242   0.00000  Uiso   1.00
O499   O     0.81803   0.73571   0.68395   0.00000  Uiso   1.00
O500   O     0.28791   0.83073   0.36200   0.00000  Uiso   1.00
N501   N     0.87756   0.92225   0.10100   0.00000  Uiso   1.00
N502   N     0.86166   0.73032   0.55816   0.00000  Uiso   1.00
N503   N     0.19649   0.79803   0.32877   0.00000  Uiso   1.00
N504   N     0.88462   0.00285   0.16794   0.00000  Uiso   1.00
N505   N     0.86871   0.81092   0.62510   0.00000  Uiso   1.00
N506   N     0.20355   0.87863   0.39570   0.00000  Uiso   1.00
C507   C     0.47796   0.30979   0.82338   0.00000  Uiso   1.00
C508   C     0.45202   0.36048   0.77845   0.00000  Uiso   1.00
C509   C     0.42628   0.35820   0.70339   0.00000  Uiso   1.00
C510   C     0.40517   0.40930   0.67255   0.00000  Uiso   1.00
C511   C     0.36418   0.48017   0.59629   0.00000  Uiso   1.00
C512   C     0.44763   0.30759   0.90444   0.00000  Uiso   1.00
C513   C     0.41820   0.26083   0.93531   0.00000  Uiso   1.00
C514   C     0.39340   0.26740   0.01055   0.00000  Uiso   1.00
C515   C     0.34563   0.25614   0.12992   0.00000  Uiso   1.00
C516   C     0.53991   0.32625   0.84121   0.00000  Uiso   1.00
C517   C     0.58807   0.29518   0.81893   0.00000  Uiso   1.00
C518   C     0.64096   0.31746   0.84094   0.00000  Uiso   1.00
C519   C     0.73647   0.33518   0.86214   0.00000  Uiso   1.00
C520   C     0.48626   0.40457   0.90210   0.00000  Uiso   1.00
C521   C     0.45653   0.41196   0.82121   0.00000  Uiso   1.00
C522   C     0.43546   0.46307   0.79048   0.00000  Uiso   1.00
C523   C     0.40969   0.46087   0.71538   0.00000  Uiso   1.00
C524   C     0.45213   0.35907   0.94720   0.00000  Uiso   1.00
C525   C     0.42738   0.36570   0.02240   0.00000  Uiso   1.00
C526   C     0.39791   0.31898   0.05338   0.00000  Uiso   1.00
C527   C     0.54442   0.37774   0.88396   0.00000  Uiso   1.00
C528   C     0.59725   0.40006   0.90602   0.00000  Uiso   1.00
C529   C     0.64548   0.36903   0.88378   0.00000  Uiso   1.00
H530   H     0.47445   0.26970   0.79010   0.00000  Uiso   1.00
H531   H     0.42280   0.31835   0.67032   0.00000  Uiso   1.00
H532   H     0.41472   0.22100   0.90222   0.00000  Uiso   1.00
H533   H     0.58457   0.25534   0.78585   0.00000  Uiso   1.00
H534   H     0.36749   0.39499   0.55639   0.00000  Uiso   1.00
H535   H     0.35049   0.18970   0.04537   0.00000  Uiso   1.00
H536   H     0.70864   0.26213   0.79998   0.00000  Uiso   1.00
H537   H     0.48976   0.44466   0.93539   0.00000  Uiso   1.00
H538   H     0.43895   0.50291   0.82358   0.00000  Uiso   1.00
H539   H     0.43087   0.40555   0.05547   0.00000  Uiso   1.00
H540   H     0.60072   0.43990   0.93910   0.00000  Uiso   1.00
H541   H     0.38060   0.54478   0.68078   0.00000  Uiso   1.00
H542   H     0.36360   0.33949   0.16976   0.00000  Uiso   1.00
H543   H     0.72174   0.41192   0.92437   0.00000  Uiso   1.00
O544   O     0.34033   0.50504   0.54242   0.00000  Uiso   1.00
O545   O     0.31803   0.23571   0.18395   0.00000  Uiso   1.00
O546   O     0.78791   0.33073   0.86200   0.00000  Uiso   1.00
N547   N     0.37756   0.42225   0.60100   0.00000  Uiso   1.00
N548   N     0.36166   0.23032   0.05816   0.00000  Uiso   1.00
N549   N     0.69649   0.29803   0.82877   0.00000  Uiso   1.00
N550   N     0.38462   0.50285   0.66794   0.00000  Uiso   1.00
N551   N     0.36871   0.31092   0.12510   0.00000  Uiso   1.00
N552   N     0.70355   0.37863   0.89570   0.00000  Uiso   1.00
C553   C     0.69021   0.97796   0.07338   0.00000  Uiso   1.00
C554   C     0.63952   0.95202   0.02845   0.00000  Uiso   1.00
C555   C     0.64180   0.92628   0.95339   0.00000  Uiso   1.00
C556   C     0.59070   0.90517   0.92255   0.00000  Uiso   1.00
C557   C     0.51983   0.86418   0.84629   0.00000  Uiso   1.00
C558   C     0.69241   0.94763   0.15444   0.00000  Uiso   1.00
C559   C     0.73917   0.91820   0.18531   0.00000  Uiso   1.00
C560   C     0.73260   0.89340   0.26055   0.00000  Uiso   1.00
C561   C     0.74386   0.84563   0.37992   0.00000  Uiso   1.00
C562   C     0.67375   0.03991   0.09121   0.00000  Uiso   1.00
C563   C     0.70482   0.08807   0.06893   0.00000  Uiso   1.00
C564   C     0.68254   0.14096   0.09094   0.00000  Uiso   1.00
C565   C     0.66482   0.23647   0.11214   0.00000  Uiso   1.00
C566   C     0.59543   0.98626   0.15210   0.00000  Uiso   1.00
C567   C     0.58804   0.95653   0.07121   0.00000  Uiso   1.00
C568   C     0.53693   0.93546   0.04048   0.00000  Uiso   1.00
C569   C     0.53913   0.90969   0.96538   0.00000  Uiso   1.00
C570   C     0.64093   0.95213   0.19720   0.00000  Uiso   1.00
C571   C     0.63430   0.92738   0.27240   0.00000  Uiso   1.00
C572   C     0.68102   0.89791   0.30338   0.00000  Uiso   1.00
C573   C     0.62226   0.04442   0.13396   0.00000  Uiso   1.00
C574   C     0.59994   0.09725   0.15602   0.00000  Uiso   1.00
C575   C     0.63097   0.14548   0.13378   0.00000  Uiso   1.00
H576   H     0.73030   0.97445   0.04010   0.00000  Uiso   1.00
H577   H     0.68165   0.92280   0.92032   0.00000  Uiso   1.00
H578   H     0.77900   0.91472   0.15222   0.00000  Uiso   1.00
H579   H     0.74466   0.08457   0.03585   0.00000  Uiso   1.00
H580   H     0.60501   0.86749   0.80639   0.00000  Uiso   1.00
H581   H     0.81030   0.85049   0.29537   0.00000  Uiso   1.00
H582   H     0.73787   0.20864   0.04998   0.00000  Uiso   1.00
H583   H     0.55534   0.98976   0.18539   0.00000  Uiso   1.00
H584   H     0.49709   0.93895   0.07358   0.00000  Uiso   1.00
H585   H     0.59445   0.93087   0.30547   0.00000  Uiso   1.00
H586   H     0.56010   0.10072   0.18910   0.00000  Uiso   1.00
H587   H     0.45522   0.88060   0.93078   0.00000  Uiso   1.00
H588   H     0.66051   0.86360   0.41976   0.00000  Uiso   1.00
H589   H     0.58808   0.22174   0.17437   0.00000  Uiso   1.00
O590   O     0.49496   0.84033   0.79242   0.00000  Uiso   1.00
O591   O     0.76429   0.81803   0.43395   0.00000  Uiso   1.00
O592   O     0.66927   0.28791   0.11200   0.00000  Uiso   1.00
N593   N     0.57775   0.87756   0.85100   0.00000  Uiso   1.00
N594   N     0.76968   0.86166   0.30816   0.00000  Uiso   1.00
N595   N     0.70197   0.19649   0.07877   0.00000  Uiso   1.00
N596   N     0.49715   0.88462   0.91794   0.00000  Uiso   1.00
N597   N     0.68908   0.86871   0.37510   0.00000  Uiso   1.00
N598   N     0.62137   0.20355   0.14570   0.00000  Uiso   1.00
C599   C     0.19021   0.47796   0.57338   0.00000  Uiso   1.00
C600   C     0.13952   0.45202   0.52845   0.00000  Uiso   1.00
C601   C     0.14180   0.42628   0.45339   0.00000  Uiso   1.00
C602   C     0.09070   0.40517   0.42255   0.00000  Uiso   1.00
C603   C     0.01983   0.36418   0.34629   0.00000  Uiso   1.00
C604   C     0.19241   0.44763   0.65444   0.00000  Uiso   1.00
C605   C     0.23917   0.41820   0.68531   0.00000  Uiso   1.00
C606   C     0.23260   0.39340   0.76055   0.00000  Uiso   1.00
C607   C     0.24386   0.34563   0.87992   0.00000  Uiso   1.00
C608   C     0.17375   0.53991   0.59121   0.00000  Uiso   1.00
C609   C     0.20482   0.58807   0.56893   0.00000  Uiso   1.00
C610   C     0.18254   0.64096   0.59094   0.00000  Uiso   1.00
C611   C     0.16482   0.73647   0.61214   0.00000  Uiso   1.00
C612   C     0.09543   0.48626   0.65210   0.00000  Uiso   1.00
C613   C     0.08804   0.45653   0.57121   0.00000  Uiso   1.00
C614   C     0.03693   0.43546   0.54048   0.00000  Uiso   1.00
C615   C     0.03913   0.40969   0.46538   0.00000  Uiso   1.00
C616   C     0.14093   0.45213   0.69720   0.00000  Uiso   1.00
C617   C     0.13430   0.42738   0.77240   0.00000  Uiso   1.00
C618   C     0.18102   0.39791   0.80338   0.00000  Uiso   1.00
C619   C     0.12226   0.54442   0.63396   0.00000  Uiso   1.00
C620   C     0.09994   0.59725   0.65602   0.00000  Uiso   1.00
C621   C     0.13097   0.64548   0.63378   0.00000  Uiso   1.00
H622   H     0.23030   0.47445   0.54010   0.00000  Uiso   1.00
H623   H     0.18165   0.42280   0.42032   0.00000  Uiso   1.00
H624   H     0.27900   0.41472   0.65222   0.00000  Uiso   1.00
H625   H     0.24466   0.58457   0.53585   0.00000  Uiso   1.00
H626   H     0.10501   0.36749   0.30639   0.00000  Uiso   1.00
H627   H     0.31030   0.35049   0.79537   0.00000  Uiso   1.00
H628   H     0.23787   0.70864   0.54998   0.00000  Uiso   1.00
H629   H     0.05534   0.48976   0.68539   0.00000  Uiso   1.00
H630   H     0.99709   0.43895   0.57358   0.00000  Uiso   1.00
H631   H     0.09445   0.43087   0.80547   0.00000  Uiso   1.00
H632   H     0.06010   0.60072   0.68910   0.00000  Uiso   1.00
H633   H     0.95522   0.38060   0.43078   0.00000  Uiso   1.00
H634   H     0.16051   0.36360   0.91976   0.00000  Uiso   1.00
H635   H     0.08808   0.72174   0.67437   0.00000  Uiso   1.00
O636   O     0.99496   0.34033   0.29242   0.00000  Uiso   1.00
O637   O     0.26429   0.31803   0.93395   0.00000  Uiso   1.00
O638   O     0.16927   0.78791   0.61200   0.00000  Uiso   1.00
N639   N     0.07775   0.37756   0.35100   0.00000  Uiso   1.00
N640   N     0.26968   0.36166   0.80816   0.00000  Uiso   1.00
N641   N     0.20197   0.69649   0.57877   0.00000  Uiso   1.00
N642   N     0.99715   0.38462   0.41794   0.00000  Uiso   1.00
N643   N     0.18908   0.36871   0.87510   0.00000  Uiso   1.00
N644   N     0.12137   0.70355   0.64570   0.00000  Uiso   1.00
C645   C     0.80979   0.52204   0.57338   0.00000  Uiso   1.00
C646   C     0.86048   0.54798   0.52845   0.00000  Uiso   1.00
C647   C     0.85820   0.57372   0.45339   0.00000  Uiso   1.00
C648   C     0.90930   0.59483   0.42255   0.00000  Uiso   1.00
C649   C     0.98017   0.63582   0.34629   0.00000  Uiso   1.00
C650   C     0.80759   0.55237   0.65444   0.00000  Uiso   1.00
C651   C     0.76083   0.58180   0.68531   0.00000  Uiso   1.00
C652   C     0.76740   0.60660   0.76055   0.00000  Uiso   1.00
C653   C     0.75614   0.65437   0.87992   0.00000  Uiso   1.00
C654   C     0.82625   0.46009   0.59121   0.00000  Uiso   1.00
C655   C     0.79518   0.41193   0.56893   0.00000  Uiso   1.00
C656   C     0.81746   0.35904   0.59094   0.00000  Uiso   1.00
C657   C     0.83518   0.26353   0.61214   0.00000  Uiso   1.00
C658   C     0.90457   0.51374   0.65210   0.00000  Uiso   1.00
C659   C     0.91196   0.54347   0.57121   0.00000  Uiso   1.00
C660   C     0.96307   0.56454   0.54048   0.00000  Uiso   1.00
C661   C     0.96087   0.59031   0.46538   0.00000  Uiso   1.00
C662   C     0.85907   0.54787   0.69720   0.00000  Uiso   1.00
C663   C     0.86570   0.57262   0.77240   0.00000  Uiso   1.00
C664   C     0.81898   0.60209   0.80338   0.00000  Uiso   1.00
C665   C     0.87774   0.45558   0.63396   0.00000  Uiso   1.00
C666   C     0.90006   0.40275   0.65602   0.00000  Uiso   1.00
C667   C     0.86903   0.35452   0.63378   0.00000  Uiso   1.00
H668   H     0.76970   0.52555   0.54010   0.00000  Uiso   1.00
H669   H     0.81835   0.57720   0.42032   0.00000  Uiso   1.00
H670   H     0.72100   0.58528   0.65222   0.00000  Uiso   1.00
H671   H     0.75534   0.41543   0.53585   0.00000  Uiso   1.00
H672   H     0.89499   0.63251   0.30639   0.00000  Uiso   1.00
H673   H     0.68970   0.64951   0.79537   0.00000  Uiso   1.00
H674   H     0.76213   0.29136   0.54998   0.00000  Uiso   1.00
H675   H     0.94466   0.51024   0.68539   0.00000  Uiso   1.00
H676   H     0.00291   0.56105   0.57358   0.00000  Uiso   1.00
H677   H     0.90555   0.56913   0.80547   0.00000  Uiso   1.00
H678   H     0.93990   0.39928   0.68910   0.00000  Uiso   1.00
H679   H     0.04478   0.61940   0.43078   0.00000  Uiso   1.00
H680   H     0.83949   0.63640   0.91976   0.00000  Uiso   1.00
H681   H     0.91192   0.27826   0.67437   0.00000  Uiso   1.00
O682   O     0.00504   0.65967   0.29242   0.00000  Uiso   1.00
O683   O     0.73571   0.68197   0.93395   0.00000  Uiso   1.00
O684   O     0.83073   0.21209   0.61200   0.00000  Uiso   1.00
N685   N     0.92225   0.62244   0.35100   0.00000  Uiso   1.00
N686   N     0.73032   0.63834   0.80816   0.00000  Uiso   1.00
N687   N     0.79803   0.30351   0.57877   0.00000  Uiso   1.00
N688   N     0.00285   0.61538   0.41794   0.00000  Uiso   1.00
N689   N     0.81092   0.63129   0.87510   0.00000  Uiso   1.00
N690   N     0.87863   0.29645   0.64570   0.00000  Uiso   1.00
C691   C     0.30979   0.02204   0.07338   0.00000  Uiso   1.00
C692   C     0.36048   0.04798   0.02845   0.00000  Uiso   1.00
C693   C     0.35820   0.07372   0.95339   0.00000  Uiso   1.00
C694   C     0.40930   0.09483   0.92255   0.00000  Uiso   1.00
C695   C     0.48017   0.13582   0.84629   0.00000  Uiso   1.00
C696   C     0.30759   0.05237   0.15444   0.00000  Uiso   1.00
C697   C     0.26083   0.08180   0.18531   0.00000  Uiso   1.00
C698   C     0.26740   0.10660   0.26055   0.00000  Uiso   1.00
C699   C     0.25614   0.15437   0.37992   0.00000  Uiso   1.00
C700   C     0.32625   0.96009   0.09121   0.00000  Uiso   1.00
C701   C     0.29518   0.91193   0.06893   0.00000  Uiso   1.00
C702   C     0.31746   0.85904   0.09094   0.00000  Uiso   1.00
C703   C     0.33518   0.76353   0.11214   0.00000  Uiso   1.00
C704   C     0.40457   0.01374   0.15210   0.00000  Uiso   1.00
C705   C     0.41196   0.04347   0.07121   0.00000  Uiso   1.00
C706   C     0.46307   0.06454   0.04048   0.00000  Uiso   1.00
C707   C     0.46087   0.09031   0.96538   0.00000  Uiso   1.00
C708   C     0.35907   0.04787   0.19720   0.00000  Uiso   1.00
C709   C     0.36570   0.07262   0.27240   0.00000  Uiso   1.00
C710   C     0.31898   0.10209   0.30338   0.00000  Uiso   1.00
C711   C     0.37774   0.95558   0.13396   0.00000  Uiso   1.00
C712   C     0.40006   0.90275   0.15602   0.00000  Uiso   1.00
C713   C     0.36903   0.85452   0.13378   0.00000  Uiso   1.00
H714   H     0.26970   0.02555   0.04010   0.00000  Uiso   1.00
H715   H     0.31835   0.07720   0.92032   0.00000  Uiso   1.00
H716   H     0.22100   0.08528   0.15222   0.00000  Uiso   1.00
H717   H     0.25534   0.91543   0.03585   0.00000  Uiso   1.00
H718   H     0.39499   0.13251   0.80639   0.00000  Uiso   1.00
H719   H     0.18970   0.14951   0.29537   0.00000  Uiso   1.00
H720   H     0.26213   0.79136   0.04998   0.00000  Uiso   1.00
H721   H     0.44466   0.01024   0.18539   0.00000  Uiso   1.00
H722   H     0.50291   0.06105   0.07358   0.00000  Uiso   1.00
H723   H     0.40555   0.06913   0.30547   0.00000  Uiso   1.00
H724   H     0.43990   0.89928   0.18910   0.00000  Uiso   1.00
H725   H     0.54478   0.11940   0.93078   0.00000  Uiso   1.00
H726   H     0.33949   0.13640   0.41976   0.00000  Uiso   1.00
H727   H     0.41192   0.77826   0.17437   0.00000  Uiso   1.00
O728   O     0.50504   0.15967   0.79242   0.00000  Uiso   1.00
O729   O     0.23571   0.18197   0.43395   0.00000  Uiso   1.00
O730   O     0.33073   0.71209   0.11200   0.00000  Uiso   1.00
N731   N     0.42225   0.12244   0.85100   0.00000  Uiso   1.00
N732   N     0.23032   0.13834   0.30816   0.00000  Uiso   1.00
N733   N     0.29803   0.80351   0.07877   0.00000  Uiso   1.00
N734   N     0.50285   0.11538   0.91794   0.00000  Uiso   1.00
N735   N     0.31092   0.13129   0.37510   0.00000  Uiso   1.00
N736   N     0.37863   0.79645   0.14570   0.00000  Uiso   1.00
