data_job_04160
_audit_creation_date              2018-12-19
_audit_creation_method            'Materials Studio'
_symmetry_space_group_name_H-M    'P1'
_symmetry_Int_Tables_number       1
_symmetry_cell_setting            triclinic
loop_
_symmetry_equiv_pos_as_xyz
  x,y,z
_cell_length_a                    54.4180
_cell_length_b                    15.9790
_cell_length_c                    11.6108
_cell_angle_alpha                 90.0000
_cell_angle_beta                  90.0000
_cell_angle_gamma                 90.0000
loop_
_atom_site_label
_atom_site_type_symbol
_atom_site_fract_x
_atom_site_fract_y
_atom_site_fract_z
_atom_site_U_iso_or_equiv
_atom_site_adp_type
_atom_site_occupancy
C1     C     0.44007   0.48923   0.74904   0.00000  Uiso   1.00
C2     C     0.44416   0.50784   0.87642   0.00000  Uiso   1.00
C3     C     0.45450   0.45354   0.95612   0.00000  Uiso   1.00
C4     C     0.45665   0.48231   0.06850   0.00000  Uiso   1.00
C5     C     0.46420   0.49899   0.26152   0.00000  Uiso   1.00
C6     C     0.41272   0.50271   0.72721   0.00000  Uiso   1.00
C7     C     0.39663   0.44410   0.68143   0.00000  Uiso   1.00
C8     C     0.37231   0.46857   0.66819   0.00000  Uiso   1.00
C9     C     0.33105   0.47730   0.62947   0.00000  Uiso   1.00
C10    C     0.45333   0.55833   0.68315   0.00000  Uiso   1.00
C11    C     0.47138   0.54648   0.60030   0.00000  Uiso   1.00
C12    C     0.48125   0.61777   0.54994   0.00000  Uiso   1.00
C13    C     0.50304   0.71286   0.44281   0.00000  Uiso   1.00
C14    C     0.42549   0.63689   0.80690   0.00000  Uiso   1.00
C15    C     0.43624   0.58804   0.90785   0.00000  Uiso   1.00
C16    C     0.43837   0.61691   0.02013   0.00000  Uiso   1.00
C17    C     0.44872   0.56266   0.09999   0.00000  Uiso   1.00
C18    C     0.40480   0.58291   0.75863   0.00000  Uiso   1.00
C19    C     0.38050   0.60747   0.74545   0.00000  Uiso   1.00
C20    C     0.36438   0.54891   0.69967   0.00000  Uiso   1.00
C21    C     0.44541   0.63853   0.71457   0.00000  Uiso   1.00
C22    C     0.45525   0.70985   0.66432   0.00000  Uiso   1.00
C23    C     0.47332   0.69812   0.58142   0.00000  Uiso   1.00
H24    H     0.44623   0.42679   0.72457   0.00000  Uiso   1.00
H25    H     0.46063   0.39147   0.93177   0.00000  Uiso   1.00
H26    H     0.40276   0.38205   0.65711   0.00000  Uiso   1.00
H27    H     0.47750   0.48441   0.57600   0.00000  Uiso   1.00
H28    H     0.47309   0.38768   0.17535   0.00000  Uiso   1.00
H29    H     0.35108   0.36781   0.59619   0.00000  Uiso   1.00
H30    H     0.50868   0.58366   0.42514   0.00000  Uiso   1.00
H31    H     0.41932   0.69933   0.83136   0.00000  Uiso   1.00
H32    H     0.43224   0.67897   0.04443   0.00000  Uiso   1.00
H33    H     0.37438   0.66954   0.76977   0.00000  Uiso   1.00
H34    H     0.44912   0.77191   0.68866   0.00000  Uiso   1.00
H35    H     0.45005   0.62102   0.26679   0.00000  Uiso   1.00
H36    H     0.32804   0.60115   0.68762   0.00000  Uiso   1.00
H37    H     0.48565   0.81700   0.51658   0.00000  Uiso   1.00
O38    O     0.47054   0.48603   0.35931   0.00000  Uiso   1.00
O39    O     0.31048   0.45996   0.59945   0.00000  Uiso   1.00
O40    O     0.51725   0.74316   0.37505   0.00000  Uiso   1.00
N41    N     0.46590   0.44540   0.16763   0.00000  Uiso   1.00
N42    N     0.35183   0.42681   0.62616   0.00000  Uiso   1.00
N43    N     0.49917   0.62862   0.46622   0.00000  Uiso   1.00
N44    N     0.45350   0.57096   0.21683   0.00000  Uiso   1.00
N45    N     0.33943   0.55237   0.67536   0.00000  Uiso   1.00
N46    N     0.48677   0.75418   0.51543   0.00000  Uiso   1.00
C47    C     0.44007   0.98923   0.24904   0.00000  Uiso   1.00
C48    C     0.44416   0.00784   0.37642   0.00000  Uiso   1.00
C49    C     0.45450   0.95354   0.45612   0.00000  Uiso   1.00
C50    C     0.45665   0.98231   0.56850   0.00000  Uiso   1.00
C51    C     0.46420   0.99899   0.76152   0.00000  Uiso   1.00
C52    C     0.41272   0.00271   0.22721   0.00000  Uiso   1.00
C53    C     0.39663   0.94410   0.18143   0.00000  Uiso   1.00
C54    C     0.37231   0.96857   0.16819   0.00000  Uiso   1.00
C55    C     0.33105   0.97730   0.12947   0.00000  Uiso   1.00
C56    C     0.45333   0.05833   0.18315   0.00000  Uiso   1.00
C57    C     0.47138   0.04648   0.10030   0.00000  Uiso   1.00
C58    C     0.48125   0.11777   0.04994   0.00000  Uiso   1.00
C59    C     0.50304   0.21286   0.94281   0.00000  Uiso   1.00
C60    C     0.42549   0.13689   0.30690   0.00000  Uiso   1.00
C61    C     0.43624   0.08804   0.40785   0.00000  Uiso   1.00
C62    C     0.43837   0.11691   0.52013   0.00000  Uiso   1.00
C63    C     0.44872   0.06266   0.59999   0.00000  Uiso   1.00
C64    C     0.40480   0.08291   0.25863   0.00000  Uiso   1.00
C65    C     0.38050   0.10747   0.24545   0.00000  Uiso   1.00
C66    C     0.36438   0.04891   0.19967   0.00000  Uiso   1.00
C67    C     0.44541   0.13853   0.21457   0.00000  Uiso   1.00
C68    C     0.45525   0.20985   0.16432   0.00000  Uiso   1.00
C69    C     0.47332   0.19812   0.08142   0.00000  Uiso   1.00
H70    H     0.44623   0.92679   0.22457   0.00000  Uiso   1.00
H71    H     0.46063   0.89147   0.43177   0.00000  Uiso   1.00
H72    H     0.40276   0.88205   0.15711   0.00000  Uiso   1.00
H73    H     0.47750   0.98441   0.07600   0.00000  Uiso   1.00
H74    H     0.47309   0.88768   0.67535   0.00000  Uiso   1.00
H75    H     0.35108   0.86781   0.09619   0.00000  Uiso   1.00
H76    H     0.50868   0.08366   0.92514   0.00000  Uiso   1.00
H77    H     0.41932   0.19933   0.33136   0.00000  Uiso   1.00
H78    H     0.43224   0.17897   0.54443   0.00000  Uiso   1.00
H79    H     0.37438   0.16954   0.26977   0.00000  Uiso   1.00
H80    H     0.44912   0.27191   0.18866   0.00000  Uiso   1.00
H81    H     0.45005   0.12102   0.76679   0.00000  Uiso   1.00
H82    H     0.32804   0.10115   0.18762   0.00000  Uiso   1.00
H83    H     0.48565   0.31700   0.01658   0.00000  Uiso   1.00
O84    O     0.47054   0.98603   0.85931   0.00000  Uiso   1.00
O85    O     0.31048   0.95996   0.09945   0.00000  Uiso   1.00
O86    O     0.51725   0.24316   0.87505   0.00000  Uiso   1.00
N87    N     0.46590   0.94540   0.66763   0.00000  Uiso   1.00
N88    N     0.35183   0.92681   0.12616   0.00000  Uiso   1.00
N89    N     0.49917   0.12862   0.96622   0.00000  Uiso   1.00
N90    N     0.45350   0.07096   0.71683   0.00000  Uiso   1.00
N91    N     0.33943   0.05237   0.17536   0.00000  Uiso   1.00
N92    N     0.48677   0.25418   0.01543   0.00000  Uiso   1.00
C93    C     0.94007   0.48923   0.24904   0.00000  Uiso   1.00
C94    C     0.94416   0.50784   0.37642   0.00000  Uiso   1.00
C95    C     0.95450   0.45354   0.45612   0.00000  Uiso   1.00
C96    C     0.95665   0.48231   0.56850   0.00000  Uiso   1.00
C97    C     0.96420   0.49899   0.76152   0.00000  Uiso   1.00
C98    C     0.91272   0.50271   0.22721   0.00000  Uiso   1.00
C99    C     0.89663   0.44410   0.18143   0.00000  Uiso   1.00
C100   C     0.87231   0.46857   0.16819   0.00000  Uiso   1.00
C101   C     0.83105   0.47730   0.12947   0.00000  Uiso   1.00
C102   C     0.95333   0.55833   0.18315   0.00000  Uiso   1.00
C103   C     0.97138   0.54648   0.10030   0.00000  Uiso   1.00
C104   C     0.98125   0.61777   0.04994   0.00000  Uiso   1.00
C105   C     0.00304   0.71286   0.94281   0.00000  Uiso   1.00
C106   C     0.92549   0.63689   0.30690   0.00000  Uiso   1.00
C107   C     0.93624   0.58804   0.40785   0.00000  Uiso   1.00
C108   C     0.93837   0.61691   0.52013   0.00000  Uiso   1.00
C109   C     0.94872   0.56266   0.59999   0.00000  Uiso   1.00
C110   C     0.90480   0.58291   0.25863   0.00000  Uiso   1.00
C111   C     0.88050   0.60747   0.24545   0.00000  Uiso   1.00
C112   C     0.86438   0.54891   0.19967   0.00000  Uiso   1.00
C113   C     0.94541   0.63853   0.21457   0.00000  Uiso   1.00
C114   C     0.95525   0.70985   0.16432   0.00000  Uiso   1.00
C115   C     0.97332   0.69812   0.08142   0.00000  Uiso   1.00
H116   H     0.94623   0.42679   0.22457   0.00000  Uiso   1.00
H117   H     0.96063   0.39147   0.43177   0.00000  Uiso   1.00
H118   H     0.90276   0.38205   0.15711   0.00000  Uiso   1.00
H119   H     0.97750   0.48441   0.07600   0.00000  Uiso   1.00
H120   H     0.97309   0.38768   0.67535   0.00000  Uiso   1.00
H121   H     0.85108   0.36781   0.09619   0.00000  Uiso   1.00
H122   H     0.00868   0.58366   0.92514   0.00000  Uiso   1.00
H123   H     0.91932   0.69933   0.33136   0.00000  Uiso   1.00
H124   H     0.93224   0.67897   0.54443   0.00000  Uiso   1.00
H125   H     0.87438   0.66954   0.26977   0.00000  Uiso   1.00
H126   H     0.94912   0.77191   0.18866   0.00000  Uiso   1.00
H127   H     0.95005   0.62102   0.76679   0.00000  Uiso   1.00
H128   H     0.82804   0.60115   0.18762   0.00000  Uiso   1.00
H129   H     0.98565   0.81700   0.01658   0.00000  Uiso   1.00
O130   O     0.97054   0.48603   0.85931   0.00000  Uiso   1.00
O131   O     0.81048   0.45996   0.09945   0.00000  Uiso   1.00
O132   O     0.01725   0.74316   0.87505   0.00000  Uiso   1.00
N133   N     0.96590   0.44540   0.66763   0.00000  Uiso   1.00
N134   N     0.85183   0.42681   0.12616   0.00000  Uiso   1.00
N135   N     0.99917   0.62862   0.96622   0.00000  Uiso   1.00
N136   N     0.95350   0.57096   0.71683   0.00000  Uiso   1.00
N137   N     0.83943   0.55237   0.17536   0.00000  Uiso   1.00
N138   N     0.98677   0.75418   0.01543   0.00000  Uiso   1.00
C139   C     0.94007   0.98923   0.74904   0.00000  Uiso   1.00
C140   C     0.94416   0.00784   0.87642   0.00000  Uiso   1.00
C141   C     0.95450   0.95354   0.95612   0.00000  Uiso   1.00
C142   C     0.95665   0.98231   0.06850   0.00000  Uiso   1.00
C143   C     0.96420   0.99899   0.26152   0.00000  Uiso   1.00
C144   C     0.91272   0.00271   0.72721   0.00000  Uiso   1.00
C145   C     0.89663   0.94410   0.68143   0.00000  Uiso   1.00
C146   C     0.87231   0.96857   0.66819   0.00000  Uiso   1.00
C147   C     0.83105   0.97730   0.62947   0.00000  Uiso   1.00
C148   C     0.95333   0.05833   0.68315   0.00000  Uiso   1.00
C149   C     0.97138   0.04648   0.60030   0.00000  Uiso   1.00
C150   C     0.98125   0.11777   0.54994   0.00000  Uiso   1.00
C151   C     0.00304   0.21286   0.44281   0.00000  Uiso   1.00
C152   C     0.92549   0.13689   0.80690   0.00000  Uiso   1.00
C153   C     0.93624   0.08804   0.90785   0.00000  Uiso   1.00
C154   C     0.93837   0.11691   0.02013   0.00000  Uiso   1.00
C155   C     0.94872   0.06266   0.09999   0.00000  Uiso   1.00
C156   C     0.90480   0.08291   0.75863   0.00000  Uiso   1.00
C157   C     0.88050   0.10747   0.74545   0.00000  Uiso   1.00
C158   C     0.86438   0.04891   0.69967   0.00000  Uiso   1.00
C159   C     0.94541   0.13853   0.71457   0.00000  Uiso   1.00
C160   C     0.95525   0.20985   0.66432   0.00000  Uiso   1.00
C161   C     0.97332   0.19812   0.58142   0.00000  Uiso   1.00
H162   H     0.94623   0.92679   0.72457   0.00000  Uiso   1.00
H163   H     0.96063   0.89147   0.93177   0.00000  Uiso   1.00
H164   H     0.90276   0.88205   0.65711   0.00000  Uiso   1.00
H165   H     0.97750   0.98441   0.57600   0.00000  Uiso   1.00
H166   H     0.97309   0.88768   0.17535   0.00000  Uiso   1.00
H167   H     0.85108   0.86781   0.59619   0.00000  Uiso   1.00
H168   H     0.00868   0.08366   0.42514   0.00000  Uiso   1.00
H169   H     0.91932   0.19933   0.83136   0.00000  Uiso   1.00
H170   H     0.93224   0.17897   0.04443   0.00000  Uiso   1.00
H171   H     0.87438   0.16954   0.76977   0.00000  Uiso   1.00
H172   H     0.94912   0.27191   0.68866   0.00000  Uiso   1.00
H173   H     0.95005   0.12102   0.26679   0.00000  Uiso   1.00
H174   H     0.82804   0.10115   0.68762   0.00000  Uiso   1.00
H175   H     0.98565   0.31700   0.51658   0.00000  Uiso   1.00
O176   O     0.97054   0.98603   0.35931   0.00000  Uiso   1.00
O177   O     0.81048   0.95996   0.59945   0.00000  Uiso   1.00
O178   O     0.01725   0.24316   0.37505   0.00000  Uiso   1.00
N179   N     0.96590   0.94540   0.16763   0.00000  Uiso   1.00
N180   N     0.85183   0.92681   0.62616   0.00000  Uiso   1.00
N181   N     0.99917   0.12862   0.46622   0.00000  Uiso   1.00
N182   N     0.95350   0.07096   0.21683   0.00000  Uiso   1.00
N183   N     0.83943   0.05237   0.67536   0.00000  Uiso   1.00
N184   N     0.98677   0.25418   0.51543   0.00000  Uiso   1.00
C185   C     0.55993   0.51077   0.74904   0.00000  Uiso   1.00
C186   C     0.55584   0.49216   0.87642   0.00000  Uiso   1.00
C187   C     0.54550   0.54646   0.95612   0.00000  Uiso   1.00
C188   C     0.54335   0.51769   0.06850   0.00000  Uiso   1.00
C189   C     0.53580   0.50101   0.26152   0.00000  Uiso   1.00
C190   C     0.58728   0.49729   0.72721   0.00000  Uiso   1.00
C191   C     0.60337   0.55590   0.68143   0.00000  Uiso   1.00
C192   C     0.62769   0.53143   0.66819   0.00000  Uiso   1.00
C193   C     0.66895   0.52270   0.62947   0.00000  Uiso   1.00
C194   C     0.54667   0.44167   0.68315   0.00000  Uiso   1.00
C195   C     0.52862   0.45352   0.60030   0.00000  Uiso   1.00
C196   C     0.51875   0.38223   0.54994   0.00000  Uiso   1.00
C197   C     0.49696   0.28714   0.44281   0.00000  Uiso   1.00
C198   C     0.57451   0.36311   0.80690   0.00000  Uiso   1.00
C199   C     0.56376   0.41196   0.90785   0.00000  Uiso   1.00
C200   C     0.56163   0.38309   0.02013   0.00000  Uiso   1.00
C201   C     0.55128   0.43734   0.09999   0.00000  Uiso   1.00
C202   C     0.59520   0.41709   0.75863   0.00000  Uiso   1.00
C203   C     0.61950   0.39253   0.74545   0.00000  Uiso   1.00
C204   C     0.63562   0.45109   0.69967   0.00000  Uiso   1.00
C205   C     0.55459   0.36147   0.71457   0.00000  Uiso   1.00
C206   C     0.54475   0.29015   0.66432   0.00000  Uiso   1.00
C207   C     0.52668   0.30188   0.58142   0.00000  Uiso   1.00
H208   H     0.55377   0.57321   0.72457   0.00000  Uiso   1.00
H209   H     0.53937   0.60853   0.93177   0.00000  Uiso   1.00
H210   H     0.59724   0.61795   0.65711   0.00000  Uiso   1.00
H211   H     0.52250   0.51559   0.57600   0.00000  Uiso   1.00
H212   H     0.52691   0.61232   0.17535   0.00000  Uiso   1.00
H213   H     0.64892   0.63219   0.59619   0.00000  Uiso   1.00
H214   H     0.49132   0.41634   0.42514   0.00000  Uiso   1.00
H215   H     0.58068   0.30067   0.83136   0.00000  Uiso   1.00
H216   H     0.56776   0.32103   0.04443   0.00000  Uiso   1.00
H217   H     0.62562   0.33046   0.76977   0.00000  Uiso   1.00
H218   H     0.55088   0.22809   0.68866   0.00000  Uiso   1.00
H219   H     0.54995   0.37898   0.26679   0.00000  Uiso   1.00
H220   H     0.67196   0.39885   0.68762   0.00000  Uiso   1.00
H221   H     0.51435   0.18300   0.51658   0.00000  Uiso   1.00
O222   O     0.52946   0.51397   0.35931   0.00000  Uiso   1.00
O223   O     0.68952   0.54004   0.59945   0.00000  Uiso   1.00
O224   O     0.48275   0.25684   0.37505   0.00000  Uiso   1.00
N225   N     0.53410   0.55460   0.16763   0.00000  Uiso   1.00
N226   N     0.64817   0.57319   0.62616   0.00000  Uiso   1.00
N227   N     0.50083   0.37138   0.46622   0.00000  Uiso   1.00
N228   N     0.54650   0.42904   0.21683   0.00000  Uiso   1.00
N229   N     0.66057   0.44763   0.67536   0.00000  Uiso   1.00
N230   N     0.51323   0.24582   0.51543   0.00000  Uiso   1.00
C231   C     0.55993   0.01077   0.24904   0.00000  Uiso   1.00
C232   C     0.55584   0.99216   0.37642   0.00000  Uiso   1.00
C233   C     0.54550   0.04646   0.45612   0.00000  Uiso   1.00
C234   C     0.54335   0.01769   0.56850   0.00000  Uiso   1.00
C235   C     0.53580   0.00101   0.76152   0.00000  Uiso   1.00
C236   C     0.58728   0.99729   0.22721   0.00000  Uiso   1.00
C237   C     0.60337   0.05590   0.18143   0.00000  Uiso   1.00
C238   C     0.62769   0.03143   0.16819   0.00000  Uiso   1.00
C239   C     0.66895   0.02270   0.12947   0.00000  Uiso   1.00
C240   C     0.54667   0.94167   0.18315   0.00000  Uiso   1.00
C241   C     0.52862   0.95352   0.10030   0.00000  Uiso   1.00
C242   C     0.51875   0.88223   0.04994   0.00000  Uiso   1.00
C243   C     0.49696   0.78714   0.94281   0.00000  Uiso   1.00
C244   C     0.57451   0.86311   0.30690   0.00000  Uiso   1.00
C245   C     0.56376   0.91196   0.40785   0.00000  Uiso   1.00
C246   C     0.56163   0.88309   0.52013   0.00000  Uiso   1.00
C247   C     0.55128   0.93734   0.59999   0.00000  Uiso   1.00
C248   C     0.59520   0.91709   0.25863   0.00000  Uiso   1.00
C249   C     0.61950   0.89253   0.24545   0.00000  Uiso   1.00
C250   C     0.63562   0.95109   0.19967   0.00000  Uiso   1.00
C251   C     0.55459   0.86147   0.21457   0.00000  Uiso   1.00
C252   C     0.54475   0.79015   0.16432   0.00000  Uiso   1.00
C253   C     0.52668   0.80188   0.08142   0.00000  Uiso   1.00
H254   H     0.55377   0.07321   0.22457   0.00000  Uiso   1.00
H255   H     0.53937   0.10853   0.43177   0.00000  Uiso   1.00
H256   H     0.59724   0.11795   0.15711   0.00000  Uiso   1.00
H257   H     0.52250   0.01559   0.07600   0.00000  Uiso   1.00
H258   H     0.52691   0.11232   0.67535   0.00000  Uiso   1.00
H259   H     0.64892   0.13219   0.09619   0.00000  Uiso   1.00
H260   H     0.49132   0.91634   0.92514   0.00000  Uiso   1.00
H261   H     0.58068   0.80067   0.33136   0.00000  Uiso   1.00
H262   H     0.56776   0.82103   0.54443   0.00000  Uiso   1.00
H263   H     0.62562   0.83046   0.26977   0.00000  Uiso   1.00
H264   H     0.55088   0.72809   0.18866   0.00000  Uiso   1.00
H265   H     0.54995   0.87898   0.76679   0.00000  Uiso   1.00
H266   H     0.67196   0.89885   0.18762   0.00000  Uiso   1.00
H267   H     0.51435   0.68300   0.01658   0.00000  Uiso   1.00
O268   O     0.52946   0.01397   0.85931   0.00000  Uiso   1.00
O269   O     0.68952   0.04004   0.09945   0.00000  Uiso   1.00
O270   O     0.48275   0.75684   0.87505   0.00000  Uiso   1.00
N271   N     0.53410   0.05460   0.66763   0.00000  Uiso   1.00
N272   N     0.64817   0.07319   0.12616   0.00000  Uiso   1.00
N273   N     0.50083   0.87138   0.96622   0.00000  Uiso   1.00
N274   N     0.54650   0.92904   0.71683   0.00000  Uiso   1.00
N275   N     0.66057   0.94763   0.17536   0.00000  Uiso   1.00
N276   N     0.51323   0.74582   0.01543   0.00000  Uiso   1.00
C277   C     0.05993   0.51077   0.24904   0.00000  Uiso   1.00
C278   C     0.05584   0.49216   0.37642   0.00000  Uiso   1.00
C279   C     0.04550   0.54646   0.45612   0.00000  Uiso   1.00
C280   C     0.04335   0.51769   0.56850   0.00000  Uiso   1.00
C281   C     0.03580   0.50101   0.76152   0.00000  Uiso   1.00
C282   C     0.08728   0.49729   0.22721   0.00000  Uiso   1.00
C283   C     0.10337   0.55590   0.18143   0.00000  Uiso   1.00
C284   C     0.12769   0.53143   0.16819   0.00000  Uiso   1.00
C285   C     0.16895   0.52270   0.12947   0.00000  Uiso   1.00
C286   C     0.04667   0.44167   0.18315   0.00000  Uiso   1.00
C287   C     0.02862   0.45352   0.10030   0.00000  Uiso   1.00
C288   C     0.01875   0.38223   0.04994   0.00000  Uiso   1.00
C289   C     0.99696   0.28714   0.94281   0.00000  Uiso   1.00
C290   C     0.07451   0.36311   0.30690   0.00000  Uiso   1.00
C291   C     0.06376   0.41196   0.40785   0.00000  Uiso   1.00
C292   C     0.06163   0.38309   0.52013   0.00000  Uiso   1.00
C293   C     0.05128   0.43734   0.59999   0.00000  Uiso   1.00
C294   C     0.09520   0.41709   0.25863   0.00000  Uiso   1.00
C295   C     0.11950   0.39253   0.24545   0.00000  Uiso   1.00
C296   C     0.13562   0.45109   0.19967   0.00000  Uiso   1.00
C297   C     0.05459   0.36147   0.21457   0.00000  Uiso   1.00
C298   C     0.04475   0.29015   0.16432   0.00000  Uiso   1.00
C299   C     0.02668   0.30188   0.08142   0.00000  Uiso   1.00
H300   H     0.05377   0.57321   0.22457   0.00000  Uiso   1.00
H301   H     0.03937   0.60853   0.43177   0.00000  Uiso   1.00
H302   H     0.09724   0.61795   0.15711   0.00000  Uiso   1.00
H303   H     0.02250   0.51559   0.07600   0.00000  Uiso   1.00
H304   H     0.02691   0.61232   0.67535   0.00000  Uiso   1.00
H305   H     0.14892   0.63219   0.09619   0.00000  Uiso   1.00
H306   H     0.99132   0.41634   0.92514   0.00000  Uiso   1.00
H307   H     0.08068   0.30067   0.33136   0.00000  Uiso   1.00
H308   H     0.06776   0.32103   0.54443   0.00000  Uiso   1.00
H309   H     0.12562   0.33046   0.26977   0.00000  Uiso   1.00
H310   H     0.05088   0.22809   0.18866   0.00000  Uiso   1.00
H311   H     0.04995   0.37898   0.76679   0.00000  Uiso   1.00
H312   H     0.17196   0.39885   0.18762   0.00000  Uiso   1.00
H313   H     0.01435   0.18300   0.01658   0.00000  Uiso   1.00
O314   O     0.02946   0.51397   0.85931   0.00000  Uiso   1.00
O315   O     0.18952   0.54004   0.09945   0.00000  Uiso   1.00
O316   O     0.98275   0.25684   0.87505   0.00000  Uiso   1.00
N317   N     0.03410   0.55460   0.66763   0.00000  Uiso   1.00
N318   N     0.14817   0.57319   0.12616   0.00000  Uiso   1.00
N319   N     0.00083   0.37138   0.96622   0.00000  Uiso   1.00
N320   N     0.04650   0.42904   0.71683   0.00000  Uiso   1.00
N321   N     0.16057   0.44763   0.17536   0.00000  Uiso   1.00
N322   N     0.01323   0.24582   0.01543   0.00000  Uiso   1.00
C323   C     0.05993   0.01077   0.74904   0.00000  Uiso   1.00
C324   C     0.05584   0.99216   0.87642   0.00000  Uiso   1.00
C325   C     0.04550   0.04646   0.95612   0.00000  Uiso   1.00
C326   C     0.04335   0.01769   0.06850   0.00000  Uiso   1.00
C327   C     0.03580   0.00101   0.26152   0.00000  Uiso   1.00
C328   C     0.08728   0.99729   0.72721   0.00000  Uiso   1.00
C329   C     0.10337   0.05590   0.68143   0.00000  Uiso   1.00
C330   C     0.12769   0.03143   0.66819   0.00000  Uiso   1.00
C331   C     0.16895   0.02270   0.62947   0.00000  Uiso   1.00
C332   C     0.04667   0.94167   0.68315   0.00000  Uiso   1.00
C333   C     0.02862   0.95352   0.60030   0.00000  Uiso   1.00
C334   C     0.01875   0.88223   0.54994   0.00000  Uiso   1.00
C335   C     0.99696   0.78714   0.44281   0.00000  Uiso   1.00
C336   C     0.07451   0.86311   0.80690   0.00000  Uiso   1.00
C337   C     0.06376   0.91196   0.90785   0.00000  Uiso   1.00
C338   C     0.06163   0.88309   0.02013   0.00000  Uiso   1.00
C339   C     0.05128   0.93734   0.09999   0.00000  Uiso   1.00
C340   C     0.09520   0.91709   0.75863   0.00000  Uiso   1.00
C341   C     0.11950   0.89253   0.74545   0.00000  Uiso   1.00
C342   C     0.13562   0.95109   0.69967   0.00000  Uiso   1.00
C343   C     0.05459   0.86147   0.71457   0.00000  Uiso   1.00
C344   C     0.04475   0.79015   0.66432   0.00000  Uiso   1.00
C345   C     0.02668   0.80188   0.58142   0.00000  Uiso   1.00
H346   H     0.05377   0.07321   0.72457   0.00000  Uiso   1.00
H347   H     0.03937   0.10853   0.93177   0.00000  Uiso   1.00
H348   H     0.09724   0.11795   0.65711   0.00000  Uiso   1.00
H349   H     0.02250   0.01559   0.57600   0.00000  Uiso   1.00
H350   H     0.02691   0.11232   0.17535   0.00000  Uiso   1.00
H351   H     0.14892   0.13219   0.59619   0.00000  Uiso   1.00
H352   H     0.99132   0.91634   0.42514   0.00000  Uiso   1.00
H353   H     0.08068   0.80067   0.83136   0.00000  Uiso   1.00
H354   H     0.06776   0.82103   0.04443   0.00000  Uiso   1.00
H355   H     0.12562   0.83046   0.76977   0.00000  Uiso   1.00
H356   H     0.05088   0.72809   0.68866   0.00000  Uiso   1.00
H357   H     0.04995   0.87898   0.26679   0.00000  Uiso   1.00
H358   H     0.17196   0.89885   0.68762   0.00000  Uiso   1.00
H359   H     0.01435   0.68300   0.51658   0.00000  Uiso   1.00
O360   O     0.02946   0.01397   0.35931   0.00000  Uiso   1.00
O361   O     0.18952   0.04004   0.59945   0.00000  Uiso   1.00
O362   O     0.98275   0.75684   0.37505   0.00000  Uiso   1.00
N363   N     0.03410   0.05460   0.16763   0.00000  Uiso   1.00
N364   N     0.14817   0.07319   0.62616   0.00000  Uiso   1.00
N365   N     0.00083   0.87138   0.46622   0.00000  Uiso   1.00
N366   N     0.04650   0.92904   0.21683   0.00000  Uiso   1.00
N367   N     0.16057   0.94763   0.67536   0.00000  Uiso   1.00
N368   N     0.01323   0.74582   0.51543   0.00000  Uiso   1.00
C369   C     0.69007   0.76077   0.99904   0.00000  Uiso   1.00
C370   C     0.69416   0.74216   0.12642   0.00000  Uiso   1.00
C371   C     0.70450   0.79646   0.20612   0.00000  Uiso   1.00
C372   C     0.70665   0.76769   0.31850   0.00000  Uiso   1.00
C373   C     0.71420   0.75101   0.51152   0.00000  Uiso   1.00
C374   C     0.66272   0.74729   0.97721   0.00000  Uiso   1.00
C375   C     0.64663   0.80590   0.93143   0.00000  Uiso   1.00
C376   C     0.62231   0.78143   0.91819   0.00000  Uiso   1.00
C377   C     0.58105   0.77270   0.87947   0.00000  Uiso   1.00
C378   C     0.70333   0.69167   0.93315   0.00000  Uiso   1.00
C379   C     0.72138   0.70352   0.85030   0.00000  Uiso   1.00
C380   C     0.73125   0.63223   0.79994   0.00000  Uiso   1.00
C381   C     0.75304   0.53714   0.69281   0.00000  Uiso   1.00
C382   C     0.67549   0.61311   0.05690   0.00000  Uiso   1.00
C383   C     0.68624   0.66196   0.15785   0.00000  Uiso   1.00
C384   C     0.68837   0.63309   0.27013   0.00000  Uiso   1.00
C385   C     0.69872   0.68734   0.34999   0.00000  Uiso   1.00
C386   C     0.65480   0.66709   0.00863   0.00000  Uiso   1.00
C387   C     0.63050   0.64253   0.99545   0.00000  Uiso   1.00
C388   C     0.61438   0.70109   0.94967   0.00000  Uiso   1.00
C389   C     0.69541   0.61147   0.96457   0.00000  Uiso   1.00
C390   C     0.70525   0.54015   0.91432   0.00000  Uiso   1.00
C391   C     0.72332   0.55188   0.83142   0.00000  Uiso   1.00
H392   H     0.69623   0.82321   0.97457   0.00000  Uiso   1.00
H393   H     0.71063   0.85853   0.18177   0.00000  Uiso   1.00
H394   H     0.65276   0.86795   0.90711   0.00000  Uiso   1.00
H395   H     0.72750   0.76559   0.82600   0.00000  Uiso   1.00
H396   H     0.72309   0.86232   0.42535   0.00000  Uiso   1.00
H397   H     0.60108   0.88219   0.84619   0.00000  Uiso   1.00
H398   H     0.75868   0.66634   0.67514   0.00000  Uiso   1.00
H399   H     0.66932   0.55067   0.08136   0.00000  Uiso   1.00
H400   H     0.68224   0.57103   0.29443   0.00000  Uiso   1.00
H401   H     0.62438   0.58046   0.01977   0.00000  Uiso   1.00
H402   H     0.69912   0.47809   0.93866   0.00000  Uiso   1.00
H403   H     0.70005   0.62898   0.51679   0.00000  Uiso   1.00
H404   H     0.57804   0.64885   0.93762   0.00000  Uiso   1.00
H405   H     0.73565   0.43300   0.76658   0.00000  Uiso   1.00
O406   O     0.72054   0.76397   0.60931   0.00000  Uiso   1.00
O407   O     0.56048   0.79004   0.84945   0.00000  Uiso   1.00
O408   O     0.76725   0.50684   0.62505   0.00000  Uiso   1.00
N409   N     0.71590   0.80460   0.41763   0.00000  Uiso   1.00
N410   N     0.60183   0.82319   0.87616   0.00000  Uiso   1.00
N411   N     0.74917   0.62138   0.71622   0.00000  Uiso   1.00
N412   N     0.70350   0.67904   0.46683   0.00000  Uiso   1.00
N413   N     0.58943   0.69763   0.92536   0.00000  Uiso   1.00
N414   N     0.73677   0.49582   0.76543   0.00000  Uiso   1.00
C415   C     0.69007   0.26077   0.49904   0.00000  Uiso   1.00
C416   C     0.69416   0.24216   0.62642   0.00000  Uiso   1.00
C417   C     0.70450   0.29646   0.70612   0.00000  Uiso   1.00
C418   C     0.70665   0.26769   0.81850   0.00000  Uiso   1.00
C419   C     0.71420   0.25101   0.01152   0.00000  Uiso   1.00
C420   C     0.66272   0.24729   0.47721   0.00000  Uiso   1.00
C421   C     0.64663   0.30590   0.43143   0.00000  Uiso   1.00
C422   C     0.62231   0.28143   0.41819   0.00000  Uiso   1.00
C423   C     0.58105   0.27270   0.37947   0.00000  Uiso   1.00
C424   C     0.70333   0.19167   0.43315   0.00000  Uiso   1.00
C425   C     0.72138   0.20352   0.35030   0.00000  Uiso   1.00
C426   C     0.73125   0.13223   0.29994   0.00000  Uiso   1.00
C427   C     0.75304   0.03714   0.19281   0.00000  Uiso   1.00
C428   C     0.67549   0.11311   0.55690   0.00000  Uiso   1.00
C429   C     0.68624   0.16196   0.65785   0.00000  Uiso   1.00
C430   C     0.68837   0.13309   0.77013   0.00000  Uiso   1.00
C431   C     0.69872   0.18734   0.84999   0.00000  Uiso   1.00
C432   C     0.65480   0.16709   0.50863   0.00000  Uiso   1.00
C433   C     0.63050   0.14253   0.49545   0.00000  Uiso   1.00
C434   C     0.61438   0.20109   0.44967   0.00000  Uiso   1.00
C435   C     0.69541   0.11147   0.46457   0.00000  Uiso   1.00
C436   C     0.70525   0.04015   0.41432   0.00000  Uiso   1.00
C437   C     0.72332   0.05188   0.33142   0.00000  Uiso   1.00
H438   H     0.69623   0.32321   0.47457   0.00000  Uiso   1.00
H439   H     0.71063   0.35853   0.68177   0.00000  Uiso   1.00
H440   H     0.65276   0.36795   0.40711   0.00000  Uiso   1.00
H441   H     0.72750   0.26559   0.32600   0.00000  Uiso   1.00
H442   H     0.72309   0.36232   0.92535   0.00000  Uiso   1.00
H443   H     0.60108   0.38219   0.34619   0.00000  Uiso   1.00
H444   H     0.75868   0.16634   0.17514   0.00000  Uiso   1.00
H445   H     0.66932   0.05067   0.58136   0.00000  Uiso   1.00
H446   H     0.68224   0.07103   0.79443   0.00000  Uiso   1.00
H447   H     0.62438   0.08046   0.51977   0.00000  Uiso   1.00
H448   H     0.69912   0.97809   0.43866   0.00000  Uiso   1.00
H449   H     0.70005   0.12898   0.01679   0.00000  Uiso   1.00
H450   H     0.57804   0.14885   0.43762   0.00000  Uiso   1.00
H451   H     0.73565   0.93300   0.26658   0.00000  Uiso   1.00
O452   O     0.72054   0.26397   0.10931   0.00000  Uiso   1.00
O453   O     0.56048   0.29004   0.34945   0.00000  Uiso   1.00
O454   O     0.76725   0.00684   0.12505   0.00000  Uiso   1.00
N455   N     0.71590   0.30460   0.91763   0.00000  Uiso   1.00
N456   N     0.60183   0.32319   0.37616   0.00000  Uiso   1.00
N457   N     0.74917   0.12138   0.21622   0.00000  Uiso   1.00
N458   N     0.70350   0.17904   0.96683   0.00000  Uiso   1.00
N459   N     0.58943   0.19763   0.42536   0.00000  Uiso   1.00
N460   N     0.73677   0.99582   0.26543   0.00000  Uiso   1.00
C461   C     0.19007   0.76077   0.49904   0.00000  Uiso   1.00
C462   C     0.19416   0.74216   0.62642   0.00000  Uiso   1.00
C463   C     0.20450   0.79646   0.70612   0.00000  Uiso   1.00
C464   C     0.20665   0.76769   0.81850   0.00000  Uiso   1.00
C465   C     0.21420   0.75101   0.01152   0.00000  Uiso   1.00
C466   C     0.16272   0.74729   0.47721   0.00000  Uiso   1.00
C467   C     0.14663   0.80590   0.43143   0.00000  Uiso   1.00
C468   C     0.12231   0.78143   0.41819   0.00000  Uiso   1.00
C469   C     0.08105   0.77270   0.37947   0.00000  Uiso   1.00
C470   C     0.20333   0.69167   0.43315   0.00000  Uiso   1.00
C471   C     0.22138   0.70352   0.35030   0.00000  Uiso   1.00
C472   C     0.23125   0.63223   0.29994   0.00000  Uiso   1.00
C473   C     0.25304   0.53714   0.19281   0.00000  Uiso   1.00
C474   C     0.17549   0.61311   0.55690   0.00000  Uiso   1.00
C475   C     0.18624   0.66196   0.65785   0.00000  Uiso   1.00
C476   C     0.18837   0.63309   0.77013   0.00000  Uiso   1.00
C477   C     0.19872   0.68734   0.84999   0.00000  Uiso   1.00
C478   C     0.15480   0.66709   0.50863   0.00000  Uiso   1.00
C479   C     0.13050   0.64253   0.49545   0.00000  Uiso   1.00
C480   C     0.11438   0.70109   0.44967   0.00000  Uiso   1.00
C481   C     0.19541   0.61147   0.46457   0.00000  Uiso   1.00
C482   C     0.20525   0.54015   0.41432   0.00000  Uiso   1.00
C483   C     0.22332   0.55188   0.33142   0.00000  Uiso   1.00
H484   H     0.19623   0.82321   0.47457   0.00000  Uiso   1.00
H485   H     0.21063   0.85853   0.68177   0.00000  Uiso   1.00
H486   H     0.15276   0.86795   0.40711   0.00000  Uiso   1.00
H487   H     0.22750   0.76559   0.32600   0.00000  Uiso   1.00
H488   H     0.22309   0.86232   0.92535   0.00000  Uiso   1.00
H489   H     0.10108   0.88219   0.34619   0.00000  Uiso   1.00
H490   H     0.25868   0.66634   0.17514   0.00000  Uiso   1.00
H491   H     0.16932   0.55067   0.58136   0.00000  Uiso   1.00
H492   H     0.18224   0.57103   0.79443   0.00000  Uiso   1.00
H493   H     0.12438   0.58046   0.51977   0.00000  Uiso   1.00
H494   H     0.19912   0.47809   0.43866   0.00000  Uiso   1.00
H495   H     0.20005   0.62898   0.01679   0.00000  Uiso   1.00
H496   H     0.07804   0.64885   0.43762   0.00000  Uiso   1.00
H497   H     0.23565   0.43300   0.26658   0.00000  Uiso   1.00
O498   O     0.22054   0.76397   0.10931   0.00000  Uiso   1.00
O499   O     0.06048   0.79004   0.34945   0.00000  Uiso   1.00
O500   O     0.26725   0.50684   0.12505   0.00000  Uiso   1.00
N501   N     0.21590   0.80460   0.91763   0.00000  Uiso   1.00
N502   N     0.10183   0.82319   0.37616   0.00000  Uiso   1.00
N503   N     0.24917   0.62138   0.21622   0.00000  Uiso   1.00
N504   N     0.20350   0.67904   0.96683   0.00000  Uiso   1.00
N505   N     0.08943   0.69763   0.42536   0.00000  Uiso   1.00
N506   N     0.23677   0.49582   0.26543   0.00000  Uiso   1.00
C507   C     0.19007   0.26077   0.99904   0.00000  Uiso   1.00
C508   C     0.19416   0.24216   0.12642   0.00000  Uiso   1.00
C509   C     0.20450   0.29646   0.20612   0.00000  Uiso   1.00
C510   C     0.20665   0.26769   0.31850   0.00000  Uiso   1.00
C511   C     0.21420   0.25101   0.51152   0.00000  Uiso   1.00
C512   C     0.16272   0.24729   0.97721   0.00000  Uiso   1.00
C513   C     0.14663   0.30590   0.93143   0.00000  Uiso   1.00
C514   C     0.12231   0.28143   0.91819   0.00000  Uiso   1.00
C515   C     0.08105   0.27270   0.87947   0.00000  Uiso   1.00
C516   C     0.20333   0.19167   0.93315   0.00000  Uiso   1.00
C517   C     0.22138   0.20352   0.85030   0.00000  Uiso   1.00
C518   C     0.23125   0.13223   0.79994   0.00000  Uiso   1.00
C519   C     0.25304   0.03714   0.69281   0.00000  Uiso   1.00
C520   C     0.17549   0.11311   0.05690   0.00000  Uiso   1.00
C521   C     0.18624   0.16196   0.15785   0.00000  Uiso   1.00
C522   C     0.18837   0.13309   0.27013   0.00000  Uiso   1.00
C523   C     0.19872   0.18734   0.34999   0.00000  Uiso   1.00
C524   C     0.15480   0.16709   0.00863   0.00000  Uiso   1.00
C525   C     0.13050   0.14253   0.99545   0.00000  Uiso   1.00
C526   C     0.11438   0.20109   0.94967   0.00000  Uiso   1.00
C527   C     0.19541   0.11147   0.96457   0.00000  Uiso   1.00
C528   C     0.20525   0.04015   0.91432   0.00000  Uiso   1.00
C529   C     0.22332   0.05188   0.83142   0.00000  Uiso   1.00
H530   H     0.19623   0.32321   0.97457   0.00000  Uiso   1.00
H531   H     0.21063   0.35853   0.18177   0.00000  Uiso   1.00
H532   H     0.15276   0.36795   0.90711   0.00000  Uiso   1.00
H533   H     0.22750   0.26559   0.82600   0.00000  Uiso   1.00
H534   H     0.22309   0.36232   0.42535   0.00000  Uiso   1.00
H535   H     0.10108   0.38219   0.84619   0.00000  Uiso   1.00
H536   H     0.25868   0.16634   0.67514   0.00000  Uiso   1.00
H537   H     0.16932   0.05067   0.08136   0.00000  Uiso   1.00
H538   H     0.18224   0.07103   0.29443   0.00000  Uiso   1.00
H539   H     0.12438   0.08046   0.01977   0.00000  Uiso   1.00
H540   H     0.19912   0.97809   0.93866   0.00000  Uiso   1.00
H541   H     0.20005   0.12898   0.51679   0.00000  Uiso   1.00
H542   H     0.07804   0.14885   0.93762   0.00000  Uiso   1.00
H543   H     0.23565   0.93300   0.76658   0.00000  Uiso   1.00
O544   O     0.22054   0.26397   0.60931   0.00000  Uiso   1.00
O545   O     0.06048   0.29004   0.84945   0.00000  Uiso   1.00
O546   O     0.26725   0.00684   0.62505   0.00000  Uiso   1.00
N547   N     0.21590   0.30460   0.41763   0.00000  Uiso   1.00
N548   N     0.10183   0.32319   0.87616   0.00000  Uiso   1.00
N549   N     0.24917   0.12138   0.71622   0.00000  Uiso   1.00
N550   N     0.20350   0.17904   0.46683   0.00000  Uiso   1.00
N551   N     0.08943   0.19763   0.92536   0.00000  Uiso   1.00
N552   N     0.23677   0.99582   0.76543   0.00000  Uiso   1.00
C553   C     0.80993   0.73923   0.99904   0.00000  Uiso   1.00
C554   C     0.80584   0.75784   0.12642   0.00000  Uiso   1.00
C555   C     0.79550   0.70354   0.20612   0.00000  Uiso   1.00
C556   C     0.79335   0.73231   0.31850   0.00000  Uiso   1.00
C557   C     0.78580   0.74899   0.51152   0.00000  Uiso   1.00
C558   C     0.83728   0.75271   0.97721   0.00000  Uiso   1.00
C559   C     0.85337   0.69410   0.93143   0.00000  Uiso   1.00
C560   C     0.87769   0.71857   0.91819   0.00000  Uiso   1.00
C561   C     0.91895   0.72730   0.87947   0.00000  Uiso   1.00
C562   C     0.79667   0.80833   0.93315   0.00000  Uiso   1.00
C563   C     0.77862   0.79648   0.85030   0.00000  Uiso   1.00
C564   C     0.76875   0.86777   0.79994   0.00000  Uiso   1.00
C565   C     0.74696   0.96286   0.69281   0.00000  Uiso   1.00
C566   C     0.82451   0.88689   0.05690   0.00000  Uiso   1.00
C567   C     0.81376   0.83804   0.15785   0.00000  Uiso   1.00
C568   C     0.81163   0.86691   0.27013   0.00000  Uiso   1.00
C569   C     0.80128   0.81266   0.34999   0.00000  Uiso   1.00
C570   C     0.84520   0.83291   0.00863   0.00000  Uiso   1.00
C571   C     0.86950   0.85747   0.99545   0.00000  Uiso   1.00
C572   C     0.88562   0.79891   0.94967   0.00000  Uiso   1.00
C573   C     0.80459   0.88853   0.96457   0.00000  Uiso   1.00
C574   C     0.79475   0.95985   0.91432   0.00000  Uiso   1.00
C575   C     0.77668   0.94812   0.83142   0.00000  Uiso   1.00
H576   H     0.80377   0.67679   0.97457   0.00000  Uiso   1.00
H577   H     0.78937   0.64147   0.18177   0.00000  Uiso   1.00
H578   H     0.84724   0.63205   0.90711   0.00000  Uiso   1.00
H579   H     0.77250   0.73441   0.82600   0.00000  Uiso   1.00
H580   H     0.77691   0.63768   0.42535   0.00000  Uiso   1.00
H581   H     0.89892   0.61781   0.84619   0.00000  Uiso   1.00
H582   H     0.74132   0.83366   0.67514   0.00000  Uiso   1.00
H583   H     0.83068   0.94933   0.08136   0.00000  Uiso   1.00
H584   H     0.81776   0.92897   0.29443   0.00000  Uiso   1.00
H585   H     0.87562   0.91954   0.01977   0.00000  Uiso   1.00
H586   H     0.80088   0.02191   0.93866   0.00000  Uiso   1.00
H587   H     0.79995   0.87102   0.51679   0.00000  Uiso   1.00
H588   H     0.92196   0.85115   0.93762   0.00000  Uiso   1.00
H589   H     0.76435   0.06700   0.76658   0.00000  Uiso   1.00
O590   O     0.77946   0.73603   0.60931   0.00000  Uiso   1.00
O591   O     0.93952   0.70996   0.84945   0.00000  Uiso   1.00
O592   O     0.73275   0.99316   0.62505   0.00000  Uiso   1.00
N593   N     0.78410   0.69540   0.41763   0.00000  Uiso   1.00
N594   N     0.89817   0.67681   0.87616   0.00000  Uiso   1.00
N595   N     0.75083   0.87862   0.71622   0.00000  Uiso   1.00
N596   N     0.79650   0.82096   0.46683   0.00000  Uiso   1.00
N597   N     0.91057   0.80237   0.92536   0.00000  Uiso   1.00
N598   N     0.76323   0.00418   0.76543   0.00000  Uiso   1.00
C599   C     0.80993   0.23923   0.49904   0.00000  Uiso   1.00
C600   C     0.80584   0.25784   0.62642   0.00000  Uiso   1.00
C601   C     0.79550   0.20354   0.70612   0.00000  Uiso   1.00
C602   C     0.79335   0.23231   0.81850   0.00000  Uiso   1.00
C603   C     0.78580   0.24899   0.01152   0.00000  Uiso   1.00
C604   C     0.83728   0.25271   0.47721   0.00000  Uiso   1.00
C605   C     0.85337   0.19410   0.43143   0.00000  Uiso   1.00
C606   C     0.87769   0.21857   0.41819   0.00000  Uiso   1.00
C607   C     0.91895   0.22730   0.37947   0.00000  Uiso   1.00
C608   C     0.79667   0.30833   0.43315   0.00000  Uiso   1.00
C609   C     0.77862   0.29648   0.35030   0.00000  Uiso   1.00
C610   C     0.76875   0.36777   0.29994   0.00000  Uiso   1.00
C611   C     0.74696   0.46286   0.19281   0.00000  Uiso   1.00
C612   C     0.82451   0.38689   0.55690   0.00000  Uiso   1.00
C613   C     0.81376   0.33804   0.65785   0.00000  Uiso   1.00
C614   C     0.81163   0.36691   0.77013   0.00000  Uiso   1.00
C615   C     0.80128   0.31266   0.84999   0.00000  Uiso   1.00
C616   C     0.84520   0.33291   0.50863   0.00000  Uiso   1.00
C617   C     0.86950   0.35747   0.49545   0.00000  Uiso   1.00
C618   C     0.88562   0.29891   0.44967   0.00000  Uiso   1.00
C619   C     0.80459   0.38853   0.46457   0.00000  Uiso   1.00
C620   C     0.79475   0.45985   0.41432   0.00000  Uiso   1.00
C621   C     0.77668   0.44812   0.33142   0.00000  Uiso   1.00
H622   H     0.80377   0.17679   0.47457   0.00000  Uiso   1.00
H623   H     0.78937   0.14147   0.68177   0.00000  Uiso   1.00
H624   H     0.84724   0.13205   0.40711   0.00000  Uiso   1.00
H625   H     0.77250   0.23441   0.32600   0.00000  Uiso   1.00
H626   H     0.77691   0.13768   0.92535   0.00000  Uiso   1.00
H627   H     0.89892   0.11781   0.34619   0.00000  Uiso   1.00
H628   H     0.74132   0.33366   0.17514   0.00000  Uiso   1.00
H629   H     0.83068   0.44933   0.58136   0.00000  Uiso   1.00
H630   H     0.81776   0.42897   0.79443   0.00000  Uiso   1.00
H631   H     0.87562   0.41954   0.51977   0.00000  Uiso   1.00
H632   H     0.80088   0.52191   0.43866   0.00000  Uiso   1.00
H633   H     0.79995   0.37102   0.01679   0.00000  Uiso   1.00
H634   H     0.92196   0.35115   0.43762   0.00000  Uiso   1.00
H635   H     0.76435   0.56700   0.26658   0.00000  Uiso   1.00
O636   O     0.77946   0.23603   0.10931   0.00000  Uiso   1.00
O637   O     0.93952   0.20996   0.34945   0.00000  Uiso   1.00
O638   O     0.73275   0.49316   0.12505   0.00000  Uiso   1.00
N639   N     0.78410   0.19540   0.91763   0.00000  Uiso   1.00
N640   N     0.89817   0.17681   0.37616   0.00000  Uiso   1.00
N641   N     0.75083   0.37862   0.21622   0.00000  Uiso   1.00
N642   N     0.79650   0.32096   0.96683   0.00000  Uiso   1.00
N643   N     0.91057   0.30237   0.42536   0.00000  Uiso   1.00
N644   N     0.76323   0.50418   0.26543   0.00000  Uiso   1.00
C645   C     0.30993   0.73923   0.49904   0.00000  Uiso   1.00
C646   C     0.30584   0.75784   0.62642   0.00000  Uiso   1.00
C647   C     0.29550   0.70354   0.70612   0.00000  Uiso   1.00
C648   C     0.29335   0.73231   0.81850   0.00000  Uiso   1.00
C649   C     0.28580   0.74899   0.01152   0.00000  Uiso   1.00
C650   C     0.33728   0.75271   0.47721   0.00000  Uiso   1.00
C651   C     0.35337   0.69410   0.43143   0.00000  Uiso   1.00
C652   C     0.37769   0.71857   0.41819   0.00000  Uiso   1.00
C653   C     0.41895   0.72730   0.37947   0.00000  Uiso   1.00
C654   C     0.29667   0.80833   0.43315   0.00000  Uiso   1.00
C655   C     0.27862   0.79648   0.35030   0.00000  Uiso   1.00
C656   C     0.26875   0.86777   0.29994   0.00000  Uiso   1.00
C657   C     0.24696   0.96286   0.19281   0.00000  Uiso   1.00
C658   C     0.32451   0.88689   0.55690   0.00000  Uiso   1.00
C659   C     0.31376   0.83804   0.65785   0.00000  Uiso   1.00
C660   C     0.31163   0.86691   0.77013   0.00000  Uiso   1.00
C661   C     0.30128   0.81266   0.84999   0.00000  Uiso   1.00
C662   C     0.34520   0.83291   0.50863   0.00000  Uiso   1.00
C663   C     0.36950   0.85747   0.49545   0.00000  Uiso   1.00
C664   C     0.38562   0.79891   0.44967   0.00000  Uiso   1.00
C665   C     0.30459   0.88853   0.46457   0.00000  Uiso   1.00
C666   C     0.29475   0.95985   0.41432   0.00000  Uiso   1.00
C667   C     0.27668   0.94812   0.33142   0.00000  Uiso   1.00
H668   H     0.30377   0.67679   0.47457   0.00000  Uiso   1.00
H669   H     0.28937   0.64147   0.68177   0.00000  Uiso   1.00
H670   H     0.34724   0.63205   0.40711   0.00000  Uiso   1.00
H671   H     0.27250   0.73441   0.32600   0.00000  Uiso   1.00
H672   H     0.27691   0.63768   0.92535   0.00000  Uiso   1.00
H673   H     0.39892   0.61781   0.34619   0.00000  Uiso   1.00
H674   H     0.24132   0.83366   0.17514   0.00000  Uiso   1.00
H675   H     0.33068   0.94933   0.58136   0.00000  Uiso   1.00
H676   H     0.31776   0.92897   0.79443   0.00000  Uiso   1.00
H677   H     0.37562   0.91954   0.51977   0.00000  Uiso   1.00
H678   H     0.30088   0.02191   0.43866   0.00000  Uiso   1.00
H679   H     0.29995   0.87102   0.01679   0.00000  Uiso   1.00
H680   H     0.42196   0.85115   0.43762   0.00000  Uiso   1.00
H681   H     0.26435   0.06700   0.26658   0.00000  Uiso   1.00
O682   O     0.27946   0.73603   0.10931   0.00000  Uiso   1.00
O683   O     0.43952   0.70996   0.34945   0.00000  Uiso   1.00
O684   O     0.23275   0.99316   0.12505   0.00000  Uiso   1.00
N685   N     0.28410   0.69540   0.91763   0.00000  Uiso   1.00
N686   N     0.39817   0.67681   0.37616   0.00000  Uiso   1.00
N687   N     0.25083   0.87862   0.21622   0.00000  Uiso   1.00
N688   N     0.29650   0.82096   0.96683   0.00000  Uiso   1.00
N689   N     0.41057   0.80237   0.42536   0.00000  Uiso   1.00
N690   N     0.26323   0.00418   0.26543   0.00000  Uiso   1.00
C691   C     0.30993   0.23923   0.99904   0.00000  Uiso   1.00
C692   C     0.30584   0.25784   0.12642   0.00000  Uiso   1.00
C693   C     0.29550   0.20354   0.20612   0.00000  Uiso   1.00
C694   C     0.29335   0.23231   0.31850   0.00000  Uiso   1.00
C695   C     0.28580   0.24899   0.51152   0.00000  Uiso   1.00
C696   C     0.33728   0.25271   0.97721   0.00000  Uiso   1.00
C697   C     0.35337   0.19410   0.93143   0.00000  Uiso   1.00
C698   C     0.37769   0.21857   0.91819   0.00000  Uiso   1.00
C699   C     0.41895   0.22730   0.87947   0.00000  Uiso   1.00
C700   C     0.29667   0.30833   0.93315   0.00000  Uiso   1.00
C701   C     0.27862   0.29648   0.85030   0.00000  Uiso   1.00
C702   C     0.26875   0.36777   0.79994   0.00000  Uiso   1.00
C703   C     0.24696   0.46286   0.69281   0.00000  Uiso   1.00
C704   C     0.32451   0.38689   0.05690   0.00000  Uiso   1.00
C705   C     0.31376   0.33804   0.15785   0.00000  Uiso   1.00
C706   C     0.31163   0.36691   0.27013   0.00000  Uiso   1.00
C707   C     0.30128   0.31266   0.34999   0.00000  Uiso   1.00
C708   C     0.34520   0.33291   0.00863   0.00000  Uiso   1.00
C709   C     0.36950   0.35747   0.99545   0.00000  Uiso   1.00
C710   C     0.38562   0.29891   0.94967   0.00000  Uiso   1.00
C711   C     0.30459   0.38853   0.96457   0.00000  Uiso   1.00
C712   C     0.29475   0.45985   0.91432   0.00000  Uiso   1.00
C713   C     0.27668   0.44812   0.83142   0.00000  Uiso   1.00
H714   H     0.30377   0.17679   0.97457   0.00000  Uiso   1.00
H715   H     0.28937   0.14147   0.18177   0.00000  Uiso   1.00
H716   H     0.34724   0.13205   0.90711   0.00000  Uiso   1.00
H717   H     0.27250   0.23441   0.82600   0.00000  Uiso   1.00
H718   H     0.27691   0.13768   0.42535   0.00000  Uiso   1.00
H719   H     0.39892   0.11781   0.84619   0.00000  Uiso   1.00
H720   H     0.24132   0.33366   0.67514   0.00000  Uiso   1.00
H721   H     0.33068   0.44933   0.08136   0.00000  Uiso   1.00
H722   H     0.31776   0.42897   0.29443   0.00000  Uiso   1.00
H723   H     0.37562   0.41954   0.01977   0.00000  Uiso   1.00
H724   H     0.30088   0.52191   0.93866   0.00000  Uiso   1.00
H725   H     0.29995   0.37102   0.51679   0.00000  Uiso   1.00
H726   H     0.42196   0.35115   0.93762   0.00000  Uiso   1.00
H727   H     0.26435   0.56700   0.76658   0.00000  Uiso   1.00
O728   O     0.27946   0.23603   0.60931   0.00000  Uiso   1.00
O729   O     0.43952   0.20996   0.84945   0.00000  Uiso   1.00
O730   O     0.23275   0.49316   0.62505   0.00000  Uiso   1.00
N731   N     0.28410   0.19540   0.41763   0.00000  Uiso   1.00
N732   N     0.39817   0.17681   0.87616   0.00000  Uiso   1.00
N733   N     0.25083   0.37862   0.71622   0.00000  Uiso   1.00
N734   N     0.29650   0.32096   0.46683   0.00000  Uiso   1.00
N735   N     0.41057   0.30237   0.92536   0.00000  Uiso   1.00
N736   N     0.26323   0.50418   0.76543   0.00000  Uiso   1.00
