data_job_05729
_audit_creation_date              2018-12-19
_audit_creation_method            'Materials Studio'
_symmetry_space_group_name_H-M    'P1'
_symmetry_Int_Tables_number       1
_symmetry_cell_setting            triclinic
loop_
_symmetry_equiv_pos_as_xyz
  x,y,z
_cell_length_a                    12.0739
_cell_length_b                    30.7645
_cell_length_c                    32.5525
_cell_angle_alpha                 90.0000
_cell_angle_beta                  90.0000
_cell_angle_gamma                 90.0000
loop_
_atom_site_label
_atom_site_type_symbol
_atom_site_fract_x
_atom_site_fract_y
_atom_site_fract_z
_atom_site_U_iso_or_equiv
_atom_site_adp_type
_atom_site_occupancy
C1     C     0.96701   0.09510   0.31413   0.00000  Uiso   1.00
C2     C     0.01999   0.07397   0.35167   0.00000  Uiso   1.00
C3     C     0.09786   0.04079   0.35094   0.00000  Uiso   1.00
C4     C     0.13620   0.02588   0.38860   0.00000  Uiso   1.00
C5     C     0.22423   0.99036   0.44126   0.00000  Uiso   1.00
C6     C     0.84226   0.08997   0.31962   0.00000  Uiso   1.00
C7     C     0.77070   0.07026   0.29194   0.00000  Uiso   1.00
C8     C     0.65943   0.06882   0.30262   0.00000  Uiso   1.00
C9     C     0.47154   0.05818   0.30551   0.00000  Uiso   1.00
C10    C     0.99054   0.14364   0.31782   0.00000  Uiso   1.00
C11    C     0.04362   0.16907   0.28862   0.00000  Uiso   1.00
C12    C     0.05716   0.21283   0.29778   0.00000  Uiso   1.00
C13    C     0.09948   0.28552   0.29787   0.00000  Uiso   1.00
C14    C     0.89663   0.12761   0.38231   0.00000  Uiso   1.00
C15    C     0.98176   0.09162   0.38870   0.00000  Uiso   1.00
C16    C     0.02000   0.07676   0.42637   0.00000  Uiso   1.00
C17    C     0.09791   0.04357   0.42570   0.00000  Uiso   1.00
C18    C     0.80404   0.10762   0.35665   0.00000  Uiso   1.00
C19    C     0.69284   0.10622   0.36737   0.00000  Uiso   1.00
C20    C     0.62114   0.08651   0.33972   0.00000  Uiso   1.00
C21    C     0.95232   0.16130   0.35485   0.00000  Uiso   1.00
C22    C     0.96577   0.20503   0.36405   0.00000  Uiso   1.00
C23    C     0.01887   0.23051   0.33487   0.00000  Uiso   1.00
H24    H     0.99676   0.08136   0.28530   0.00000  Uiso   1.00
H25    H     0.12741   0.02714   0.32228   0.00000  Uiso   1.00
H26    H     0.80031   0.05660   0.26328   0.00000  Uiso   1.00
H27    H     0.07319   0.15539   0.25997   0.00000  Uiso   1.00
H28    H     0.25537   0.97480   0.37960   0.00000  Uiso   1.00
H29    H     0.56565   0.03694   0.25521   0.00000  Uiso   1.00
H30    H     0.14107   0.24526   0.24821   0.00000  Uiso   1.00
H31    H     0.86687   0.14135   0.41114   0.00000  Uiso   1.00
H32    H     0.99040   0.09043   0.45502   0.00000  Uiso   1.00
H33    H     0.66329   0.11989   0.39603   0.00000  Uiso   1.00
H34    H     0.93618   0.21868   0.39271   0.00000  Uiso   1.00
H35    H     0.14416   0.02616   0.48735   0.00000  Uiso   1.00
H36    H     0.45444   0.08831   0.36295   0.00000  Uiso   1.00
H37    H     0.02987   0.29663   0.35595   0.00000  Uiso   1.00
O38    O     0.28334   0.96589   0.46007   0.00000  Uiso   1.00
O39    O     0.37846   0.04742   0.29687   0.00000  Uiso   1.00
O40    O     0.13340   0.32073   0.28769   0.00000  Uiso   1.00
N41    N     0.21226   0.99388   0.39894   0.00000  Uiso   1.00
N42    N     0.56742   0.05197   0.28264   0.00000  Uiso   1.00
N43    N     0.10536   0.24674   0.27609   0.00000  Uiso   1.00
N44    N     0.15242   0.02152   0.45691   0.00000  Uiso   1.00
N45    N     0.50758   0.07961   0.34062   0.00000  Uiso   1.00
N46    N     0.04553   0.27438   0.33407   0.00000  Uiso   1.00
C47    C     0.95852   0.09804   0.18499   0.00000  Uiso   1.00
C48    C     0.90361   0.07794   0.14733   0.00000  Uiso   1.00
C49    C     0.82450   0.04522   0.14782   0.00000  Uiso   1.00
C50    C     0.78446   0.03125   0.11008   0.00000  Uiso   1.00
C51    C     0.69349   0.99726   0.05721   0.00000  Uiso   1.00
C52    C     0.08288   0.09229   0.17889   0.00000  Uiso   1.00
C53    C     0.15450   0.07163   0.20592   0.00000  Uiso   1.00
C54    C     0.26538   0.06975   0.19475   0.00000  Uiso   1.00
C55    C     0.45274   0.05806   0.19089   0.00000  Uiso   1.00
C56    C     0.93675   0.14678   0.18222   0.00000  Uiso   1.00
C57    C     0.88553   0.17195   0.21207   0.00000  Uiso   1.00
C58    C     0.87340   0.21595   0.20371   0.00000  Uiso   1.00
C59    C     0.83388   0.28887   0.20503   0.00000  Uiso   1.00
C60    C     0.02808   0.13143   0.11708   0.00000  Uiso   1.00
C61    C     0.94139   0.09607   0.11044   0.00000  Uiso   1.00
C62    C     0.90146   0.08216   0.07269   0.00000  Uiso   1.00
C63    C     0.82230   0.04942   0.07313   0.00000  Uiso   1.00
C64    C     0.12066   0.11042   0.14200   0.00000  Uiso   1.00
C65    C     0.23146   0.10857   0.13079   0.00000  Uiso   1.00
C66    C     0.30323   0.08792   0.15780   0.00000  Uiso   1.00
C67    C     0.97453   0.16491   0.14534   0.00000  Uiso   1.00
C68    C     0.96249   0.20888   0.13693   0.00000  Uiso   1.00
C69    C     0.91126   0.23411   0.16676   0.00000  Uiso   1.00
H70    H     0.92911   0.08392   0.21371   0.00000  Uiso   1.00
H71    H     0.79529   0.03119   0.17638   0.00000  Uiso   1.00
H72    H     0.12524   0.05761   0.23447   0.00000  Uiso   1.00
H73    H     0.85631   0.15790   0.24061   0.00000  Uiso   1.00
H74    H     0.66361   0.98071   0.11872   0.00000  Uiso   1.00
H75    H     0.35934   0.03642   0.24121   0.00000  Uiso   1.00
H76    H     0.79224   0.24792   0.25417   0.00000  Uiso   1.00
H77    H     0.05750   0.14555   0.08836   0.00000  Uiso   1.00
H78    H     0.93071   0.09620   0.04415   0.00000  Uiso   1.00
H79    H     0.26067   0.12261   0.10224   0.00000  Uiso   1.00
H80    H     0.99174   0.22291   0.10839   0.00000  Uiso   1.00
H81    H     0.77353   0.03347   0.01140   0.00000  Uiso   1.00
H82    H     0.46926   0.08918   0.13389   0.00000  Uiso   1.00
H83    H     0.90217   0.30068   0.14685   0.00000  Uiso   1.00
O84    O     0.63288   0.97350   0.03823   0.00000  Uiso   1.00
O85    O     0.54565   0.04660   0.19895   0.00000  Uiso   1.00
O86    O     0.80163   0.32408   0.21595   0.00000  Uiso   1.00
N87    N     0.70687   0.99991   0.09953   0.00000  Uiso   1.00
N88    N     0.35733   0.05199   0.21405   0.00000  Uiso   1.00
N89    N     0.82717   0.24972   0.22617   0.00000  Uiso   1.00
N90    N     0.76601   0.02830   0.04178   0.00000  Uiso   1.00
N91    N     0.41647   0.08038   0.15630   0.00000  Uiso   1.00
N92    N     0.88631   0.27811   0.16842   0.00000  Uiso   1.00
C93    C     0.96701   0.59510   0.81413   0.00000  Uiso   1.00
C94    C     0.01999   0.57397   0.85167   0.00000  Uiso   1.00
C95    C     0.09786   0.54079   0.85094   0.00000  Uiso   1.00
C96    C     0.13620   0.52588   0.88860   0.00000  Uiso   1.00
C97    C     0.22423   0.49036   0.94126   0.00000  Uiso   1.00
C98    C     0.84226   0.58997   0.81962   0.00000  Uiso   1.00
C99    C     0.77070   0.57026   0.79194   0.00000  Uiso   1.00
C100   C     0.65943   0.56882   0.80262   0.00000  Uiso   1.00
C101   C     0.47154   0.55818   0.80551   0.00000  Uiso   1.00
C102   C     0.99054   0.64364   0.81782   0.00000  Uiso   1.00
C103   C     0.04362   0.66907   0.78862   0.00000  Uiso   1.00
C104   C     0.05716   0.71283   0.79778   0.00000  Uiso   1.00
C105   C     0.09948   0.78552   0.79787   0.00000  Uiso   1.00
C106   C     0.89663   0.62761   0.88231   0.00000  Uiso   1.00
C107   C     0.98176   0.59162   0.88870   0.00000  Uiso   1.00
C108   C     0.02000   0.57676   0.92637   0.00000  Uiso   1.00
C109   C     0.09791   0.54357   0.92570   0.00000  Uiso   1.00
C110   C     0.80404   0.60762   0.85665   0.00000  Uiso   1.00
C111   C     0.69284   0.60622   0.86737   0.00000  Uiso   1.00
C112   C     0.62114   0.58651   0.83972   0.00000  Uiso   1.00
C113   C     0.95232   0.66130   0.85485   0.00000  Uiso   1.00
C114   C     0.96577   0.70503   0.86405   0.00000  Uiso   1.00
C115   C     0.01887   0.73051   0.83487   0.00000  Uiso   1.00
H116   H     0.99676   0.58136   0.78530   0.00000  Uiso   1.00
H117   H     0.12741   0.52714   0.82228   0.00000  Uiso   1.00
H118   H     0.80031   0.55660   0.76328   0.00000  Uiso   1.00
H119   H     0.07319   0.65539   0.75997   0.00000  Uiso   1.00
H120   H     0.25537   0.47480   0.87960   0.00000  Uiso   1.00
H121   H     0.56565   0.53694   0.75521   0.00000  Uiso   1.00
H122   H     0.14107   0.74526   0.74821   0.00000  Uiso   1.00
H123   H     0.86687   0.64135   0.91114   0.00000  Uiso   1.00
H124   H     0.99040   0.59043   0.95502   0.00000  Uiso   1.00
H125   H     0.66329   0.61989   0.89603   0.00000  Uiso   1.00
H126   H     0.93618   0.71868   0.89271   0.00000  Uiso   1.00
H127   H     0.14416   0.52616   0.98735   0.00000  Uiso   1.00
H128   H     0.45444   0.58831   0.86295   0.00000  Uiso   1.00
H129   H     0.02987   0.79663   0.85595   0.00000  Uiso   1.00
O130   O     0.28334   0.46589   0.96007   0.00000  Uiso   1.00
O131   O     0.37846   0.54742   0.79687   0.00000  Uiso   1.00
O132   O     0.13340   0.82073   0.78769   0.00000  Uiso   1.00
N133   N     0.21226   0.49388   0.89894   0.00000  Uiso   1.00
N134   N     0.56742   0.55197   0.78264   0.00000  Uiso   1.00
N135   N     0.10536   0.74674   0.77609   0.00000  Uiso   1.00
N136   N     0.15242   0.52152   0.95691   0.00000  Uiso   1.00
N137   N     0.50758   0.57961   0.84062   0.00000  Uiso   1.00
N138   N     0.04553   0.77438   0.83407   0.00000  Uiso   1.00
C139   C     0.95852   0.59804   0.68499   0.00000  Uiso   1.00
C140   C     0.90361   0.57794   0.64733   0.00000  Uiso   1.00
C141   C     0.82450   0.54522   0.64782   0.00000  Uiso   1.00
C142   C     0.78446   0.53125   0.61008   0.00000  Uiso   1.00
C143   C     0.69349   0.49726   0.55721   0.00000  Uiso   1.00
C144   C     0.08288   0.59229   0.67889   0.00000  Uiso   1.00
C145   C     0.15450   0.57163   0.70592   0.00000  Uiso   1.00
C146   C     0.26538   0.56975   0.69475   0.00000  Uiso   1.00
C147   C     0.45274   0.55806   0.69089   0.00000  Uiso   1.00
C148   C     0.93675   0.64678   0.68222   0.00000  Uiso   1.00
C149   C     0.88553   0.67195   0.71207   0.00000  Uiso   1.00
C150   C     0.87340   0.71595   0.70371   0.00000  Uiso   1.00
C151   C     0.83388   0.78887   0.70503   0.00000  Uiso   1.00
C152   C     0.02808   0.63143   0.61708   0.00000  Uiso   1.00
C153   C     0.94139   0.59607   0.61044   0.00000  Uiso   1.00
C154   C     0.90146   0.58216   0.57269   0.00000  Uiso   1.00
C155   C     0.82230   0.54942   0.57313   0.00000  Uiso   1.00
C156   C     0.12066   0.61042   0.64200   0.00000  Uiso   1.00
C157   C     0.23146   0.60857   0.63079   0.00000  Uiso   1.00
C158   C     0.30323   0.58792   0.65780   0.00000  Uiso   1.00
C159   C     0.97453   0.66491   0.64534   0.00000  Uiso   1.00
C160   C     0.96249   0.70888   0.63693   0.00000  Uiso   1.00
C161   C     0.91126   0.73411   0.66676   0.00000  Uiso   1.00
H162   H     0.92911   0.58392   0.71371   0.00000  Uiso   1.00
H163   H     0.79529   0.53119   0.67638   0.00000  Uiso   1.00
H164   H     0.12524   0.55761   0.73447   0.00000  Uiso   1.00
H165   H     0.85631   0.65790   0.74061   0.00000  Uiso   1.00
H166   H     0.66361   0.48071   0.61872   0.00000  Uiso   1.00
H167   H     0.35934   0.53642   0.74121   0.00000  Uiso   1.00
H168   H     0.79224   0.74792   0.75417   0.00000  Uiso   1.00
H169   H     0.05750   0.64555   0.58836   0.00000  Uiso   1.00
H170   H     0.93071   0.59620   0.54415   0.00000  Uiso   1.00
H171   H     0.26067   0.62261   0.60224   0.00000  Uiso   1.00
H172   H     0.99174   0.72291   0.60839   0.00000  Uiso   1.00
H173   H     0.77353   0.53347   0.51140   0.00000  Uiso   1.00
H174   H     0.46926   0.58918   0.63389   0.00000  Uiso   1.00
H175   H     0.90217   0.80068   0.64685   0.00000  Uiso   1.00
O176   O     0.63288   0.47350   0.53823   0.00000  Uiso   1.00
O177   O     0.54565   0.54660   0.69895   0.00000  Uiso   1.00
O178   O     0.80163   0.82408   0.71595   0.00000  Uiso   1.00
N179   N     0.70687   0.49991   0.59953   0.00000  Uiso   1.00
N180   N     0.35733   0.55199   0.71405   0.00000  Uiso   1.00
N181   N     0.82717   0.74972   0.72617   0.00000  Uiso   1.00
N182   N     0.76601   0.52830   0.54178   0.00000  Uiso   1.00
N183   N     0.41647   0.58038   0.65630   0.00000  Uiso   1.00
N184   N     0.88631   0.77811   0.66842   0.00000  Uiso   1.00
C185   C     0.03299   0.90490   0.31413   0.00000  Uiso   1.00
C186   C     0.98001   0.92603   0.35167   0.00000  Uiso   1.00
C187   C     0.90214   0.95921   0.35094   0.00000  Uiso   1.00
C188   C     0.86380   0.97412   0.38860   0.00000  Uiso   1.00
C189   C     0.77577   0.00964   0.44126   0.00000  Uiso   1.00
C190   C     0.15774   0.91003   0.31962   0.00000  Uiso   1.00
C191   C     0.22930   0.92974   0.29194   0.00000  Uiso   1.00
C192   C     0.34057   0.93118   0.30262   0.00000  Uiso   1.00
C193   C     0.52846   0.94182   0.30551   0.00000  Uiso   1.00
C194   C     0.00946   0.85636   0.31782   0.00000  Uiso   1.00
C195   C     0.95638   0.83093   0.28862   0.00000  Uiso   1.00
C196   C     0.94284   0.78717   0.29778   0.00000  Uiso   1.00
C197   C     0.90052   0.71448   0.29787   0.00000  Uiso   1.00
C198   C     0.10337   0.87239   0.38231   0.00000  Uiso   1.00
C199   C     0.01824   0.90838   0.38870   0.00000  Uiso   1.00
C200   C     0.98000   0.92324   0.42637   0.00000  Uiso   1.00
C201   C     0.90209   0.95643   0.42570   0.00000  Uiso   1.00
C202   C     0.19596   0.89238   0.35665   0.00000  Uiso   1.00
C203   C     0.30716   0.89378   0.36737   0.00000  Uiso   1.00
C204   C     0.37886   0.91349   0.33972   0.00000  Uiso   1.00
C205   C     0.04768   0.83870   0.35485   0.00000  Uiso   1.00
C206   C     0.03423   0.79497   0.36405   0.00000  Uiso   1.00
C207   C     0.98113   0.76949   0.33487   0.00000  Uiso   1.00
H208   H     0.00324   0.91864   0.28530   0.00000  Uiso   1.00
H209   H     0.87259   0.97286   0.32228   0.00000  Uiso   1.00
H210   H     0.19969   0.94340   0.26328   0.00000  Uiso   1.00
H211   H     0.92681   0.84461   0.25997   0.00000  Uiso   1.00
H212   H     0.74463   0.02520   0.37960   0.00000  Uiso   1.00
H213   H     0.43435   0.96306   0.25521   0.00000  Uiso   1.00
H214   H     0.85893   0.75474   0.24821   0.00000  Uiso   1.00
H215   H     0.13313   0.85865   0.41114   0.00000  Uiso   1.00
H216   H     0.00960   0.90957   0.45502   0.00000  Uiso   1.00
H217   H     0.33671   0.88011   0.39603   0.00000  Uiso   1.00
H218   H     0.06382   0.78132   0.39271   0.00000  Uiso   1.00
H219   H     0.85584   0.97384   0.48735   0.00000  Uiso   1.00
H220   H     0.54556   0.91169   0.36295   0.00000  Uiso   1.00
H221   H     0.97013   0.70337   0.35595   0.00000  Uiso   1.00
O222   O     0.71666   0.03411   0.46007   0.00000  Uiso   1.00
O223   O     0.62154   0.95258   0.29687   0.00000  Uiso   1.00
O224   O     0.86660   0.67927   0.28769   0.00000  Uiso   1.00
N225   N     0.78774   0.00612   0.39894   0.00000  Uiso   1.00
N226   N     0.43258   0.94803   0.28264   0.00000  Uiso   1.00
N227   N     0.89464   0.75326   0.27609   0.00000  Uiso   1.00
N228   N     0.84758   0.97848   0.45691   0.00000  Uiso   1.00
N229   N     0.49242   0.92039   0.34062   0.00000  Uiso   1.00
N230   N     0.95447   0.72562   0.33407   0.00000  Uiso   1.00
C231   C     0.04148   0.90196   0.18499   0.00000  Uiso   1.00
C232   C     0.09639   0.92206   0.14733   0.00000  Uiso   1.00
C233   C     0.17550   0.95478   0.14782   0.00000  Uiso   1.00
C234   C     0.21554   0.96875   0.11008   0.00000  Uiso   1.00
C235   C     0.30651   0.00274   0.05721   0.00000  Uiso   1.00
C236   C     0.91712   0.90771   0.17889   0.00000  Uiso   1.00
C237   C     0.84550   0.92837   0.20592   0.00000  Uiso   1.00
C238   C     0.73462   0.93025   0.19475   0.00000  Uiso   1.00
C239   C     0.54726   0.94194   0.19089   0.00000  Uiso   1.00
C240   C     0.06325   0.85322   0.18222   0.00000  Uiso   1.00
C241   C     0.11447   0.82805   0.21207   0.00000  Uiso   1.00
C242   C     0.12660   0.78405   0.20371   0.00000  Uiso   1.00
C243   C     0.16612   0.71113   0.20503   0.00000  Uiso   1.00
C244   C     0.97192   0.86857   0.11708   0.00000  Uiso   1.00
C245   C     0.05861   0.90393   0.11044   0.00000  Uiso   1.00
C246   C     0.09854   0.91784   0.07269   0.00000  Uiso   1.00
C247   C     0.17770   0.95058   0.07313   0.00000  Uiso   1.00
C248   C     0.87934   0.88958   0.14200   0.00000  Uiso   1.00
C249   C     0.76854   0.89143   0.13079   0.00000  Uiso   1.00
C250   C     0.69677   0.91208   0.15780   0.00000  Uiso   1.00
C251   C     0.02547   0.83509   0.14534   0.00000  Uiso   1.00
C252   C     0.03751   0.79112   0.13693   0.00000  Uiso   1.00
C253   C     0.08874   0.76589   0.16676   0.00000  Uiso   1.00
H254   H     0.07089   0.91608   0.21371   0.00000  Uiso   1.00
H255   H     0.20471   0.96881   0.17638   0.00000  Uiso   1.00
H256   H     0.87476   0.94239   0.23447   0.00000  Uiso   1.00
H257   H     0.14369   0.84210   0.24061   0.00000  Uiso   1.00
H258   H     0.33639   0.01929   0.11872   0.00000  Uiso   1.00
H259   H     0.64066   0.96358   0.24121   0.00000  Uiso   1.00
H260   H     0.20776   0.75208   0.25417   0.00000  Uiso   1.00
H261   H     0.94250   0.85445   0.08836   0.00000  Uiso   1.00
H262   H     0.06929   0.90380   0.04415   0.00000  Uiso   1.00
H263   H     0.73933   0.87739   0.10224   0.00000  Uiso   1.00
H264   H     0.00826   0.77709   0.10839   0.00000  Uiso   1.00
H265   H     0.22647   0.96653   0.01140   0.00000  Uiso   1.00
H266   H     0.53074   0.91082   0.13389   0.00000  Uiso   1.00
H267   H     0.09783   0.69932   0.14685   0.00000  Uiso   1.00
O268   O     0.36712   0.02650   0.03823   0.00000  Uiso   1.00
O269   O     0.45435   0.95340   0.19895   0.00000  Uiso   1.00
O270   O     0.19837   0.67592   0.21595   0.00000  Uiso   1.00
N271   N     0.29313   0.00009   0.09953   0.00000  Uiso   1.00
N272   N     0.64267   0.94801   0.21405   0.00000  Uiso   1.00
N273   N     0.17283   0.75028   0.22617   0.00000  Uiso   1.00
N274   N     0.23399   0.97170   0.04178   0.00000  Uiso   1.00
N275   N     0.58353   0.91962   0.15630   0.00000  Uiso   1.00
N276   N     0.11369   0.72189   0.16842   0.00000  Uiso   1.00
C277   C     0.03299   0.40490   0.81413   0.00000  Uiso   1.00
C278   C     0.98001   0.42603   0.85167   0.00000  Uiso   1.00
C279   C     0.90214   0.45921   0.85094   0.00000  Uiso   1.00
C280   C     0.86380   0.47412   0.88860   0.00000  Uiso   1.00
C281   C     0.77577   0.50964   0.94126   0.00000  Uiso   1.00
C282   C     0.15774   0.41003   0.81962   0.00000  Uiso   1.00
C283   C     0.22930   0.42974   0.79194   0.00000  Uiso   1.00
C284   C     0.34057   0.43118   0.80262   0.00000  Uiso   1.00
C285   C     0.52846   0.44182   0.80551   0.00000  Uiso   1.00
C286   C     0.00946   0.35636   0.81782   0.00000  Uiso   1.00
C287   C     0.95638   0.33093   0.78862   0.00000  Uiso   1.00
C288   C     0.94284   0.28717   0.79778   0.00000  Uiso   1.00
C289   C     0.90052   0.21448   0.79787   0.00000  Uiso   1.00
C290   C     0.10337   0.37239   0.88231   0.00000  Uiso   1.00
C291   C     0.01824   0.40838   0.88870   0.00000  Uiso   1.00
C292   C     0.98000   0.42324   0.92637   0.00000  Uiso   1.00
C293   C     0.90209   0.45643   0.92570   0.00000  Uiso   1.00
C294   C     0.19596   0.39238   0.85665   0.00000  Uiso   1.00
C295   C     0.30716   0.39378   0.86737   0.00000  Uiso   1.00
C296   C     0.37886   0.41349   0.83972   0.00000  Uiso   1.00
C297   C     0.04768   0.33870   0.85485   0.00000  Uiso   1.00
C298   C     0.03423   0.29497   0.86405   0.00000  Uiso   1.00
C299   C     0.98113   0.26949   0.83487   0.00000  Uiso   1.00
H300   H     0.00324   0.41864   0.78530   0.00000  Uiso   1.00
H301   H     0.87259   0.47286   0.82228   0.00000  Uiso   1.00
H302   H     0.19969   0.44340   0.76328   0.00000  Uiso   1.00
H303   H     0.92681   0.34461   0.75997   0.00000  Uiso   1.00
H304   H     0.74463   0.52520   0.87960   0.00000  Uiso   1.00
H305   H     0.43435   0.46306   0.75521   0.00000  Uiso   1.00
H306   H     0.85893   0.25474   0.74821   0.00000  Uiso   1.00
H307   H     0.13313   0.35865   0.91114   0.00000  Uiso   1.00
H308   H     0.00960   0.40957   0.95502   0.00000  Uiso   1.00
H309   H     0.33671   0.38011   0.89603   0.00000  Uiso   1.00
H310   H     0.06382   0.28132   0.89271   0.00000  Uiso   1.00
H311   H     0.85584   0.47384   0.98735   0.00000  Uiso   1.00
H312   H     0.54556   0.41169   0.86295   0.00000  Uiso   1.00
H313   H     0.97013   0.20337   0.85595   0.00000  Uiso   1.00
O314   O     0.71666   0.53411   0.96007   0.00000  Uiso   1.00
O315   O     0.62154   0.45258   0.79687   0.00000  Uiso   1.00
O316   O     0.86660   0.17927   0.78769   0.00000  Uiso   1.00
N317   N     0.78774   0.50612   0.89894   0.00000  Uiso   1.00
N318   N     0.43258   0.44803   0.78264   0.00000  Uiso   1.00
N319   N     0.89464   0.25326   0.77609   0.00000  Uiso   1.00
N320   N     0.84758   0.47848   0.95691   0.00000  Uiso   1.00
N321   N     0.49242   0.42039   0.84062   0.00000  Uiso   1.00
N322   N     0.95447   0.22562   0.83407   0.00000  Uiso   1.00
C323   C     0.04148   0.40196   0.68499   0.00000  Uiso   1.00
C324   C     0.09639   0.42206   0.64733   0.00000  Uiso   1.00
C325   C     0.17550   0.45478   0.64782   0.00000  Uiso   1.00
C326   C     0.21554   0.46875   0.61008   0.00000  Uiso   1.00
C327   C     0.30651   0.50274   0.55721   0.00000  Uiso   1.00
C328   C     0.91712   0.40771   0.67889   0.00000  Uiso   1.00
C329   C     0.84550   0.42837   0.70592   0.00000  Uiso   1.00
C330   C     0.73462   0.43025   0.69475   0.00000  Uiso   1.00
C331   C     0.54726   0.44194   0.69089   0.00000  Uiso   1.00
C332   C     0.06325   0.35322   0.68222   0.00000  Uiso   1.00
C333   C     0.11447   0.32805   0.71207   0.00000  Uiso   1.00
C334   C     0.12660   0.28405   0.70371   0.00000  Uiso   1.00
C335   C     0.16612   0.21113   0.70503   0.00000  Uiso   1.00
C336   C     0.97192   0.36857   0.61708   0.00000  Uiso   1.00
C337   C     0.05861   0.40393   0.61044   0.00000  Uiso   1.00
C338   C     0.09854   0.41784   0.57269   0.00000  Uiso   1.00
C339   C     0.17770   0.45058   0.57313   0.00000  Uiso   1.00
C340   C     0.87934   0.38958   0.64200   0.00000  Uiso   1.00
C341   C     0.76854   0.39143   0.63079   0.00000  Uiso   1.00
C342   C     0.69677   0.41208   0.65780   0.00000  Uiso   1.00
C343   C     0.02547   0.33509   0.64534   0.00000  Uiso   1.00
C344   C     0.03751   0.29112   0.63693   0.00000  Uiso   1.00
C345   C     0.08874   0.26589   0.66676   0.00000  Uiso   1.00
H346   H     0.07089   0.41608   0.71371   0.00000  Uiso   1.00
H347   H     0.20471   0.46881   0.67638   0.00000  Uiso   1.00
H348   H     0.87476   0.44239   0.73447   0.00000  Uiso   1.00
H349   H     0.14369   0.34210   0.74061   0.00000  Uiso   1.00
H350   H     0.33639   0.51929   0.61872   0.00000  Uiso   1.00
H351   H     0.64066   0.46358   0.74121   0.00000  Uiso   1.00
H352   H     0.20776   0.25208   0.75417   0.00000  Uiso   1.00
H353   H     0.94250   0.35445   0.58836   0.00000  Uiso   1.00
H354   H     0.06929   0.40380   0.54415   0.00000  Uiso   1.00
H355   H     0.73933   0.37739   0.60224   0.00000  Uiso   1.00
H356   H     0.00826   0.27709   0.60839   0.00000  Uiso   1.00
H357   H     0.22647   0.46653   0.51140   0.00000  Uiso   1.00
H358   H     0.53074   0.41082   0.63389   0.00000  Uiso   1.00
H359   H     0.09783   0.19932   0.64685   0.00000  Uiso   1.00
O360   O     0.36712   0.52650   0.53823   0.00000  Uiso   1.00
O361   O     0.45435   0.45340   0.69895   0.00000  Uiso   1.00
O362   O     0.19837   0.17592   0.71595   0.00000  Uiso   1.00
N363   N     0.29313   0.50009   0.59953   0.00000  Uiso   1.00
N364   N     0.64267   0.44801   0.71405   0.00000  Uiso   1.00
N365   N     0.17283   0.25028   0.72617   0.00000  Uiso   1.00
N366   N     0.23399   0.47170   0.54178   0.00000  Uiso   1.00
N367   N     0.58353   0.41962   0.65630   0.00000  Uiso   1.00
N368   N     0.11369   0.22189   0.66842   0.00000  Uiso   1.00
C369   C     0.46701   0.40490   0.31413   0.00000  Uiso   1.00
C370   C     0.51999   0.42603   0.35167   0.00000  Uiso   1.00
C371   C     0.59786   0.45921   0.35094   0.00000  Uiso   1.00
C372   C     0.63620   0.47412   0.38860   0.00000  Uiso   1.00
C373   C     0.72423   0.50964   0.44126   0.00000  Uiso   1.00
C374   C     0.34226   0.41003   0.31962   0.00000  Uiso   1.00
C375   C     0.27070   0.42974   0.29194   0.00000  Uiso   1.00
C376   C     0.15943   0.43118   0.30262   0.00000  Uiso   1.00
C377   C     0.97154   0.44182   0.30551   0.00000  Uiso   1.00
C378   C     0.49054   0.35636   0.31782   0.00000  Uiso   1.00
C379   C     0.54362   0.33093   0.28862   0.00000  Uiso   1.00
C380   C     0.55716   0.28717   0.29778   0.00000  Uiso   1.00
C381   C     0.59948   0.21448   0.29787   0.00000  Uiso   1.00
C382   C     0.39663   0.37239   0.38231   0.00000  Uiso   1.00
C383   C     0.48176   0.40838   0.38870   0.00000  Uiso   1.00
C384   C     0.52000   0.42324   0.42637   0.00000  Uiso   1.00
C385   C     0.59791   0.45643   0.42570   0.00000  Uiso   1.00
C386   C     0.30404   0.39238   0.35665   0.00000  Uiso   1.00
C387   C     0.19284   0.39378   0.36737   0.00000  Uiso   1.00
C388   C     0.12114   0.41349   0.33972   0.00000  Uiso   1.00
C389   C     0.45232   0.33870   0.35485   0.00000  Uiso   1.00
C390   C     0.46577   0.29497   0.36405   0.00000  Uiso   1.00
C391   C     0.51887   0.26949   0.33487   0.00000  Uiso   1.00
H392   H     0.49676   0.41864   0.28530   0.00000  Uiso   1.00
H393   H     0.62741   0.47286   0.32228   0.00000  Uiso   1.00
H394   H     0.30031   0.44340   0.26328   0.00000  Uiso   1.00
H395   H     0.57319   0.34461   0.25997   0.00000  Uiso   1.00
H396   H     0.75537   0.52520   0.37960   0.00000  Uiso   1.00
H397   H     0.06565   0.46306   0.25521   0.00000  Uiso   1.00
H398   H     0.64107   0.25474   0.24821   0.00000  Uiso   1.00
H399   H     0.36687   0.35865   0.41114   0.00000  Uiso   1.00
H400   H     0.49040   0.40957   0.45502   0.00000  Uiso   1.00
H401   H     0.16329   0.38011   0.39603   0.00000  Uiso   1.00
H402   H     0.43618   0.28132   0.39271   0.00000  Uiso   1.00
H403   H     0.64416   0.47384   0.48735   0.00000  Uiso   1.00
H404   H     0.95444   0.41169   0.36295   0.00000  Uiso   1.00
H405   H     0.52987   0.20337   0.35595   0.00000  Uiso   1.00
O406   O     0.78334   0.53411   0.46007   0.00000  Uiso   1.00
O407   O     0.87846   0.45258   0.29687   0.00000  Uiso   1.00
O408   O     0.63340   0.17927   0.28769   0.00000  Uiso   1.00
N409   N     0.71226   0.50612   0.39894   0.00000  Uiso   1.00
N410   N     0.06742   0.44803   0.28264   0.00000  Uiso   1.00
N411   N     0.60536   0.25326   0.27609   0.00000  Uiso   1.00
N412   N     0.65242   0.47848   0.45691   0.00000  Uiso   1.00
N413   N     0.00758   0.42039   0.34062   0.00000  Uiso   1.00
N414   N     0.54553   0.22562   0.33407   0.00000  Uiso   1.00
C415   C     0.45852   0.40196   0.18499   0.00000  Uiso   1.00
C416   C     0.40361   0.42206   0.14733   0.00000  Uiso   1.00
C417   C     0.32450   0.45478   0.14782   0.00000  Uiso   1.00
C418   C     0.28446   0.46875   0.11008   0.00000  Uiso   1.00
C419   C     0.19349   0.50274   0.05721   0.00000  Uiso   1.00
C420   C     0.58288   0.40771   0.17889   0.00000  Uiso   1.00
C421   C     0.65450   0.42837   0.20592   0.00000  Uiso   1.00
C422   C     0.76538   0.43025   0.19475   0.00000  Uiso   1.00
C423   C     0.95274   0.44194   0.19089   0.00000  Uiso   1.00
C424   C     0.43675   0.35322   0.18222   0.00000  Uiso   1.00
C425   C     0.38553   0.32805   0.21207   0.00000  Uiso   1.00
C426   C     0.37340   0.28405   0.20371   0.00000  Uiso   1.00
C427   C     0.33388   0.21113   0.20503   0.00000  Uiso   1.00
C428   C     0.52808   0.36857   0.11708   0.00000  Uiso   1.00
C429   C     0.44139   0.40393   0.11044   0.00000  Uiso   1.00
C430   C     0.40146   0.41784   0.07269   0.00000  Uiso   1.00
C431   C     0.32230   0.45058   0.07313   0.00000  Uiso   1.00
C432   C     0.62066   0.38958   0.14200   0.00000  Uiso   1.00
C433   C     0.73146   0.39143   0.13079   0.00000  Uiso   1.00
C434   C     0.80323   0.41208   0.15780   0.00000  Uiso   1.00
C435   C     0.47453   0.33509   0.14534   0.00000  Uiso   1.00
C436   C     0.46249   0.29112   0.13693   0.00000  Uiso   1.00
C437   C     0.41126   0.26589   0.16676   0.00000  Uiso   1.00
H438   H     0.42911   0.41608   0.21371   0.00000  Uiso   1.00
H439   H     0.29529   0.46881   0.17638   0.00000  Uiso   1.00
H440   H     0.62524   0.44239   0.23447   0.00000  Uiso   1.00
H441   H     0.35631   0.34210   0.24061   0.00000  Uiso   1.00
H442   H     0.16361   0.51929   0.11872   0.00000  Uiso   1.00
H443   H     0.85934   0.46358   0.24121   0.00000  Uiso   1.00
H444   H     0.29224   0.25208   0.25417   0.00000  Uiso   1.00
H445   H     0.55750   0.35445   0.08836   0.00000  Uiso   1.00
H446   H     0.43071   0.40380   0.04415   0.00000  Uiso   1.00
H447   H     0.76067   0.37739   0.10224   0.00000  Uiso   1.00
H448   H     0.49174   0.27709   0.10839   0.00000  Uiso   1.00
H449   H     0.27353   0.46653   0.01140   0.00000  Uiso   1.00
H450   H     0.96926   0.41082   0.13389   0.00000  Uiso   1.00
H451   H     0.40217   0.19932   0.14685   0.00000  Uiso   1.00
O452   O     0.13288   0.52650   0.03823   0.00000  Uiso   1.00
O453   O     0.04565   0.45340   0.19895   0.00000  Uiso   1.00
O454   O     0.30163   0.17592   0.21595   0.00000  Uiso   1.00
N455   N     0.20687   0.50009   0.09953   0.00000  Uiso   1.00
N456   N     0.85733   0.44801   0.21405   0.00000  Uiso   1.00
N457   N     0.32717   0.25028   0.22617   0.00000  Uiso   1.00
N458   N     0.26601   0.47170   0.04178   0.00000  Uiso   1.00
N459   N     0.91647   0.41962   0.15630   0.00000  Uiso   1.00
N460   N     0.38631   0.22189   0.16842   0.00000  Uiso   1.00
C461   C     0.46701   0.90490   0.81413   0.00000  Uiso   1.00
C462   C     0.51999   0.92603   0.85167   0.00000  Uiso   1.00
C463   C     0.59786   0.95921   0.85094   0.00000  Uiso   1.00
C464   C     0.63620   0.97412   0.88860   0.00000  Uiso   1.00
C465   C     0.72423   0.00964   0.94126   0.00000  Uiso   1.00
C466   C     0.34226   0.91003   0.81962   0.00000  Uiso   1.00
C467   C     0.27070   0.92974   0.79194   0.00000  Uiso   1.00
C468   C     0.15943   0.93118   0.80262   0.00000  Uiso   1.00
C469   C     0.97154   0.94182   0.80551   0.00000  Uiso   1.00
C470   C     0.49054   0.85636   0.81782   0.00000  Uiso   1.00
C471   C     0.54362   0.83093   0.78862   0.00000  Uiso   1.00
C472   C     0.55716   0.78717   0.79778   0.00000  Uiso   1.00
C473   C     0.59948   0.71448   0.79787   0.00000  Uiso   1.00
C474   C     0.39663   0.87239   0.88231   0.00000  Uiso   1.00
C475   C     0.48176   0.90838   0.88870   0.00000  Uiso   1.00
C476   C     0.52000   0.92324   0.92637   0.00000  Uiso   1.00
C477   C     0.59791   0.95643   0.92570   0.00000  Uiso   1.00
C478   C     0.30404   0.89238   0.85665   0.00000  Uiso   1.00
C479   C     0.19284   0.89378   0.86737   0.00000  Uiso   1.00
C480   C     0.12114   0.91349   0.83972   0.00000  Uiso   1.00
C481   C     0.45232   0.83870   0.85485   0.00000  Uiso   1.00
C482   C     0.46577   0.79497   0.86405   0.00000  Uiso   1.00
C483   C     0.51887   0.76949   0.83487   0.00000  Uiso   1.00
H484   H     0.49676   0.91864   0.78530   0.00000  Uiso   1.00
H485   H     0.62741   0.97286   0.82228   0.00000  Uiso   1.00
H486   H     0.30031   0.94340   0.76328   0.00000  Uiso   1.00
H487   H     0.57319   0.84461   0.75997   0.00000  Uiso   1.00
H488   H     0.75537   0.02520   0.87960   0.00000  Uiso   1.00
H489   H     0.06565   0.96306   0.75521   0.00000  Uiso   1.00
H490   H     0.64107   0.75474   0.74821   0.00000  Uiso   1.00
H491   H     0.36687   0.85865   0.91114   0.00000  Uiso   1.00
H492   H     0.49040   0.90957   0.95502   0.00000  Uiso   1.00
H493   H     0.16329   0.88011   0.89603   0.00000  Uiso   1.00
H494   H     0.43618   0.78132   0.89271   0.00000  Uiso   1.00
H495   H     0.64416   0.97384   0.98735   0.00000  Uiso   1.00
H496   H     0.95444   0.91169   0.86295   0.00000  Uiso   1.00
H497   H     0.52987   0.70337   0.85595   0.00000  Uiso   1.00
O498   O     0.78334   0.03411   0.96007   0.00000  Uiso   1.00
O499   O     0.87846   0.95258   0.79687   0.00000  Uiso   1.00
O500   O     0.63340   0.67927   0.78769   0.00000  Uiso   1.00
N501   N     0.71226   0.00612   0.89894   0.00000  Uiso   1.00
N502   N     0.06742   0.94803   0.78264   0.00000  Uiso   1.00
N503   N     0.60536   0.75326   0.77609   0.00000  Uiso   1.00
N504   N     0.65242   0.97848   0.95691   0.00000  Uiso   1.00
N505   N     0.00758   0.92039   0.84062   0.00000  Uiso   1.00
N506   N     0.54553   0.72562   0.83407   0.00000  Uiso   1.00
C507   C     0.45852   0.90196   0.68499   0.00000  Uiso   1.00
C508   C     0.40361   0.92206   0.64733   0.00000  Uiso   1.00
C509   C     0.32450   0.95478   0.64782   0.00000  Uiso   1.00
C510   C     0.28446   0.96875   0.61008   0.00000  Uiso   1.00
C511   C     0.19349   0.00274   0.55721   0.00000  Uiso   1.00
C512   C     0.58288   0.90771   0.67889   0.00000  Uiso   1.00
C513   C     0.65450   0.92837   0.70592   0.00000  Uiso   1.00
C514   C     0.76538   0.93025   0.69475   0.00000  Uiso   1.00
C515   C     0.95274   0.94194   0.69089   0.00000  Uiso   1.00
C516   C     0.43675   0.85322   0.68222   0.00000  Uiso   1.00
C517   C     0.38553   0.82805   0.71207   0.00000  Uiso   1.00
C518   C     0.37340   0.78405   0.70371   0.00000  Uiso   1.00
C519   C     0.33388   0.71113   0.70503   0.00000  Uiso   1.00
C520   C     0.52808   0.86857   0.61708   0.00000  Uiso   1.00
C521   C     0.44139   0.90393   0.61044   0.00000  Uiso   1.00
C522   C     0.40146   0.91784   0.57269   0.00000  Uiso   1.00
C523   C     0.32230   0.95058   0.57313   0.00000  Uiso   1.00
C524   C     0.62066   0.88958   0.64200   0.00000  Uiso   1.00
C525   C     0.73146   0.89143   0.63079   0.00000  Uiso   1.00
C526   C     0.80323   0.91208   0.65780   0.00000  Uiso   1.00
C527   C     0.47453   0.83509   0.64534   0.00000  Uiso   1.00
C528   C     0.46249   0.79112   0.63693   0.00000  Uiso   1.00
C529   C     0.41126   0.76589   0.66676   0.00000  Uiso   1.00
H530   H     0.42911   0.91608   0.71371   0.00000  Uiso   1.00
H531   H     0.29529   0.96881   0.67638   0.00000  Uiso   1.00
H532   H     0.62524   0.94239   0.73447   0.00000  Uiso   1.00
H533   H     0.35631   0.84210   0.74061   0.00000  Uiso   1.00
H534   H     0.16361   0.01929   0.61872   0.00000  Uiso   1.00
H535   H     0.85934   0.96358   0.74121   0.00000  Uiso   1.00
H536   H     0.29224   0.75208   0.75417   0.00000  Uiso   1.00
H537   H     0.55750   0.85445   0.58836   0.00000  Uiso   1.00
H538   H     0.43071   0.90380   0.54415   0.00000  Uiso   1.00
H539   H     0.76067   0.87739   0.60224   0.00000  Uiso   1.00
H540   H     0.49174   0.77709   0.60839   0.00000  Uiso   1.00
H541   H     0.27353   0.96653   0.51140   0.00000  Uiso   1.00
H542   H     0.96926   0.91082   0.63389   0.00000  Uiso   1.00
H543   H     0.40217   0.69932   0.64685   0.00000  Uiso   1.00
O544   O     0.13288   0.02650   0.53823   0.00000  Uiso   1.00
O545   O     0.04565   0.95340   0.69895   0.00000  Uiso   1.00
O546   O     0.30163   0.67592   0.71595   0.00000  Uiso   1.00
N547   N     0.20687   0.00009   0.59953   0.00000  Uiso   1.00
N548   N     0.85733   0.94801   0.71405   0.00000  Uiso   1.00
N549   N     0.32717   0.75028   0.72617   0.00000  Uiso   1.00
N550   N     0.26601   0.97170   0.54178   0.00000  Uiso   1.00
N551   N     0.91647   0.91962   0.65630   0.00000  Uiso   1.00
N552   N     0.38631   0.72189   0.66842   0.00000  Uiso   1.00
C553   C     0.53299   0.59510   0.31413   0.00000  Uiso   1.00
C554   C     0.48001   0.57397   0.35167   0.00000  Uiso   1.00
C555   C     0.40214   0.54079   0.35094   0.00000  Uiso   1.00
C556   C     0.36380   0.52588   0.38860   0.00000  Uiso   1.00
C557   C     0.27577   0.49036   0.44126   0.00000  Uiso   1.00
C558   C     0.65774   0.58997   0.31962   0.00000  Uiso   1.00
C559   C     0.72930   0.57026   0.29194   0.00000  Uiso   1.00
C560   C     0.84057   0.56882   0.30262   0.00000  Uiso   1.00
C561   C     0.02846   0.55818   0.30551   0.00000  Uiso   1.00
C562   C     0.50946   0.64364   0.31782   0.00000  Uiso   1.00
C563   C     0.45638   0.66907   0.28862   0.00000  Uiso   1.00
C564   C     0.44284   0.71283   0.29778   0.00000  Uiso   1.00
C565   C     0.40052   0.78552   0.29787   0.00000  Uiso   1.00
C566   C     0.60337   0.62761   0.38231   0.00000  Uiso   1.00
C567   C     0.51824   0.59162   0.38870   0.00000  Uiso   1.00
C568   C     0.48000   0.57676   0.42637   0.00000  Uiso   1.00
C569   C     0.40209   0.54357   0.42570   0.00000  Uiso   1.00
C570   C     0.69596   0.60762   0.35665   0.00000  Uiso   1.00
C571   C     0.80716   0.60622   0.36737   0.00000  Uiso   1.00
C572   C     0.87886   0.58651   0.33972   0.00000  Uiso   1.00
C573   C     0.54768   0.66130   0.35485   0.00000  Uiso   1.00
C574   C     0.53423   0.70503   0.36405   0.00000  Uiso   1.00
C575   C     0.48113   0.73051   0.33487   0.00000  Uiso   1.00
H576   H     0.50324   0.58136   0.28530   0.00000  Uiso   1.00
H577   H     0.37259   0.52714   0.32228   0.00000  Uiso   1.00
H578   H     0.69969   0.55660   0.26328   0.00000  Uiso   1.00
H579   H     0.42681   0.65539   0.25997   0.00000  Uiso   1.00
H580   H     0.24463   0.47480   0.37960   0.00000  Uiso   1.00
H581   H     0.93435   0.53694   0.25521   0.00000  Uiso   1.00
H582   H     0.35893   0.74526   0.24821   0.00000  Uiso   1.00
H583   H     0.63313   0.64135   0.41114   0.00000  Uiso   1.00
H584   H     0.50960   0.59043   0.45502   0.00000  Uiso   1.00
H585   H     0.83671   0.61989   0.39603   0.00000  Uiso   1.00
H586   H     0.56382   0.71868   0.39271   0.00000  Uiso   1.00
H587   H     0.35584   0.52616   0.48735   0.00000  Uiso   1.00
H588   H     0.04556   0.58831   0.36295   0.00000  Uiso   1.00
H589   H     0.47013   0.79663   0.35595   0.00000  Uiso   1.00
O590   O     0.21666   0.46589   0.46007   0.00000  Uiso   1.00
O591   O     0.12154   0.54742   0.29687   0.00000  Uiso   1.00
O592   O     0.36660   0.82073   0.28769   0.00000  Uiso   1.00
N593   N     0.28774   0.49388   0.39894   0.00000  Uiso   1.00
N594   N     0.93258   0.55197   0.28264   0.00000  Uiso   1.00
N595   N     0.39464   0.74674   0.27609   0.00000  Uiso   1.00
N596   N     0.34758   0.52152   0.45691   0.00000  Uiso   1.00
N597   N     0.99242   0.57961   0.34062   0.00000  Uiso   1.00
N598   N     0.45447   0.77438   0.33407   0.00000  Uiso   1.00
C599   C     0.54148   0.59804   0.18499   0.00000  Uiso   1.00
C600   C     0.59639   0.57794   0.14733   0.00000  Uiso   1.00
C601   C     0.67550   0.54522   0.14782   0.00000  Uiso   1.00
C602   C     0.71554   0.53125   0.11008   0.00000  Uiso   1.00
C603   C     0.80651   0.49726   0.05721   0.00000  Uiso   1.00
C604   C     0.41712   0.59229   0.17889   0.00000  Uiso   1.00
C605   C     0.34550   0.57163   0.20592   0.00000  Uiso   1.00
C606   C     0.23462   0.56975   0.19475   0.00000  Uiso   1.00
C607   C     0.04726   0.55806   0.19089   0.00000  Uiso   1.00
C608   C     0.56325   0.64678   0.18222   0.00000  Uiso   1.00
C609   C     0.61447   0.67195   0.21207   0.00000  Uiso   1.00
C610   C     0.62660   0.71595   0.20371   0.00000  Uiso   1.00
C611   C     0.66612   0.78887   0.20503   0.00000  Uiso   1.00
C612   C     0.47192   0.63143   0.11708   0.00000  Uiso   1.00
C613   C     0.55861   0.59607   0.11044   0.00000  Uiso   1.00
C614   C     0.59854   0.58216   0.07269   0.00000  Uiso   1.00
C615   C     0.67770   0.54942   0.07313   0.00000  Uiso   1.00
C616   C     0.37934   0.61042   0.14200   0.00000  Uiso   1.00
C617   C     0.26854   0.60857   0.13079   0.00000  Uiso   1.00
C618   C     0.19677   0.58792   0.15780   0.00000  Uiso   1.00
C619   C     0.52547   0.66491   0.14534   0.00000  Uiso   1.00
C620   C     0.53751   0.70888   0.13693   0.00000  Uiso   1.00
C621   C     0.58874   0.73411   0.16676   0.00000  Uiso   1.00
H622   H     0.57089   0.58392   0.21371   0.00000  Uiso   1.00
H623   H     0.70471   0.53119   0.17638   0.00000  Uiso   1.00
H624   H     0.37476   0.55761   0.23447   0.00000  Uiso   1.00
H625   H     0.64369   0.65790   0.24061   0.00000  Uiso   1.00
H626   H     0.83639   0.48071   0.11872   0.00000  Uiso   1.00
H627   H     0.14066   0.53642   0.24121   0.00000  Uiso   1.00
H628   H     0.70776   0.74792   0.25417   0.00000  Uiso   1.00
H629   H     0.44250   0.64555   0.08836   0.00000  Uiso   1.00
H630   H     0.56929   0.59620   0.04415   0.00000  Uiso   1.00
H631   H     0.23933   0.62261   0.10224   0.00000  Uiso   1.00
H632   H     0.50826   0.72291   0.10839   0.00000  Uiso   1.00
H633   H     0.72647   0.53347   0.01140   0.00000  Uiso   1.00
H634   H     0.03074   0.58918   0.13389   0.00000  Uiso   1.00
H635   H     0.59783   0.80068   0.14685   0.00000  Uiso   1.00
O636   O     0.86712   0.47350   0.03823   0.00000  Uiso   1.00
O637   O     0.95435   0.54660   0.19895   0.00000  Uiso   1.00
O638   O     0.69837   0.82408   0.21595   0.00000  Uiso   1.00
N639   N     0.79313   0.49991   0.09953   0.00000  Uiso   1.00
N640   N     0.14267   0.55199   0.21405   0.00000  Uiso   1.00
N641   N     0.67283   0.74972   0.22617   0.00000  Uiso   1.00
N642   N     0.73399   0.52830   0.04178   0.00000  Uiso   1.00
N643   N     0.08353   0.58038   0.15630   0.00000  Uiso   1.00
N644   N     0.61369   0.77811   0.16842   0.00000  Uiso   1.00
C645   C     0.53299   0.09510   0.81413   0.00000  Uiso   1.00
C646   C     0.48001   0.07397   0.85167   0.00000  Uiso   1.00
C647   C     0.40214   0.04079   0.85094   0.00000  Uiso   1.00
C648   C     0.36380   0.02588   0.88860   0.00000  Uiso   1.00
C649   C     0.27577   0.99036   0.94126   0.00000  Uiso   1.00
C650   C     0.65774   0.08997   0.81962   0.00000  Uiso   1.00
C651   C     0.72930   0.07026   0.79194   0.00000  Uiso   1.00
C652   C     0.84057   0.06882   0.80262   0.00000  Uiso   1.00
C653   C     0.02846   0.05818   0.80551   0.00000  Uiso   1.00
C654   C     0.50946   0.14364   0.81782   0.00000  Uiso   1.00
C655   C     0.45638   0.16907   0.78862   0.00000  Uiso   1.00
C656   C     0.44284   0.21283   0.79778   0.00000  Uiso   1.00
C657   C     0.40052   0.28552   0.79787   0.00000  Uiso   1.00
C658   C     0.60337   0.12761   0.88231   0.00000  Uiso   1.00
C659   C     0.51824   0.09162   0.88870   0.00000  Uiso   1.00
C660   C     0.48000   0.07676   0.92637   0.00000  Uiso   1.00
C661   C     0.40209   0.04357   0.92570   0.00000  Uiso   1.00
C662   C     0.69596   0.10762   0.85665   0.00000  Uiso   1.00
C663   C     0.80716   0.10622   0.86737   0.00000  Uiso   1.00
C664   C     0.87886   0.08651   0.83972   0.00000  Uiso   1.00
C665   C     0.54768   0.16130   0.85485   0.00000  Uiso   1.00
C666   C     0.53423   0.20503   0.86405   0.00000  Uiso   1.00
C667   C     0.48113   0.23051   0.83487   0.00000  Uiso   1.00
H668   H     0.50324   0.08136   0.78530   0.00000  Uiso   1.00
H669   H     0.37259   0.02714   0.82228   0.00000  Uiso   1.00
H670   H     0.69969   0.05660   0.76328   0.00000  Uiso   1.00
H671   H     0.42681   0.15539   0.75997   0.00000  Uiso   1.00
H672   H     0.24463   0.97480   0.87960   0.00000  Uiso   1.00
H673   H     0.93435   0.03694   0.75521   0.00000  Uiso   1.00
H674   H     0.35893   0.24526   0.74821   0.00000  Uiso   1.00
H675   H     0.63313   0.14135   0.91114   0.00000  Uiso   1.00
H676   H     0.50960   0.09043   0.95502   0.00000  Uiso   1.00
H677   H     0.83671   0.11989   0.89603   0.00000  Uiso   1.00
H678   H     0.56382   0.21868   0.89271   0.00000  Uiso   1.00
H679   H     0.35584   0.02616   0.98735   0.00000  Uiso   1.00
H680   H     0.04556   0.08831   0.86295   0.00000  Uiso   1.00
H681   H     0.47013   0.29663   0.85595   0.00000  Uiso   1.00
O682   O     0.21666   0.96589   0.96007   0.00000  Uiso   1.00
O683   O     0.12154   0.04742   0.79687   0.00000  Uiso   1.00
O684   O     0.36660   0.32073   0.78769   0.00000  Uiso   1.00
N685   N     0.28774   0.99388   0.89894   0.00000  Uiso   1.00
N686   N     0.93258   0.05197   0.78264   0.00000  Uiso   1.00
N687   N     0.39464   0.24674   0.77609   0.00000  Uiso   1.00
N688   N     0.34758   0.02152   0.95691   0.00000  Uiso   1.00
N689   N     0.99242   0.07961   0.84062   0.00000  Uiso   1.00
N690   N     0.45447   0.27438   0.83407   0.00000  Uiso   1.00
C691   C     0.54148   0.09804   0.68499   0.00000  Uiso   1.00
C692   C     0.59639   0.07794   0.64733   0.00000  Uiso   1.00
C693   C     0.67550   0.04522   0.64782   0.00000  Uiso   1.00
C694   C     0.71554   0.03125   0.61008   0.00000  Uiso   1.00
C695   C     0.80651   0.99726   0.55721   0.00000  Uiso   1.00
C696   C     0.41712   0.09229   0.67889   0.00000  Uiso   1.00
C697   C     0.34550   0.07163   0.70592   0.00000  Uiso   1.00
C698   C     0.23462   0.06975   0.69475   0.00000  Uiso   1.00
C699   C     0.04726   0.05806   0.69089   0.00000  Uiso   1.00
C700   C     0.56325   0.14678   0.68222   0.00000  Uiso   1.00
C701   C     0.61447   0.17195   0.71207   0.00000  Uiso   1.00
C702   C     0.62660   0.21595   0.70371   0.00000  Uiso   1.00
C703   C     0.66612   0.28887   0.70503   0.00000  Uiso   1.00
C704   C     0.47192   0.13143   0.61708   0.00000  Uiso   1.00
C705   C     0.55861   0.09607   0.61044   0.00000  Uiso   1.00
C706   C     0.59854   0.08216   0.57269   0.00000  Uiso   1.00
C707   C     0.67770   0.04942   0.57313   0.00000  Uiso   1.00
C708   C     0.37934   0.11042   0.64200   0.00000  Uiso   1.00
C709   C     0.26854   0.10857   0.63079   0.00000  Uiso   1.00
C710   C     0.19677   0.08792   0.65780   0.00000  Uiso   1.00
C711   C     0.52547   0.16491   0.64534   0.00000  Uiso   1.00
C712   C     0.53751   0.20888   0.63693   0.00000  Uiso   1.00
C713   C     0.58874   0.23411   0.66676   0.00000  Uiso   1.00
H714   H     0.57089   0.08392   0.71371   0.00000  Uiso   1.00
H715   H     0.70471   0.03119   0.67638   0.00000  Uiso   1.00
H716   H     0.37476   0.05761   0.73447   0.00000  Uiso   1.00
H717   H     0.64369   0.15790   0.74061   0.00000  Uiso   1.00
H718   H     0.83639   0.98071   0.61872   0.00000  Uiso   1.00
H719   H     0.14066   0.03642   0.74121   0.00000  Uiso   1.00
H720   H     0.70776   0.24792   0.75417   0.00000  Uiso   1.00
H721   H     0.44250   0.14555   0.58836   0.00000  Uiso   1.00
H722   H     0.56929   0.09620   0.54415   0.00000  Uiso   1.00
H723   H     0.23933   0.12261   0.60224   0.00000  Uiso   1.00
H724   H     0.50826   0.22291   0.60839   0.00000  Uiso   1.00
H725   H     0.72647   0.03347   0.51140   0.00000  Uiso   1.00
H726   H     0.03074   0.08918   0.63389   0.00000  Uiso   1.00
H727   H     0.59783   0.30068   0.64685   0.00000  Uiso   1.00
O728   O     0.86712   0.97350   0.53823   0.00000  Uiso   1.00
O729   O     0.95435   0.04660   0.69895   0.00000  Uiso   1.00
O730   O     0.69837   0.32408   0.71595   0.00000  Uiso   1.00
N731   N     0.79313   0.99991   0.59953   0.00000  Uiso   1.00
N732   N     0.14267   0.05199   0.71405   0.00000  Uiso   1.00
N733   N     0.67283   0.24972   0.72617   0.00000  Uiso   1.00
N734   N     0.73399   0.02830   0.54178   0.00000  Uiso   1.00
N735   N     0.08353   0.08038   0.65630   0.00000  Uiso   1.00
N736   N     0.61369   0.27811   0.66842   0.00000  Uiso   1.00
