data_job_05732
_audit_creation_date              2018-12-19
_audit_creation_method            'Materials Studio'
_symmetry_space_group_name_H-M    'P1'
_symmetry_Int_Tables_number       1
_symmetry_cell_setting            triclinic
loop_
_symmetry_equiv_pos_as_xyz
  x,y,z
_cell_length_a                    39.5055
_cell_length_b                    19.4264
_cell_length_c                    15.0841
_cell_angle_alpha                 90.0000
_cell_angle_beta                  90.0000
_cell_angle_gamma                 90.0000
loop_
_atom_site_label
_atom_site_type_symbol
_atom_site_fract_x
_atom_site_fract_y
_atom_site_fract_z
_atom_site_U_iso_or_equiv
_atom_site_adp_type
_atom_site_occupancy
C1     C     0.33480   0.08023   0.80844   0.00000  Uiso   1.00
C2     C     0.34270   0.00346   0.81239   0.00000  Uiso   1.00
C3     C     0.33330   0.95890   0.87996   0.00000  Uiso   1.00
C4     C     0.34296   0.89052   0.87126   0.00000  Uiso   1.00
C5     C     0.35244   0.77480   0.88863   0.00000  Uiso   1.00
C6     C     0.36882   0.11657   0.79874   0.00000  Uiso   1.00
C7     C     0.38137   0.16712   0.85482   0.00000  Uiso   1.00
C8     C     0.41302   0.19397   0.83460   0.00000  Uiso   1.00
C9     C     0.46303   0.25390   0.83073   0.00000  Uiso   1.00
C10    C     0.31610   0.09175   0.72125   0.00000  Uiso   1.00
C11    C     0.28434   0.12145   0.71218   0.00000  Uiso   1.00
C12    C     0.27161   0.12741   0.62673   0.00000  Uiso   1.00
C13    C     0.23978   0.14879   0.50255   0.00000  Uiso   1.00
C14    C     0.36867   0.03802   0.67282   0.00000  Uiso   1.00
C15    C     0.36110   0.98053   0.73873   0.00000  Uiso   1.00
C16    C     0.37077   0.91220   0.72992   0.00000  Uiso   1.00
C17    C     0.36139   0.86755   0.79746   0.00000  Uiso   1.00
C18    C     0.38721   0.09365   0.72508   0.00000  Uiso   1.00
C19    C     0.41885   0.12042   0.70477   0.00000  Uiso   1.00
C20    C     0.43145   0.17100   0.76081   0.00000  Uiso   1.00
C21    C     0.33450   0.06882   0.64759   0.00000  Uiso   1.00
C22    C     0.32181   0.07474   0.56213   0.00000  Uiso   1.00
C23    C     0.29004   0.10444   0.55293   0.00000  Uiso   1.00
H24    H     0.32048   0.09809   0.86579   0.00000  Uiso   1.00
H25    H     0.31907   0.97666   0.93696   0.00000  Uiso   1.00
H26    H     0.36713   0.18486   0.91181   0.00000  Uiso   1.00
H27    H     0.27011   0.13918   0.76920   0.00000  Uiso   1.00
H28    H     0.32562   0.83194   0.98340   0.00000  Uiso   1.00
H29    H     0.42696   0.27095   0.93035   0.00000  Uiso   1.00
H30    H     0.22238   0.17464   0.62962   0.00000  Uiso   1.00
H31    H     0.38300   0.02017   0.61547   0.00000  Uiso   1.00
H32    H     0.38501   0.89447   0.67291   0.00000  Uiso   1.00
H33    H     0.43307   0.10267   0.64776   0.00000  Uiso   1.00
H34    H     0.33606   0.05699   0.50514   0.00000  Uiso   1.00
H35    H     0.37915   0.76523   0.76909   0.00000  Uiso   1.00
H36    H     0.48048   0.20425   0.71604   0.00000  Uiso   1.00
H37    H     0.27591   0.10793   0.41531   0.00000  Uiso   1.00
O38    O     0.35259   0.71731   0.91856   0.00000  Uiso   1.00
O39    O     0.48554   0.29328   0.84895   0.00000  Uiso   1.00
O40    O     0.21714   0.16691   0.45441   0.00000  Uiso   1.00
N41    N     0.33794   0.83349   0.92507   0.00000  Uiso   1.00
N42    N     0.43268   0.24393   0.87548   0.00000  Uiso   1.00
N43    N     0.24142   0.15390   0.59432   0.00000  Uiso   1.00
N44    N     0.36674   0.79759   0.80975   0.00000  Uiso   1.00
N45    N     0.46148   0.20803   0.76016   0.00000  Uiso   1.00
N46    N     0.27023   0.11800   0.47900   0.00000  Uiso   1.00
C47    C     0.83480   0.58023   0.80844   0.00000  Uiso   1.00
C48    C     0.84270   0.50346   0.81239   0.00000  Uiso   1.00
C49    C     0.83330   0.45890   0.87996   0.00000  Uiso   1.00
C50    C     0.84296   0.39052   0.87126   0.00000  Uiso   1.00
C51    C     0.85244   0.27480   0.88863   0.00000  Uiso   1.00
C52    C     0.86882   0.61657   0.79874   0.00000  Uiso   1.00
C53    C     0.88137   0.66712   0.85482   0.00000  Uiso   1.00
C54    C     0.91302   0.69397   0.83460   0.00000  Uiso   1.00
C55    C     0.96303   0.75390   0.83073   0.00000  Uiso   1.00
C56    C     0.81610   0.59175   0.72125   0.00000  Uiso   1.00
C57    C     0.78434   0.62145   0.71218   0.00000  Uiso   1.00
C58    C     0.77161   0.62741   0.62673   0.00000  Uiso   1.00
C59    C     0.73978   0.64879   0.50255   0.00000  Uiso   1.00
C60    C     0.86867   0.53802   0.67282   0.00000  Uiso   1.00
C61    C     0.86110   0.48053   0.73873   0.00000  Uiso   1.00
C62    C     0.87077   0.41220   0.72992   0.00000  Uiso   1.00
C63    C     0.86139   0.36755   0.79746   0.00000  Uiso   1.00
C64    C     0.88721   0.59365   0.72508   0.00000  Uiso   1.00
C65    C     0.91885   0.62042   0.70477   0.00000  Uiso   1.00
C66    C     0.93145   0.67100   0.76081   0.00000  Uiso   1.00
C67    C     0.83450   0.56882   0.64759   0.00000  Uiso   1.00
C68    C     0.82181   0.57474   0.56213   0.00000  Uiso   1.00
C69    C     0.79004   0.60444   0.55293   0.00000  Uiso   1.00
H70    H     0.82048   0.59809   0.86579   0.00000  Uiso   1.00
H71    H     0.81907   0.47666   0.93696   0.00000  Uiso   1.00
H72    H     0.86713   0.68486   0.91181   0.00000  Uiso   1.00
H73    H     0.77011   0.63918   0.76920   0.00000  Uiso   1.00
H74    H     0.82562   0.33194   0.98340   0.00000  Uiso   1.00
H75    H     0.92696   0.77095   0.93035   0.00000  Uiso   1.00
H76    H     0.72238   0.67464   0.62962   0.00000  Uiso   1.00
H77    H     0.88300   0.52017   0.61547   0.00000  Uiso   1.00
H78    H     0.88501   0.39447   0.67291   0.00000  Uiso   1.00
H79    H     0.93307   0.60267   0.64776   0.00000  Uiso   1.00
H80    H     0.83606   0.55699   0.50514   0.00000  Uiso   1.00
H81    H     0.87915   0.26523   0.76909   0.00000  Uiso   1.00
H82    H     0.98048   0.70425   0.71604   0.00000  Uiso   1.00
H83    H     0.77591   0.60793   0.41531   0.00000  Uiso   1.00
O84    O     0.85259   0.21731   0.91856   0.00000  Uiso   1.00
O85    O     0.98554   0.79328   0.84895   0.00000  Uiso   1.00
O86    O     0.71714   0.66691   0.45441   0.00000  Uiso   1.00
N87    N     0.83794   0.33349   0.92507   0.00000  Uiso   1.00
N88    N     0.93268   0.74393   0.87548   0.00000  Uiso   1.00
N89    N     0.74142   0.65390   0.59432   0.00000  Uiso   1.00
N90    N     0.86674   0.29759   0.80975   0.00000  Uiso   1.00
N91    N     0.96148   0.70803   0.76016   0.00000  Uiso   1.00
N92    N     0.77023   0.61800   0.47900   0.00000  Uiso   1.00
C93    C     0.16520   0.41977   0.80844   0.00000  Uiso   1.00
C94    C     0.15730   0.49654   0.81239   0.00000  Uiso   1.00
C95    C     0.16670   0.54110   0.87996   0.00000  Uiso   1.00
C96    C     0.15704   0.60948   0.87126   0.00000  Uiso   1.00
C97    C     0.14756   0.72520   0.88863   0.00000  Uiso   1.00
C98    C     0.13118   0.38343   0.79874   0.00000  Uiso   1.00
C99    C     0.11863   0.33288   0.85482   0.00000  Uiso   1.00
C100   C     0.08698   0.30603   0.83460   0.00000  Uiso   1.00
C101   C     0.03697   0.24610   0.83073   0.00000  Uiso   1.00
C102   C     0.18390   0.40825   0.72125   0.00000  Uiso   1.00
C103   C     0.21566   0.37855   0.71218   0.00000  Uiso   1.00
C104   C     0.22839   0.37259   0.62673   0.00000  Uiso   1.00
C105   C     0.26022   0.35121   0.50255   0.00000  Uiso   1.00
C106   C     0.13133   0.46198   0.67282   0.00000  Uiso   1.00
C107   C     0.13890   0.51947   0.73873   0.00000  Uiso   1.00
C108   C     0.12923   0.58780   0.72992   0.00000  Uiso   1.00
C109   C     0.13861   0.63245   0.79746   0.00000  Uiso   1.00
C110   C     0.11279   0.40635   0.72508   0.00000  Uiso   1.00
C111   C     0.08115   0.37958   0.70477   0.00000  Uiso   1.00
C112   C     0.06855   0.32900   0.76081   0.00000  Uiso   1.00
C113   C     0.16550   0.43118   0.64759   0.00000  Uiso   1.00
C114   C     0.17819   0.42526   0.56213   0.00000  Uiso   1.00
C115   C     0.20996   0.39556   0.55293   0.00000  Uiso   1.00
H116   H     0.17952   0.40191   0.86579   0.00000  Uiso   1.00
H117   H     0.18093   0.52334   0.93696   0.00000  Uiso   1.00
H118   H     0.13287   0.31514   0.91181   0.00000  Uiso   1.00
H119   H     0.22989   0.36082   0.76920   0.00000  Uiso   1.00
H120   H     0.17438   0.66806   0.98340   0.00000  Uiso   1.00
H121   H     0.07304   0.22905   0.93035   0.00000  Uiso   1.00
H122   H     0.27762   0.32536   0.62962   0.00000  Uiso   1.00
H123   H     0.11700   0.47983   0.61547   0.00000  Uiso   1.00
H124   H     0.11499   0.60553   0.67291   0.00000  Uiso   1.00
H125   H     0.06693   0.39733   0.64776   0.00000  Uiso   1.00
H126   H     0.16394   0.44301   0.50514   0.00000  Uiso   1.00
H127   H     0.12085   0.73477   0.76909   0.00000  Uiso   1.00
H128   H     0.01952   0.29575   0.71604   0.00000  Uiso   1.00
H129   H     0.22409   0.39207   0.41531   0.00000  Uiso   1.00
O130   O     0.14741   0.78269   0.91856   0.00000  Uiso   1.00
O131   O     0.01446   0.20672   0.84895   0.00000  Uiso   1.00
O132   O     0.28286   0.33309   0.45441   0.00000  Uiso   1.00
N133   N     0.16206   0.66651   0.92507   0.00000  Uiso   1.00
N134   N     0.06732   0.25607   0.87548   0.00000  Uiso   1.00
N135   N     0.25858   0.34610   0.59432   0.00000  Uiso   1.00
N136   N     0.13326   0.70241   0.80975   0.00000  Uiso   1.00
N137   N     0.03852   0.29197   0.76016   0.00000  Uiso   1.00
N138   N     0.22977   0.38200   0.47900   0.00000  Uiso   1.00
C139   C     0.66520   0.91977   0.80844   0.00000  Uiso   1.00
C140   C     0.65730   0.99654   0.81239   0.00000  Uiso   1.00
C141   C     0.66670   0.04110   0.87996   0.00000  Uiso   1.00
C142   C     0.65704   0.10948   0.87126   0.00000  Uiso   1.00
C143   C     0.64756   0.22520   0.88863   0.00000  Uiso   1.00
C144   C     0.63118   0.88343   0.79874   0.00000  Uiso   1.00
C145   C     0.61863   0.83288   0.85482   0.00000  Uiso   1.00
C146   C     0.58698   0.80603   0.83460   0.00000  Uiso   1.00
C147   C     0.53697   0.74610   0.83073   0.00000  Uiso   1.00
C148   C     0.68390   0.90825   0.72125   0.00000  Uiso   1.00
C149   C     0.71566   0.87855   0.71218   0.00000  Uiso   1.00
C150   C     0.72839   0.87259   0.62673   0.00000  Uiso   1.00
C151   C     0.76022   0.85121   0.50255   0.00000  Uiso   1.00
C152   C     0.63133   0.96198   0.67282   0.00000  Uiso   1.00
C153   C     0.63890   0.01947   0.73873   0.00000  Uiso   1.00
C154   C     0.62923   0.08780   0.72992   0.00000  Uiso   1.00
C155   C     0.63861   0.13245   0.79746   0.00000  Uiso   1.00
C156   C     0.61279   0.90635   0.72508   0.00000  Uiso   1.00
C157   C     0.58115   0.87958   0.70477   0.00000  Uiso   1.00
C158   C     0.56855   0.82900   0.76081   0.00000  Uiso   1.00
C159   C     0.66550   0.93118   0.64759   0.00000  Uiso   1.00
C160   C     0.67819   0.92526   0.56213   0.00000  Uiso   1.00
C161   C     0.70996   0.89556   0.55293   0.00000  Uiso   1.00
H162   H     0.67952   0.90191   0.86579   0.00000  Uiso   1.00
H163   H     0.68093   0.02334   0.93696   0.00000  Uiso   1.00
H164   H     0.63287   0.81514   0.91181   0.00000  Uiso   1.00
H165   H     0.72989   0.86082   0.76920   0.00000  Uiso   1.00
H166   H     0.67438   0.16806   0.98340   0.00000  Uiso   1.00
H167   H     0.57304   0.72905   0.93035   0.00000  Uiso   1.00
H168   H     0.77762   0.82536   0.62962   0.00000  Uiso   1.00
H169   H     0.61700   0.97983   0.61547   0.00000  Uiso   1.00
H170   H     0.61499   0.10553   0.67291   0.00000  Uiso   1.00
H171   H     0.56693   0.89733   0.64776   0.00000  Uiso   1.00
H172   H     0.66394   0.94301   0.50514   0.00000  Uiso   1.00
H173   H     0.62085   0.23477   0.76909   0.00000  Uiso   1.00
H174   H     0.51952   0.79575   0.71604   0.00000  Uiso   1.00
H175   H     0.72409   0.89207   0.41531   0.00000  Uiso   1.00
O176   O     0.64741   0.28269   0.91856   0.00000  Uiso   1.00
O177   O     0.51446   0.70672   0.84895   0.00000  Uiso   1.00
O178   O     0.78286   0.83309   0.45441   0.00000  Uiso   1.00
N179   N     0.66206   0.16651   0.92507   0.00000  Uiso   1.00
N180   N     0.56732   0.75607   0.87548   0.00000  Uiso   1.00
N181   N     0.75858   0.84610   0.59432   0.00000  Uiso   1.00
N182   N     0.63326   0.20241   0.80975   0.00000  Uiso   1.00
N183   N     0.53852   0.79197   0.76016   0.00000  Uiso   1.00
N184   N     0.72977   0.88200   0.47900   0.00000  Uiso   1.00
C185   C     0.66520   0.08023   0.19156   0.00000  Uiso   1.00
C186   C     0.65730   0.00346   0.18761   0.00000  Uiso   1.00
C187   C     0.66670   0.95890   0.12004   0.00000  Uiso   1.00
C188   C     0.65704   0.89052   0.12874   0.00000  Uiso   1.00
C189   C     0.64756   0.77480   0.11137   0.00000  Uiso   1.00
C190   C     0.63118   0.11657   0.20126   0.00000  Uiso   1.00
C191   C     0.61863   0.16712   0.14518   0.00000  Uiso   1.00
C192   C     0.58698   0.19397   0.16540   0.00000  Uiso   1.00
C193   C     0.53697   0.25390   0.16927   0.00000  Uiso   1.00
C194   C     0.68390   0.09175   0.27875   0.00000  Uiso   1.00
C195   C     0.71566   0.12145   0.28782   0.00000  Uiso   1.00
C196   C     0.72839   0.12741   0.37327   0.00000  Uiso   1.00
C197   C     0.76022   0.14879   0.49745   0.00000  Uiso   1.00
C198   C     0.63133   0.03802   0.32718   0.00000  Uiso   1.00
C199   C     0.63890   0.98053   0.26127   0.00000  Uiso   1.00
C200   C     0.62923   0.91220   0.27008   0.00000  Uiso   1.00
C201   C     0.63861   0.86755   0.20254   0.00000  Uiso   1.00
C202   C     0.61279   0.09365   0.27492   0.00000  Uiso   1.00
C203   C     0.58115   0.12042   0.29523   0.00000  Uiso   1.00
C204   C     0.56855   0.17100   0.23919   0.00000  Uiso   1.00
C205   C     0.66550   0.06882   0.35241   0.00000  Uiso   1.00
C206   C     0.67819   0.07474   0.43787   0.00000  Uiso   1.00
C207   C     0.70996   0.10444   0.44707   0.00000  Uiso   1.00
H208   H     0.67952   0.09809   0.13421   0.00000  Uiso   1.00
H209   H     0.68093   0.97666   0.06304   0.00000  Uiso   1.00
H210   H     0.63287   0.18486   0.08819   0.00000  Uiso   1.00
H211   H     0.72989   0.13918   0.23080   0.00000  Uiso   1.00
H212   H     0.67438   0.83194   0.01660   0.00000  Uiso   1.00
H213   H     0.57304   0.27095   0.06965   0.00000  Uiso   1.00
H214   H     0.77762   0.17464   0.37038   0.00000  Uiso   1.00
H215   H     0.61700   0.02017   0.38453   0.00000  Uiso   1.00
H216   H     0.61499   0.89447   0.32709   0.00000  Uiso   1.00
H217   H     0.56693   0.10267   0.35224   0.00000  Uiso   1.00
H218   H     0.66394   0.05699   0.49486   0.00000  Uiso   1.00
H219   H     0.62085   0.76523   0.23091   0.00000  Uiso   1.00
H220   H     0.51952   0.20425   0.28396   0.00000  Uiso   1.00
H221   H     0.72409   0.10793   0.58469   0.00000  Uiso   1.00
O222   O     0.64741   0.71731   0.08144   0.00000  Uiso   1.00
O223   O     0.51446   0.29328   0.15105   0.00000  Uiso   1.00
O224   O     0.78286   0.16691   0.54559   0.00000  Uiso   1.00
N225   N     0.66206   0.83349   0.07493   0.00000  Uiso   1.00
N226   N     0.56732   0.24393   0.12452   0.00000  Uiso   1.00
N227   N     0.75858   0.15390   0.40568   0.00000  Uiso   1.00
N228   N     0.63326   0.79759   0.19025   0.00000  Uiso   1.00
N229   N     0.53852   0.20803   0.23984   0.00000  Uiso   1.00
N230   N     0.72977   0.11800   0.52100   0.00000  Uiso   1.00
C231   C     0.16520   0.58023   0.19156   0.00000  Uiso   1.00
C232   C     0.15730   0.50346   0.18761   0.00000  Uiso   1.00
C233   C     0.16670   0.45890   0.12004   0.00000  Uiso   1.00
C234   C     0.15704   0.39052   0.12874   0.00000  Uiso   1.00
C235   C     0.14756   0.27480   0.11137   0.00000  Uiso   1.00
C236   C     0.13118   0.61657   0.20126   0.00000  Uiso   1.00
C237   C     0.11863   0.66712   0.14518   0.00000  Uiso   1.00
C238   C     0.08698   0.69397   0.16540   0.00000  Uiso   1.00
C239   C     0.03697   0.75390   0.16927   0.00000  Uiso   1.00
C240   C     0.18390   0.59175   0.27875   0.00000  Uiso   1.00
C241   C     0.21566   0.62145   0.28782   0.00000  Uiso   1.00
C242   C     0.22839   0.62741   0.37327   0.00000  Uiso   1.00
C243   C     0.26022   0.64879   0.49745   0.00000  Uiso   1.00
C244   C     0.13133   0.53802   0.32718   0.00000  Uiso   1.00
C245   C     0.13890   0.48053   0.26127   0.00000  Uiso   1.00
C246   C     0.12923   0.41220   0.27008   0.00000  Uiso   1.00
C247   C     0.13861   0.36755   0.20254   0.00000  Uiso   1.00
C248   C     0.11279   0.59365   0.27492   0.00000  Uiso   1.00
C249   C     0.08115   0.62042   0.29523   0.00000  Uiso   1.00
C250   C     0.06855   0.67100   0.23919   0.00000  Uiso   1.00
C251   C     0.16550   0.56882   0.35241   0.00000  Uiso   1.00
C252   C     0.17819   0.57474   0.43787   0.00000  Uiso   1.00
C253   C     0.20996   0.60444   0.44707   0.00000  Uiso   1.00
H254   H     0.17952   0.59809   0.13421   0.00000  Uiso   1.00
H255   H     0.18093   0.47666   0.06304   0.00000  Uiso   1.00
H256   H     0.13287   0.68486   0.08819   0.00000  Uiso   1.00
H257   H     0.22989   0.63918   0.23080   0.00000  Uiso   1.00
H258   H     0.17438   0.33194   0.01660   0.00000  Uiso   1.00
H259   H     0.07304   0.77095   0.06965   0.00000  Uiso   1.00
H260   H     0.27762   0.67464   0.37038   0.00000  Uiso   1.00
H261   H     0.11700   0.52017   0.38453   0.00000  Uiso   1.00
H262   H     0.11499   0.39447   0.32709   0.00000  Uiso   1.00
H263   H     0.06693   0.60267   0.35224   0.00000  Uiso   1.00
H264   H     0.16394   0.55699   0.49486   0.00000  Uiso   1.00
H265   H     0.12085   0.26523   0.23091   0.00000  Uiso   1.00
H266   H     0.01952   0.70425   0.28396   0.00000  Uiso   1.00
H267   H     0.22409   0.60793   0.58469   0.00000  Uiso   1.00
O268   O     0.14741   0.21731   0.08144   0.00000  Uiso   1.00
O269   O     0.01446   0.79328   0.15105   0.00000  Uiso   1.00
O270   O     0.28286   0.66691   0.54559   0.00000  Uiso   1.00
N271   N     0.16206   0.33349   0.07493   0.00000  Uiso   1.00
N272   N     0.06732   0.74393   0.12452   0.00000  Uiso   1.00
N273   N     0.25858   0.65390   0.40568   0.00000  Uiso   1.00
N274   N     0.13326   0.29759   0.19025   0.00000  Uiso   1.00
N275   N     0.03852   0.70803   0.23984   0.00000  Uiso   1.00
N276   N     0.22977   0.61800   0.52100   0.00000  Uiso   1.00
C277   C     0.83480   0.41977   0.19156   0.00000  Uiso   1.00
C278   C     0.84270   0.49654   0.18761   0.00000  Uiso   1.00
C279   C     0.83330   0.54110   0.12004   0.00000  Uiso   1.00
C280   C     0.84296   0.60948   0.12874   0.00000  Uiso   1.00
C281   C     0.85244   0.72520   0.11137   0.00000  Uiso   1.00
C282   C     0.86882   0.38343   0.20126   0.00000  Uiso   1.00
C283   C     0.88137   0.33288   0.14518   0.00000  Uiso   1.00
C284   C     0.91302   0.30603   0.16540   0.00000  Uiso   1.00
C285   C     0.96303   0.24610   0.16927   0.00000  Uiso   1.00
C286   C     0.81610   0.40825   0.27875   0.00000  Uiso   1.00
C287   C     0.78434   0.37855   0.28782   0.00000  Uiso   1.00
C288   C     0.77161   0.37259   0.37327   0.00000  Uiso   1.00
C289   C     0.73978   0.35121   0.49745   0.00000  Uiso   1.00
C290   C     0.86867   0.46198   0.32718   0.00000  Uiso   1.00
C291   C     0.86110   0.51947   0.26127   0.00000  Uiso   1.00
C292   C     0.87077   0.58780   0.27008   0.00000  Uiso   1.00
C293   C     0.86139   0.63245   0.20254   0.00000  Uiso   1.00
C294   C     0.88721   0.40635   0.27492   0.00000  Uiso   1.00
C295   C     0.91885   0.37958   0.29523   0.00000  Uiso   1.00
C296   C     0.93145   0.32900   0.23919   0.00000  Uiso   1.00
C297   C     0.83450   0.43118   0.35241   0.00000  Uiso   1.00
C298   C     0.82181   0.42526   0.43787   0.00000  Uiso   1.00
C299   C     0.79004   0.39556   0.44707   0.00000  Uiso   1.00
H300   H     0.82048   0.40191   0.13421   0.00000  Uiso   1.00
H301   H     0.81907   0.52334   0.06304   0.00000  Uiso   1.00
H302   H     0.86713   0.31514   0.08819   0.00000  Uiso   1.00
H303   H     0.77011   0.36082   0.23080   0.00000  Uiso   1.00
H304   H     0.82562   0.66806   0.01660   0.00000  Uiso   1.00
H305   H     0.92696   0.22905   0.06965   0.00000  Uiso   1.00
H306   H     0.72238   0.32536   0.37038   0.00000  Uiso   1.00
H307   H     0.88300   0.47983   0.38453   0.00000  Uiso   1.00
H308   H     0.88501   0.60553   0.32709   0.00000  Uiso   1.00
H309   H     0.93307   0.39733   0.35224   0.00000  Uiso   1.00
H310   H     0.83606   0.44301   0.49486   0.00000  Uiso   1.00
H311   H     0.87915   0.73477   0.23091   0.00000  Uiso   1.00
H312   H     0.98048   0.29575   0.28396   0.00000  Uiso   1.00
H313   H     0.77591   0.39207   0.58469   0.00000  Uiso   1.00
O314   O     0.85259   0.78269   0.08144   0.00000  Uiso   1.00
O315   O     0.98554   0.20672   0.15105   0.00000  Uiso   1.00
O316   O     0.71714   0.33309   0.54559   0.00000  Uiso   1.00
N317   N     0.83794   0.66651   0.07493   0.00000  Uiso   1.00
N318   N     0.93268   0.25607   0.12452   0.00000  Uiso   1.00
N319   N     0.74142   0.34610   0.40568   0.00000  Uiso   1.00
N320   N     0.86674   0.70241   0.19025   0.00000  Uiso   1.00
N321   N     0.96148   0.29197   0.23984   0.00000  Uiso   1.00
N322   N     0.77023   0.38200   0.52100   0.00000  Uiso   1.00
C323   C     0.33480   0.91977   0.19156   0.00000  Uiso   1.00
C324   C     0.34270   0.99654   0.18761   0.00000  Uiso   1.00
C325   C     0.33330   0.04110   0.12004   0.00000  Uiso   1.00
C326   C     0.34296   0.10948   0.12874   0.00000  Uiso   1.00
C327   C     0.35244   0.22520   0.11137   0.00000  Uiso   1.00
C328   C     0.36882   0.88343   0.20126   0.00000  Uiso   1.00
C329   C     0.38137   0.83288   0.14518   0.00000  Uiso   1.00
C330   C     0.41302   0.80603   0.16540   0.00000  Uiso   1.00
C331   C     0.46303   0.74610   0.16927   0.00000  Uiso   1.00
C332   C     0.31610   0.90825   0.27875   0.00000  Uiso   1.00
C333   C     0.28434   0.87855   0.28782   0.00000  Uiso   1.00
C334   C     0.27161   0.87259   0.37327   0.00000  Uiso   1.00
C335   C     0.23978   0.85121   0.49745   0.00000  Uiso   1.00
C336   C     0.36867   0.96198   0.32718   0.00000  Uiso   1.00
C337   C     0.36110   0.01947   0.26127   0.00000  Uiso   1.00
C338   C     0.37077   0.08780   0.27008   0.00000  Uiso   1.00
C339   C     0.36139   0.13245   0.20254   0.00000  Uiso   1.00
C340   C     0.38721   0.90635   0.27492   0.00000  Uiso   1.00
C341   C     0.41885   0.87958   0.29523   0.00000  Uiso   1.00
C342   C     0.43145   0.82900   0.23919   0.00000  Uiso   1.00
C343   C     0.33450   0.93118   0.35241   0.00000  Uiso   1.00
C344   C     0.32181   0.92526   0.43787   0.00000  Uiso   1.00
C345   C     0.29004   0.89556   0.44707   0.00000  Uiso   1.00
H346   H     0.32048   0.90191   0.13421   0.00000  Uiso   1.00
H347   H     0.31907   0.02334   0.06304   0.00000  Uiso   1.00
H348   H     0.36713   0.81514   0.08819   0.00000  Uiso   1.00
H349   H     0.27011   0.86082   0.23080   0.00000  Uiso   1.00
H350   H     0.32562   0.16806   0.01660   0.00000  Uiso   1.00
H351   H     0.42696   0.72905   0.06965   0.00000  Uiso   1.00
H352   H     0.22238   0.82536   0.37038   0.00000  Uiso   1.00
H353   H     0.38300   0.97983   0.38453   0.00000  Uiso   1.00
H354   H     0.38501   0.10553   0.32709   0.00000  Uiso   1.00
H355   H     0.43307   0.89733   0.35224   0.00000  Uiso   1.00
H356   H     0.33606   0.94301   0.49486   0.00000  Uiso   1.00
H357   H     0.37915   0.23477   0.23091   0.00000  Uiso   1.00
H358   H     0.48048   0.79575   0.28396   0.00000  Uiso   1.00
H359   H     0.27591   0.89207   0.58469   0.00000  Uiso   1.00
O360   O     0.35259   0.28269   0.08144   0.00000  Uiso   1.00
O361   O     0.48554   0.70672   0.15105   0.00000  Uiso   1.00
O362   O     0.21714   0.83309   0.54559   0.00000  Uiso   1.00
N363   N     0.33794   0.16651   0.07493   0.00000  Uiso   1.00
N364   N     0.43268   0.75607   0.12452   0.00000  Uiso   1.00
N365   N     0.24142   0.84610   0.40568   0.00000  Uiso   1.00
N366   N     0.36674   0.20241   0.19025   0.00000  Uiso   1.00
N367   N     0.46148   0.79197   0.23984   0.00000  Uiso   1.00
N368   N     0.27023   0.88200   0.52100   0.00000  Uiso   1.00
C369   C     0.66520   0.41977   0.69156   0.00000  Uiso   1.00
C370   C     0.65730   0.49654   0.68761   0.00000  Uiso   1.00
C371   C     0.66670   0.54110   0.62004   0.00000  Uiso   1.00
C372   C     0.65704   0.60948   0.62874   0.00000  Uiso   1.00
C373   C     0.64756   0.72520   0.61137   0.00000  Uiso   1.00
C374   C     0.63118   0.38343   0.70126   0.00000  Uiso   1.00
C375   C     0.61863   0.33288   0.64518   0.00000  Uiso   1.00
C376   C     0.58698   0.30603   0.66540   0.00000  Uiso   1.00
C377   C     0.53697   0.24610   0.66927   0.00000  Uiso   1.00
C378   C     0.68390   0.40825   0.77875   0.00000  Uiso   1.00
C379   C     0.71566   0.37855   0.78782   0.00000  Uiso   1.00
C380   C     0.72839   0.37259   0.87327   0.00000  Uiso   1.00
C381   C     0.76022   0.35121   0.99745   0.00000  Uiso   1.00
C382   C     0.63133   0.46198   0.82718   0.00000  Uiso   1.00
C383   C     0.63890   0.51947   0.76127   0.00000  Uiso   1.00
C384   C     0.62923   0.58780   0.77008   0.00000  Uiso   1.00
C385   C     0.63861   0.63245   0.70254   0.00000  Uiso   1.00
C386   C     0.61279   0.40635   0.77492   0.00000  Uiso   1.00
C387   C     0.58115   0.37958   0.79523   0.00000  Uiso   1.00
C388   C     0.56855   0.32900   0.73919   0.00000  Uiso   1.00
C389   C     0.66550   0.43118   0.85241   0.00000  Uiso   1.00
C390   C     0.67819   0.42526   0.93787   0.00000  Uiso   1.00
C391   C     0.70996   0.39556   0.94707   0.00000  Uiso   1.00
H392   H     0.67952   0.40191   0.63421   0.00000  Uiso   1.00
H393   H     0.68093   0.52334   0.56304   0.00000  Uiso   1.00
H394   H     0.63287   0.31514   0.58819   0.00000  Uiso   1.00
H395   H     0.72989   0.36082   0.73080   0.00000  Uiso   1.00
H396   H     0.67438   0.66806   0.51660   0.00000  Uiso   1.00
H397   H     0.57304   0.22905   0.56965   0.00000  Uiso   1.00
H398   H     0.77762   0.32536   0.87038   0.00000  Uiso   1.00
H399   H     0.61700   0.47983   0.88453   0.00000  Uiso   1.00
H400   H     0.61499   0.60553   0.82709   0.00000  Uiso   1.00
H401   H     0.56693   0.39733   0.85224   0.00000  Uiso   1.00
H402   H     0.66394   0.44301   0.99486   0.00000  Uiso   1.00
H403   H     0.62085   0.73477   0.73091   0.00000  Uiso   1.00
H404   H     0.51952   0.29575   0.78396   0.00000  Uiso   1.00
H405   H     0.72409   0.39207   0.08469   0.00000  Uiso   1.00
O406   O     0.64741   0.78269   0.58144   0.00000  Uiso   1.00
O407   O     0.51446   0.20672   0.65105   0.00000  Uiso   1.00
O408   O     0.78286   0.33309   0.04559   0.00000  Uiso   1.00
N409   N     0.66206   0.66651   0.57493   0.00000  Uiso   1.00
N410   N     0.56732   0.25607   0.62452   0.00000  Uiso   1.00
N411   N     0.75858   0.34610   0.90568   0.00000  Uiso   1.00
N412   N     0.63326   0.70241   0.69025   0.00000  Uiso   1.00
N413   N     0.53852   0.29197   0.73984   0.00000  Uiso   1.00
N414   N     0.72977   0.38200   0.02100   0.00000  Uiso   1.00
C415   C     0.16520   0.91977   0.69156   0.00000  Uiso   1.00
C416   C     0.15730   0.99654   0.68761   0.00000  Uiso   1.00
C417   C     0.16670   0.04110   0.62004   0.00000  Uiso   1.00
C418   C     0.15704   0.10948   0.62874   0.00000  Uiso   1.00
C419   C     0.14756   0.22520   0.61137   0.00000  Uiso   1.00
C420   C     0.13118   0.88343   0.70126   0.00000  Uiso   1.00
C421   C     0.11863   0.83288   0.64518   0.00000  Uiso   1.00
C422   C     0.08698   0.80603   0.66540   0.00000  Uiso   1.00
C423   C     0.03697   0.74610   0.66927   0.00000  Uiso   1.00
C424   C     0.18390   0.90825   0.77875   0.00000  Uiso   1.00
C425   C     0.21566   0.87855   0.78782   0.00000  Uiso   1.00
C426   C     0.22839   0.87259   0.87327   0.00000  Uiso   1.00
C427   C     0.26022   0.85121   0.99745   0.00000  Uiso   1.00
C428   C     0.13133   0.96198   0.82718   0.00000  Uiso   1.00
C429   C     0.13890   0.01947   0.76127   0.00000  Uiso   1.00
C430   C     0.12923   0.08780   0.77008   0.00000  Uiso   1.00
C431   C     0.13861   0.13245   0.70254   0.00000  Uiso   1.00
C432   C     0.11279   0.90635   0.77492   0.00000  Uiso   1.00
C433   C     0.08115   0.87958   0.79523   0.00000  Uiso   1.00
C434   C     0.06855   0.82900   0.73919   0.00000  Uiso   1.00
C435   C     0.16550   0.93118   0.85241   0.00000  Uiso   1.00
C436   C     0.17819   0.92526   0.93787   0.00000  Uiso   1.00
C437   C     0.20996   0.89556   0.94707   0.00000  Uiso   1.00
H438   H     0.17952   0.90191   0.63421   0.00000  Uiso   1.00
H439   H     0.18093   0.02334   0.56304   0.00000  Uiso   1.00
H440   H     0.13287   0.81514   0.58819   0.00000  Uiso   1.00
H441   H     0.22989   0.86082   0.73080   0.00000  Uiso   1.00
H442   H     0.17438   0.16806   0.51660   0.00000  Uiso   1.00
H443   H     0.07304   0.72905   0.56965   0.00000  Uiso   1.00
H444   H     0.27762   0.82536   0.87038   0.00000  Uiso   1.00
H445   H     0.11700   0.97983   0.88453   0.00000  Uiso   1.00
H446   H     0.11499   0.10553   0.82709   0.00000  Uiso   1.00
H447   H     0.06693   0.89733   0.85224   0.00000  Uiso   1.00
H448   H     0.16394   0.94301   0.99486   0.00000  Uiso   1.00
H449   H     0.12085   0.23477   0.73091   0.00000  Uiso   1.00
H450   H     0.01952   0.79575   0.78396   0.00000  Uiso   1.00
H451   H     0.22409   0.89207   0.08469   0.00000  Uiso   1.00
O452   O     0.14741   0.28269   0.58144   0.00000  Uiso   1.00
O453   O     0.01446   0.70672   0.65105   0.00000  Uiso   1.00
O454   O     0.28286   0.83309   0.04559   0.00000  Uiso   1.00
N455   N     0.16206   0.16651   0.57493   0.00000  Uiso   1.00
N456   N     0.06732   0.75607   0.62452   0.00000  Uiso   1.00
N457   N     0.25858   0.84610   0.90568   0.00000  Uiso   1.00
N458   N     0.13326   0.20241   0.69025   0.00000  Uiso   1.00
N459   N     0.03852   0.79197   0.73984   0.00000  Uiso   1.00
N460   N     0.22977   0.88200   0.02100   0.00000  Uiso   1.00
C461   C     0.83480   0.08023   0.69156   0.00000  Uiso   1.00
C462   C     0.84270   0.00346   0.68761   0.00000  Uiso   1.00
C463   C     0.83330   0.95890   0.62004   0.00000  Uiso   1.00
C464   C     0.84296   0.89052   0.62874   0.00000  Uiso   1.00
C465   C     0.85244   0.77480   0.61137   0.00000  Uiso   1.00
C466   C     0.86882   0.11657   0.70126   0.00000  Uiso   1.00
C467   C     0.88137   0.16712   0.64518   0.00000  Uiso   1.00
C468   C     0.91302   0.19397   0.66540   0.00000  Uiso   1.00
C469   C     0.96303   0.25390   0.66927   0.00000  Uiso   1.00
C470   C     0.81610   0.09175   0.77875   0.00000  Uiso   1.00
C471   C     0.78434   0.12145   0.78782   0.00000  Uiso   1.00
C472   C     0.77161   0.12741   0.87327   0.00000  Uiso   1.00
C473   C     0.73978   0.14879   0.99745   0.00000  Uiso   1.00
C474   C     0.86867   0.03802   0.82718   0.00000  Uiso   1.00
C475   C     0.86110   0.98053   0.76127   0.00000  Uiso   1.00
C476   C     0.87077   0.91220   0.77008   0.00000  Uiso   1.00
C477   C     0.86139   0.86755   0.70254   0.00000  Uiso   1.00
C478   C     0.88721   0.09365   0.77492   0.00000  Uiso   1.00
C479   C     0.91885   0.12042   0.79523   0.00000  Uiso   1.00
C480   C     0.93145   0.17100   0.73919   0.00000  Uiso   1.00
C481   C     0.83450   0.06882   0.85241   0.00000  Uiso   1.00
C482   C     0.82181   0.07474   0.93787   0.00000  Uiso   1.00
C483   C     0.79004   0.10444   0.94707   0.00000  Uiso   1.00
H484   H     0.82048   0.09809   0.63421   0.00000  Uiso   1.00
H485   H     0.81907   0.97666   0.56304   0.00000  Uiso   1.00
H486   H     0.86713   0.18486   0.58819   0.00000  Uiso   1.00
H487   H     0.77011   0.13918   0.73080   0.00000  Uiso   1.00
H488   H     0.82562   0.83194   0.51660   0.00000  Uiso   1.00
H489   H     0.92696   0.27095   0.56965   0.00000  Uiso   1.00
H490   H     0.72238   0.17464   0.87038   0.00000  Uiso   1.00
H491   H     0.88300   0.02017   0.88453   0.00000  Uiso   1.00
H492   H     0.88501   0.89447   0.82709   0.00000  Uiso   1.00
H493   H     0.93307   0.10267   0.85224   0.00000  Uiso   1.00
H494   H     0.83606   0.05699   0.99486   0.00000  Uiso   1.00
H495   H     0.87915   0.76523   0.73091   0.00000  Uiso   1.00
H496   H     0.98048   0.20425   0.78396   0.00000  Uiso   1.00
H497   H     0.77591   0.10793   0.08469   0.00000  Uiso   1.00
O498   O     0.85259   0.71731   0.58144   0.00000  Uiso   1.00
O499   O     0.98554   0.29328   0.65105   0.00000  Uiso   1.00
O500   O     0.71714   0.16691   0.04559   0.00000  Uiso   1.00
N501   N     0.83794   0.83349   0.57493   0.00000  Uiso   1.00
N502   N     0.93268   0.24393   0.62452   0.00000  Uiso   1.00
N503   N     0.74142   0.15390   0.90568   0.00000  Uiso   1.00
N504   N     0.86674   0.79759   0.69025   0.00000  Uiso   1.00
N505   N     0.96148   0.20803   0.73984   0.00000  Uiso   1.00
N506   N     0.77023   0.11800   0.02100   0.00000  Uiso   1.00
C507   C     0.33480   0.58023   0.69156   0.00000  Uiso   1.00
C508   C     0.34270   0.50346   0.68761   0.00000  Uiso   1.00
C509   C     0.33330   0.45890   0.62004   0.00000  Uiso   1.00
C510   C     0.34296   0.39052   0.62874   0.00000  Uiso   1.00
C511   C     0.35244   0.27480   0.61137   0.00000  Uiso   1.00
C512   C     0.36882   0.61657   0.70126   0.00000  Uiso   1.00
C513   C     0.38137   0.66712   0.64518   0.00000  Uiso   1.00
C514   C     0.41302   0.69397   0.66540   0.00000  Uiso   1.00
C515   C     0.46303   0.75390   0.66927   0.00000  Uiso   1.00
C516   C     0.31610   0.59175   0.77875   0.00000  Uiso   1.00
C517   C     0.28434   0.62145   0.78782   0.00000  Uiso   1.00
C518   C     0.27161   0.62741   0.87327   0.00000  Uiso   1.00
C519   C     0.23978   0.64879   0.99745   0.00000  Uiso   1.00
C520   C     0.36867   0.53802   0.82718   0.00000  Uiso   1.00
C521   C     0.36110   0.48053   0.76127   0.00000  Uiso   1.00
C522   C     0.37077   0.41220   0.77008   0.00000  Uiso   1.00
C523   C     0.36139   0.36755   0.70254   0.00000  Uiso   1.00
C524   C     0.38721   0.59365   0.77492   0.00000  Uiso   1.00
C525   C     0.41885   0.62042   0.79523   0.00000  Uiso   1.00
C526   C     0.43145   0.67100   0.73919   0.00000  Uiso   1.00
C527   C     0.33450   0.56882   0.85241   0.00000  Uiso   1.00
C528   C     0.32181   0.57474   0.93787   0.00000  Uiso   1.00
C529   C     0.29004   0.60444   0.94707   0.00000  Uiso   1.00
H530   H     0.32048   0.59809   0.63421   0.00000  Uiso   1.00
H531   H     0.31907   0.47666   0.56304   0.00000  Uiso   1.00
H532   H     0.36713   0.68486   0.58819   0.00000  Uiso   1.00
H533   H     0.27011   0.63918   0.73080   0.00000  Uiso   1.00
H534   H     0.32562   0.33194   0.51660   0.00000  Uiso   1.00
H535   H     0.42696   0.77095   0.56965   0.00000  Uiso   1.00
H536   H     0.22238   0.67464   0.87038   0.00000  Uiso   1.00
H537   H     0.38300   0.52017   0.88453   0.00000  Uiso   1.00
H538   H     0.38501   0.39447   0.82709   0.00000  Uiso   1.00
H539   H     0.43307   0.60267   0.85224   0.00000  Uiso   1.00
H540   H     0.33606   0.55699   0.99486   0.00000  Uiso   1.00
H541   H     0.37915   0.26523   0.73091   0.00000  Uiso   1.00
H542   H     0.48048   0.70425   0.78396   0.00000  Uiso   1.00
H543   H     0.27591   0.60793   0.08469   0.00000  Uiso   1.00
O544   O     0.35259   0.21731   0.58144   0.00000  Uiso   1.00
O545   O     0.48554   0.79328   0.65105   0.00000  Uiso   1.00
O546   O     0.21714   0.66691   0.04559   0.00000  Uiso   1.00
N547   N     0.33794   0.33349   0.57493   0.00000  Uiso   1.00
N548   N     0.43268   0.74393   0.62452   0.00000  Uiso   1.00
N549   N     0.24142   0.65390   0.90568   0.00000  Uiso   1.00
N550   N     0.36674   0.29759   0.69025   0.00000  Uiso   1.00
N551   N     0.46148   0.70803   0.73984   0.00000  Uiso   1.00
N552   N     0.27023   0.61800   0.02100   0.00000  Uiso   1.00
C553   C     0.33480   0.41977   0.30844   0.00000  Uiso   1.00
C554   C     0.34270   0.49654   0.31239   0.00000  Uiso   1.00
C555   C     0.33330   0.54110   0.37996   0.00000  Uiso   1.00
C556   C     0.34296   0.60948   0.37126   0.00000  Uiso   1.00
C557   C     0.35244   0.72520   0.38863   0.00000  Uiso   1.00
C558   C     0.36882   0.38343   0.29874   0.00000  Uiso   1.00
C559   C     0.38137   0.33288   0.35482   0.00000  Uiso   1.00
C560   C     0.41302   0.30603   0.33460   0.00000  Uiso   1.00
C561   C     0.46303   0.24610   0.33073   0.00000  Uiso   1.00
C562   C     0.31610   0.40825   0.22125   0.00000  Uiso   1.00
C563   C     0.28434   0.37855   0.21218   0.00000  Uiso   1.00
C564   C     0.27161   0.37259   0.12673   0.00000  Uiso   1.00
C565   C     0.23978   0.35121   0.00255   0.00000  Uiso   1.00
C566   C     0.36867   0.46198   0.17282   0.00000  Uiso   1.00
C567   C     0.36110   0.51947   0.23873   0.00000  Uiso   1.00
C568   C     0.37077   0.58780   0.22992   0.00000  Uiso   1.00
C569   C     0.36139   0.63245   0.29746   0.00000  Uiso   1.00
C570   C     0.38721   0.40635   0.22508   0.00000  Uiso   1.00
C571   C     0.41885   0.37958   0.20477   0.00000  Uiso   1.00
C572   C     0.43145   0.32900   0.26081   0.00000  Uiso   1.00
C573   C     0.33450   0.43118   0.14759   0.00000  Uiso   1.00
C574   C     0.32181   0.42526   0.06213   0.00000  Uiso   1.00
C575   C     0.29004   0.39556   0.05293   0.00000  Uiso   1.00
H576   H     0.32048   0.40191   0.36579   0.00000  Uiso   1.00
H577   H     0.31907   0.52334   0.43696   0.00000  Uiso   1.00
H578   H     0.36713   0.31514   0.41181   0.00000  Uiso   1.00
H579   H     0.27011   0.36082   0.26920   0.00000  Uiso   1.00
H580   H     0.32562   0.66806   0.48340   0.00000  Uiso   1.00
H581   H     0.42696   0.22905   0.43035   0.00000  Uiso   1.00
H582   H     0.22238   0.32536   0.12962   0.00000  Uiso   1.00
H583   H     0.38300   0.47983   0.11547   0.00000  Uiso   1.00
H584   H     0.38501   0.60553   0.17291   0.00000  Uiso   1.00
H585   H     0.43307   0.39733   0.14776   0.00000  Uiso   1.00
H586   H     0.33606   0.44301   0.00514   0.00000  Uiso   1.00
H587   H     0.37915   0.73477   0.26909   0.00000  Uiso   1.00
H588   H     0.48048   0.29575   0.21604   0.00000  Uiso   1.00
H589   H     0.27591   0.39207   0.91531   0.00000  Uiso   1.00
O590   O     0.35259   0.78269   0.41856   0.00000  Uiso   1.00
O591   O     0.48554   0.20672   0.34895   0.00000  Uiso   1.00
O592   O     0.21714   0.33309   0.95441   0.00000  Uiso   1.00
N593   N     0.33794   0.66651   0.42507   0.00000  Uiso   1.00
N594   N     0.43268   0.25607   0.37548   0.00000  Uiso   1.00
N595   N     0.24142   0.34610   0.09432   0.00000  Uiso   1.00
N596   N     0.36674   0.70241   0.30975   0.00000  Uiso   1.00
N597   N     0.46148   0.29197   0.26016   0.00000  Uiso   1.00
N598   N     0.27023   0.38200   0.97900   0.00000  Uiso   1.00
C599   C     0.83480   0.91977   0.30844   0.00000  Uiso   1.00
C600   C     0.84270   0.99654   0.31239   0.00000  Uiso   1.00
C601   C     0.83330   0.04110   0.37996   0.00000  Uiso   1.00
C602   C     0.84296   0.10948   0.37126   0.00000  Uiso   1.00
C603   C     0.85244   0.22520   0.38863   0.00000  Uiso   1.00
C604   C     0.86882   0.88343   0.29874   0.00000  Uiso   1.00
C605   C     0.88137   0.83288   0.35482   0.00000  Uiso   1.00
C606   C     0.91302   0.80603   0.33460   0.00000  Uiso   1.00
C607   C     0.96303   0.74610   0.33073   0.00000  Uiso   1.00
C608   C     0.81610   0.90825   0.22125   0.00000  Uiso   1.00
C609   C     0.78434   0.87855   0.21218   0.00000  Uiso   1.00
C610   C     0.77161   0.87259   0.12673   0.00000  Uiso   1.00
C611   C     0.73978   0.85121   0.00255   0.00000  Uiso   1.00
C612   C     0.86867   0.96198   0.17282   0.00000  Uiso   1.00
C613   C     0.86110   0.01947   0.23873   0.00000  Uiso   1.00
C614   C     0.87077   0.08780   0.22992   0.00000  Uiso   1.00
C615   C     0.86139   0.13245   0.29746   0.00000  Uiso   1.00
C616   C     0.88721   0.90635   0.22508   0.00000  Uiso   1.00
C617   C     0.91885   0.87958   0.20477   0.00000  Uiso   1.00
C618   C     0.93145   0.82900   0.26081   0.00000  Uiso   1.00
C619   C     0.83450   0.93118   0.14759   0.00000  Uiso   1.00
C620   C     0.82181   0.92526   0.06213   0.00000  Uiso   1.00
C621   C     0.79004   0.89556   0.05293   0.00000  Uiso   1.00
H622   H     0.82048   0.90191   0.36579   0.00000  Uiso   1.00
H623   H     0.81907   0.02334   0.43696   0.00000  Uiso   1.00
H624   H     0.86713   0.81514   0.41181   0.00000  Uiso   1.00
H625   H     0.77011   0.86082   0.26920   0.00000  Uiso   1.00
H626   H     0.82562   0.16806   0.48340   0.00000  Uiso   1.00
H627   H     0.92696   0.72905   0.43035   0.00000  Uiso   1.00
H628   H     0.72238   0.82536   0.12962   0.00000  Uiso   1.00
H629   H     0.88300   0.97983   0.11547   0.00000  Uiso   1.00
H630   H     0.88501   0.10553   0.17291   0.00000  Uiso   1.00
H631   H     0.93307   0.89733   0.14776   0.00000  Uiso   1.00
H632   H     0.83606   0.94301   0.00514   0.00000  Uiso   1.00
H633   H     0.87915   0.23477   0.26909   0.00000  Uiso   1.00
H634   H     0.98048   0.79575   0.21604   0.00000  Uiso   1.00
H635   H     0.77591   0.89207   0.91531   0.00000  Uiso   1.00
O636   O     0.85259   0.28269   0.41856   0.00000  Uiso   1.00
O637   O     0.98554   0.70672   0.34895   0.00000  Uiso   1.00
O638   O     0.71714   0.83309   0.95441   0.00000  Uiso   1.00
N639   N     0.83794   0.16651   0.42507   0.00000  Uiso   1.00
N640   N     0.93268   0.75607   0.37548   0.00000  Uiso   1.00
N641   N     0.74142   0.84610   0.09432   0.00000  Uiso   1.00
N642   N     0.86674   0.20241   0.30975   0.00000  Uiso   1.00
N643   N     0.96148   0.79197   0.26016   0.00000  Uiso   1.00
N644   N     0.77023   0.88200   0.97900   0.00000  Uiso   1.00
C645   C     0.16520   0.08023   0.30844   0.00000  Uiso   1.00
C646   C     0.15730   0.00346   0.31239   0.00000  Uiso   1.00
C647   C     0.16670   0.95890   0.37996   0.00000  Uiso   1.00
C648   C     0.15704   0.89052   0.37126   0.00000  Uiso   1.00
C649   C     0.14756   0.77480   0.38863   0.00000  Uiso   1.00
C650   C     0.13118   0.11657   0.29874   0.00000  Uiso   1.00
C651   C     0.11863   0.16712   0.35482   0.00000  Uiso   1.00
C652   C     0.08698   0.19397   0.33460   0.00000  Uiso   1.00
C653   C     0.03697   0.25390   0.33073   0.00000  Uiso   1.00
C654   C     0.18390   0.09175   0.22125   0.00000  Uiso   1.00
C655   C     0.21566   0.12145   0.21218   0.00000  Uiso   1.00
C656   C     0.22839   0.12741   0.12673   0.00000  Uiso   1.00
C657   C     0.26022   0.14879   0.00255   0.00000  Uiso   1.00
C658   C     0.13133   0.03802   0.17282   0.00000  Uiso   1.00
C659   C     0.13890   0.98053   0.23873   0.00000  Uiso   1.00
C660   C     0.12923   0.91220   0.22992   0.00000  Uiso   1.00
C661   C     0.13861   0.86755   0.29746   0.00000  Uiso   1.00
C662   C     0.11279   0.09365   0.22508   0.00000  Uiso   1.00
C663   C     0.08115   0.12042   0.20477   0.00000  Uiso   1.00
C664   C     0.06855   0.17100   0.26081   0.00000  Uiso   1.00
C665   C     0.16550   0.06882   0.14759   0.00000  Uiso   1.00
C666   C     0.17819   0.07474   0.06213   0.00000  Uiso   1.00
C667   C     0.20996   0.10444   0.05293   0.00000  Uiso   1.00
H668   H     0.17952   0.09809   0.36579   0.00000  Uiso   1.00
H669   H     0.18093   0.97666   0.43696   0.00000  Uiso   1.00
H670   H     0.13287   0.18486   0.41181   0.00000  Uiso   1.00
H671   H     0.22989   0.13918   0.26920   0.00000  Uiso   1.00
H672   H     0.17438   0.83194   0.48340   0.00000  Uiso   1.00
H673   H     0.07304   0.27095   0.43035   0.00000  Uiso   1.00
H674   H     0.27762   0.17464   0.12962   0.00000  Uiso   1.00
H675   H     0.11700   0.02017   0.11547   0.00000  Uiso   1.00
H676   H     0.11499   0.89447   0.17291   0.00000  Uiso   1.00
H677   H     0.06693   0.10267   0.14776   0.00000  Uiso   1.00
H678   H     0.16394   0.05699   0.00514   0.00000  Uiso   1.00
H679   H     0.12085   0.76523   0.26909   0.00000  Uiso   1.00
H680   H     0.01952   0.20425   0.21604   0.00000  Uiso   1.00
H681   H     0.22409   0.10793   0.91531   0.00000  Uiso   1.00
O682   O     0.14741   0.71731   0.41856   0.00000  Uiso   1.00
O683   O     0.01446   0.29328   0.34895   0.00000  Uiso   1.00
O684   O     0.28286   0.16691   0.95441   0.00000  Uiso   1.00
N685   N     0.16206   0.83349   0.42507   0.00000  Uiso   1.00
N686   N     0.06732   0.24393   0.37548   0.00000  Uiso   1.00
N687   N     0.25858   0.15390   0.09432   0.00000  Uiso   1.00
N688   N     0.13326   0.79759   0.30975   0.00000  Uiso   1.00
N689   N     0.03852   0.20803   0.26016   0.00000  Uiso   1.00
N690   N     0.22977   0.11800   0.97900   0.00000  Uiso   1.00
C691   C     0.66520   0.58023   0.30844   0.00000  Uiso   1.00
C692   C     0.65730   0.50346   0.31239   0.00000  Uiso   1.00
C693   C     0.66670   0.45890   0.37996   0.00000  Uiso   1.00
C694   C     0.65704   0.39052   0.37126   0.00000  Uiso   1.00
C695   C     0.64756   0.27480   0.38863   0.00000  Uiso   1.00
C696   C     0.63118   0.61657   0.29874   0.00000  Uiso   1.00
C697   C     0.61863   0.66712   0.35482   0.00000  Uiso   1.00
C698   C     0.58698   0.69397   0.33460   0.00000  Uiso   1.00
C699   C     0.53697   0.75390   0.33073   0.00000  Uiso   1.00
C700   C     0.68390   0.59175   0.22125   0.00000  Uiso   1.00
C701   C     0.71566   0.62145   0.21218   0.00000  Uiso   1.00
C702   C     0.72839   0.62741   0.12673   0.00000  Uiso   1.00
C703   C     0.76022   0.64879   0.00255   0.00000  Uiso   1.00
C704   C     0.63133   0.53802   0.17282   0.00000  Uiso   1.00
C705   C     0.63890   0.48053   0.23873   0.00000  Uiso   1.00
C706   C     0.62923   0.41220   0.22992   0.00000  Uiso   1.00
C707   C     0.63861   0.36755   0.29746   0.00000  Uiso   1.00
C708   C     0.61279   0.59365   0.22508   0.00000  Uiso   1.00
C709   C     0.58115   0.62042   0.20477   0.00000  Uiso   1.00
C710   C     0.56855   0.67100   0.26081   0.00000  Uiso   1.00
C711   C     0.66550   0.56882   0.14759   0.00000  Uiso   1.00
C712   C     0.67819   0.57474   0.06213   0.00000  Uiso   1.00
C713   C     0.70996   0.60444   0.05293   0.00000  Uiso   1.00
H714   H     0.67952   0.59809   0.36579   0.00000  Uiso   1.00
H715   H     0.68093   0.47666   0.43696   0.00000  Uiso   1.00
H716   H     0.63287   0.68486   0.41181   0.00000  Uiso   1.00
H717   H     0.72989   0.63918   0.26920   0.00000  Uiso   1.00
H718   H     0.67438   0.33194   0.48340   0.00000  Uiso   1.00
H719   H     0.57304   0.77095   0.43035   0.00000  Uiso   1.00
H720   H     0.77762   0.67464   0.12962   0.00000  Uiso   1.00
H721   H     0.61700   0.52017   0.11547   0.00000  Uiso   1.00
H722   H     0.61499   0.39447   0.17291   0.00000  Uiso   1.00
H723   H     0.56693   0.60267   0.14776   0.00000  Uiso   1.00
H724   H     0.66394   0.55699   0.00514   0.00000  Uiso   1.00
H725   H     0.62085   0.26523   0.26909   0.00000  Uiso   1.00
H726   H     0.51952   0.70425   0.21604   0.00000  Uiso   1.00
H727   H     0.72409   0.60793   0.91531   0.00000  Uiso   1.00
O728   O     0.64741   0.21731   0.41856   0.00000  Uiso   1.00
O729   O     0.51446   0.79328   0.34895   0.00000  Uiso   1.00
O730   O     0.78286   0.66691   0.95441   0.00000  Uiso   1.00
N731   N     0.66206   0.33349   0.42507   0.00000  Uiso   1.00
N732   N     0.56732   0.74393   0.37548   0.00000  Uiso   1.00
N733   N     0.75858   0.65390   0.09432   0.00000  Uiso   1.00
N734   N     0.63326   0.29759   0.30975   0.00000  Uiso   1.00
N735   N     0.53852   0.70803   0.26016   0.00000  Uiso   1.00
N736   N     0.72977   0.61800   0.97900   0.00000  Uiso   1.00
