data_job_02813
_audit_creation_date              2018-12-19
_audit_creation_method            'Materials Studio'
_symmetry_space_group_name_H-M    'P1'
_symmetry_Int_Tables_number       1
_symmetry_cell_setting            triclinic
loop_
_symmetry_equiv_pos_as_xyz
  x,y,z
_cell_length_a                    27.7795
_cell_length_b                    27.7795
_cell_length_c                    15.0130
_cell_angle_alpha                 90.0000
_cell_angle_beta                  90.0000
_cell_angle_gamma                 90.0000
loop_
_atom_site_label
_atom_site_type_symbol
_atom_site_fract_x
_atom_site_fract_y
_atom_site_fract_z
_atom_site_U_iso_or_equiv
_atom_site_adp_type
_atom_site_occupancy
C1     C     0.36140   0.33600   0.71004   0.00000  Uiso   1.00
C2     C     0.32582   0.33754   0.78734   0.00000  Uiso   1.00
C3     C     0.30292   0.29804   0.82487   0.00000  Uiso   1.00
C4     C     0.27165   0.30698   0.89508   0.00000  Uiso   1.00
C5     C     0.21760   0.30225   0.01028   0.00000  Uiso   1.00
C6     C     0.34100   0.36936   0.63875   0.00000  Uiso   1.00
C7     C     0.33086   0.35662   0.55135   0.00000  Uiso   1.00
C8     C     0.31237   0.39235   0.49648   0.00000  Uiso   1.00
C9     C     0.28192   0.43703   0.38098   0.00000  Uiso   1.00
C10    C     0.40723   0.36012   0.74374   0.00000  Uiso   1.00
C11    C     0.45278   0.33962   0.74459   0.00000  Uiso   1.00
C12    C     0.49005   0.36758   0.77809   0.00000  Uiso   1.00
C13    C     0.56243   0.39792   0.82561   0.00000  Uiso   1.00
C14    C     0.34658   0.42211   0.76799   0.00000  Uiso   1.00
C15    C     0.31777   0.38431   0.81881   0.00000  Uiso   1.00
C16    C     0.28652   0.39331   0.88898   0.00000  Uiso   1.00
C17    C     0.26358   0.35383   0.92661   0.00000  Uiso   1.00
C18    C     0.33295   0.41613   0.67022   0.00000  Uiso   1.00
C19    C     0.31446   0.45188   0.61546   0.00000  Uiso   1.00
C20    C     0.30430   0.43920   0.52801   0.00000  Uiso   1.00
C21    C     0.39917   0.40689   0.77521   0.00000  Uiso   1.00
C22    C     0.43638   0.43488   0.80871   0.00000  Uiso   1.00
C23    C     0.48198   0.41443   0.80962   0.00000  Uiso   1.00
H24    H     0.36767   0.29959   0.68553   0.00000  Uiso   1.00
H25    H     0.30916   0.26185   0.80049   0.00000  Uiso   1.00
H26    H     0.33710   0.32043   0.52701   0.00000  Uiso   1.00
H27    H     0.45900   0.30343   0.72023   0.00000  Uiso   1.00
H28    H     0.24073   0.24064   0.94180   0.00000  Uiso   1.00
H29    H     0.29966   0.36415   0.36515   0.00000  Uiso   1.00
H30    H     0.55671   0.32831   0.77259   0.00000  Uiso   1.00
H31    H     0.34031   0.45852   0.79249   0.00000  Uiso   1.00
H32    H     0.28030   0.42950   0.91332   0.00000  Uiso   1.00
H33    H     0.30824   0.48807   0.63984   0.00000  Uiso   1.00
H34    H     0.43014   0.47108   0.83306   0.00000  Uiso   1.00
H35    H     0.21730   0.37671   0.03338   0.00000  Uiso   1.00
H36    H     0.27623   0.50021   0.45672   0.00000  Uiso   1.00
H37    H     0.53328   0.46437   0.86417   0.00000  Uiso   1.00
O38    O     0.19001   0.28672   0.06512   0.00000  Uiso   1.00
O39    O     0.26734   0.44875   0.30858   0.00000  Uiso   1.00
O40    O     0.60458   0.40173   0.84313   0.00000  Uiso   1.00
N41    N     0.24346   0.27665   0.94678   0.00000  Uiso   1.00
N42    N     0.29855   0.39211   0.40765   0.00000  Uiso   1.00
N43    N     0.53887   0.35861   0.78855   0.00000  Uiso   1.00
N44    N     0.23085   0.34986   0.99606   0.00000  Uiso   1.00
N45    N     0.28594   0.46533   0.45693   0.00000  Uiso   1.00
N46    N     0.52626   0.43183   0.83783   0.00000  Uiso   1.00
C47    C     0.86140   0.83600   0.21004   0.00000  Uiso   1.00
C48    C     0.82582   0.83754   0.28734   0.00000  Uiso   1.00
C49    C     0.80292   0.79804   0.32487   0.00000  Uiso   1.00
C50    C     0.77165   0.80698   0.39508   0.00000  Uiso   1.00
C51    C     0.71760   0.80225   0.51028   0.00000  Uiso   1.00
C52    C     0.84100   0.86936   0.13875   0.00000  Uiso   1.00
C53    C     0.83086   0.85662   0.05135   0.00000  Uiso   1.00
C54    C     0.81237   0.89235   0.99648   0.00000  Uiso   1.00
C55    C     0.78192   0.93703   0.88098   0.00000  Uiso   1.00
C56    C     0.90723   0.86012   0.24374   0.00000  Uiso   1.00
C57    C     0.95278   0.83962   0.24459   0.00000  Uiso   1.00
C58    C     0.99005   0.86758   0.27809   0.00000  Uiso   1.00
C59    C     0.06243   0.89792   0.32561   0.00000  Uiso   1.00
C60    C     0.84658   0.92211   0.26799   0.00000  Uiso   1.00
C61    C     0.81777   0.88431   0.31881   0.00000  Uiso   1.00
C62    C     0.78652   0.89331   0.38898   0.00000  Uiso   1.00
C63    C     0.76358   0.85383   0.42661   0.00000  Uiso   1.00
C64    C     0.83295   0.91613   0.17022   0.00000  Uiso   1.00
C65    C     0.81446   0.95188   0.11546   0.00000  Uiso   1.00
C66    C     0.80430   0.93920   0.02801   0.00000  Uiso   1.00
C67    C     0.89917   0.90689   0.27521   0.00000  Uiso   1.00
C68    C     0.93638   0.93488   0.30871   0.00000  Uiso   1.00
C69    C     0.98198   0.91443   0.30962   0.00000  Uiso   1.00
H70    H     0.86767   0.79959   0.18553   0.00000  Uiso   1.00
H71    H     0.80916   0.76185   0.30049   0.00000  Uiso   1.00
H72    H     0.83710   0.82043   0.02701   0.00000  Uiso   1.00
H73    H     0.95900   0.80343   0.22023   0.00000  Uiso   1.00
H74    H     0.74073   0.74064   0.44180   0.00000  Uiso   1.00
H75    H     0.79966   0.86415   0.86515   0.00000  Uiso   1.00
H76    H     0.05671   0.82831   0.27259   0.00000  Uiso   1.00
H77    H     0.84031   0.95852   0.29249   0.00000  Uiso   1.00
H78    H     0.78030   0.92950   0.41332   0.00000  Uiso   1.00
H79    H     0.80824   0.98807   0.13984   0.00000  Uiso   1.00
H80    H     0.93014   0.97108   0.33306   0.00000  Uiso   1.00
H81    H     0.71730   0.87671   0.53338   0.00000  Uiso   1.00
H82    H     0.77623   0.00021   0.95672   0.00000  Uiso   1.00
H83    H     0.03328   0.96437   0.36417   0.00000  Uiso   1.00
O84    O     0.69001   0.78672   0.56512   0.00000  Uiso   1.00
O85    O     0.76734   0.94875   0.80858   0.00000  Uiso   1.00
O86    O     0.10458   0.90173   0.34313   0.00000  Uiso   1.00
N87    N     0.74346   0.77665   0.44678   0.00000  Uiso   1.00
N88    N     0.79855   0.89211   0.90765   0.00000  Uiso   1.00
N89    N     0.03887   0.85861   0.28855   0.00000  Uiso   1.00
N90    N     0.73085   0.84986   0.49606   0.00000  Uiso   1.00
N91    N     0.78594   0.96533   0.95693   0.00000  Uiso   1.00
N92    N     0.02626   0.93183   0.33783   0.00000  Uiso   1.00
C93    C     0.13860   0.16400   0.21004   0.00000  Uiso   1.00
C94    C     0.17418   0.16246   0.28734   0.00000  Uiso   1.00
C95    C     0.19708   0.20196   0.32487   0.00000  Uiso   1.00
C96    C     0.22835   0.19302   0.39508   0.00000  Uiso   1.00
C97    C     0.28240   0.19775   0.51028   0.00000  Uiso   1.00
C98    C     0.15900   0.13064   0.13875   0.00000  Uiso   1.00
C99    C     0.16914   0.14338   0.05135   0.00000  Uiso   1.00
C100   C     0.18763   0.10765   0.99648   0.00000  Uiso   1.00
C101   C     0.21808   0.06297   0.88098   0.00000  Uiso   1.00
C102   C     0.09277   0.13988   0.24374   0.00000  Uiso   1.00
C103   C     0.04722   0.16038   0.24459   0.00000  Uiso   1.00
C104   C     0.00995   0.13242   0.27809   0.00000  Uiso   1.00
C105   C     0.93757   0.10208   0.32561   0.00000  Uiso   1.00
C106   C     0.15342   0.07789   0.26799   0.00000  Uiso   1.00
C107   C     0.18223   0.11569   0.31881   0.00000  Uiso   1.00
C108   C     0.21348   0.10669   0.38898   0.00000  Uiso   1.00
C109   C     0.23642   0.14617   0.42661   0.00000  Uiso   1.00
C110   C     0.16705   0.08387   0.17022   0.00000  Uiso   1.00
C111   C     0.18554   0.04812   0.11546   0.00000  Uiso   1.00
C112   C     0.19570   0.06080   0.02801   0.00000  Uiso   1.00
C113   C     0.10083   0.09311   0.27521   0.00000  Uiso   1.00
C114   C     0.06362   0.06512   0.30871   0.00000  Uiso   1.00
C115   C     0.01802   0.08557   0.30962   0.00000  Uiso   1.00
H116   H     0.13233   0.20041   0.18553   0.00000  Uiso   1.00
H117   H     0.19084   0.23815   0.30049   0.00000  Uiso   1.00
H118   H     0.16290   0.17957   0.02701   0.00000  Uiso   1.00
H119   H     0.04100   0.19657   0.22023   0.00000  Uiso   1.00
H120   H     0.25927   0.25936   0.44180   0.00000  Uiso   1.00
H121   H     0.20034   0.13585   0.86515   0.00000  Uiso   1.00
H122   H     0.94329   0.17169   0.27259   0.00000  Uiso   1.00
H123   H     0.15969   0.04148   0.29249   0.00000  Uiso   1.00
H124   H     0.21970   0.07050   0.41332   0.00000  Uiso   1.00
H125   H     0.19176   0.01193   0.13984   0.00000  Uiso   1.00
H126   H     0.06986   0.02892   0.33306   0.00000  Uiso   1.00
H127   H     0.28270   0.12329   0.53338   0.00000  Uiso   1.00
H128   H     0.22377   0.99979   0.95672   0.00000  Uiso   1.00
H129   H     0.96672   0.03563   0.36417   0.00000  Uiso   1.00
O130   O     0.30999   0.21328   0.56512   0.00000  Uiso   1.00
O131   O     0.23266   0.05125   0.80858   0.00000  Uiso   1.00
O132   O     0.89542   0.09827   0.34313   0.00000  Uiso   1.00
N133   N     0.25654   0.22335   0.44678   0.00000  Uiso   1.00
N134   N     0.20145   0.10789   0.90765   0.00000  Uiso   1.00
N135   N     0.96113   0.14139   0.28855   0.00000  Uiso   1.00
N136   N     0.26915   0.15014   0.49606   0.00000  Uiso   1.00
N137   N     0.21406   0.03467   0.95693   0.00000  Uiso   1.00
N138   N     0.97374   0.06817   0.33783   0.00000  Uiso   1.00
C139   C     0.63860   0.66400   0.71004   0.00000  Uiso   1.00
C140   C     0.67418   0.66246   0.78734   0.00000  Uiso   1.00
C141   C     0.69708   0.70196   0.82487   0.00000  Uiso   1.00
C142   C     0.72835   0.69302   0.89508   0.00000  Uiso   1.00
C143   C     0.78240   0.69775   0.01028   0.00000  Uiso   1.00
C144   C     0.65900   0.63064   0.63875   0.00000  Uiso   1.00
C145   C     0.66914   0.64338   0.55135   0.00000  Uiso   1.00
C146   C     0.68763   0.60765   0.49648   0.00000  Uiso   1.00
C147   C     0.71808   0.56297   0.38098   0.00000  Uiso   1.00
C148   C     0.59277   0.63988   0.74374   0.00000  Uiso   1.00
C149   C     0.54722   0.66038   0.74459   0.00000  Uiso   1.00
C150   C     0.50995   0.63242   0.77809   0.00000  Uiso   1.00
C151   C     0.43757   0.60208   0.82561   0.00000  Uiso   1.00
C152   C     0.65342   0.57789   0.76799   0.00000  Uiso   1.00
C153   C     0.68223   0.61569   0.81881   0.00000  Uiso   1.00
C154   C     0.71348   0.60669   0.88898   0.00000  Uiso   1.00
C155   C     0.73642   0.64617   0.92661   0.00000  Uiso   1.00
C156   C     0.66705   0.58387   0.67022   0.00000  Uiso   1.00
C157   C     0.68554   0.54812   0.61546   0.00000  Uiso   1.00
C158   C     0.69570   0.56080   0.52801   0.00000  Uiso   1.00
C159   C     0.60083   0.59311   0.77521   0.00000  Uiso   1.00
C160   C     0.56362   0.56512   0.80871   0.00000  Uiso   1.00
C161   C     0.51802   0.58557   0.80962   0.00000  Uiso   1.00
H162   H     0.63233   0.70041   0.68553   0.00000  Uiso   1.00
H163   H     0.69084   0.73815   0.80049   0.00000  Uiso   1.00
H164   H     0.66290   0.67957   0.52701   0.00000  Uiso   1.00
H165   H     0.54100   0.69657   0.72023   0.00000  Uiso   1.00
H166   H     0.75927   0.75936   0.94180   0.00000  Uiso   1.00
H167   H     0.70034   0.63585   0.36515   0.00000  Uiso   1.00
H168   H     0.44329   0.67169   0.77259   0.00000  Uiso   1.00
H169   H     0.65969   0.54148   0.79249   0.00000  Uiso   1.00
H170   H     0.71970   0.57050   0.91332   0.00000  Uiso   1.00
H171   H     0.69176   0.51193   0.63984   0.00000  Uiso   1.00
H172   H     0.56986   0.52892   0.83306   0.00000  Uiso   1.00
H173   H     0.78270   0.62329   0.03338   0.00000  Uiso   1.00
H174   H     0.72377   0.49979   0.45672   0.00000  Uiso   1.00
H175   H     0.46672   0.53563   0.86417   0.00000  Uiso   1.00
O176   O     0.80999   0.71328   0.06512   0.00000  Uiso   1.00
O177   O     0.73266   0.55125   0.30858   0.00000  Uiso   1.00
O178   O     0.39542   0.59827   0.84313   0.00000  Uiso   1.00
N179   N     0.75654   0.72335   0.94678   0.00000  Uiso   1.00
N180   N     0.70145   0.60789   0.40765   0.00000  Uiso   1.00
N181   N     0.46113   0.64139   0.78855   0.00000  Uiso   1.00
N182   N     0.76915   0.65014   0.99606   0.00000  Uiso   1.00
N183   N     0.71406   0.53467   0.45693   0.00000  Uiso   1.00
N184   N     0.47374   0.56817   0.83783   0.00000  Uiso   1.00
C185   C     0.66400   0.86140   0.96004   0.00000  Uiso   1.00
C186   C     0.66246   0.82582   0.03734   0.00000  Uiso   1.00
C187   C     0.70196   0.80292   0.07487   0.00000  Uiso   1.00
C188   C     0.69302   0.77165   0.14508   0.00000  Uiso   1.00
C189   C     0.69775   0.71760   0.26028   0.00000  Uiso   1.00
C190   C     0.63064   0.84100   0.88875   0.00000  Uiso   1.00
C191   C     0.64338   0.83086   0.80135   0.00000  Uiso   1.00
C192   C     0.60765   0.81237   0.74648   0.00000  Uiso   1.00
C193   C     0.56297   0.78192   0.63098   0.00000  Uiso   1.00
C194   C     0.63988   0.90723   0.99374   0.00000  Uiso   1.00
C195   C     0.66038   0.95278   0.99459   0.00000  Uiso   1.00
C196   C     0.63242   0.99005   0.02809   0.00000  Uiso   1.00
C197   C     0.60208   0.06243   0.07561   0.00000  Uiso   1.00
C198   C     0.57789   0.84658   0.01799   0.00000  Uiso   1.00
C199   C     0.61569   0.81777   0.06881   0.00000  Uiso   1.00
C200   C     0.60669   0.78652   0.13898   0.00000  Uiso   1.00
C201   C     0.64617   0.76358   0.17661   0.00000  Uiso   1.00
C202   C     0.58387   0.83295   0.92022   0.00000  Uiso   1.00
C203   C     0.54812   0.81446   0.86546   0.00000  Uiso   1.00
C204   C     0.56080   0.80430   0.77801   0.00000  Uiso   1.00
C205   C     0.59311   0.89917   0.02521   0.00000  Uiso   1.00
C206   C     0.56512   0.93638   0.05871   0.00000  Uiso   1.00
C207   C     0.58557   0.98198   0.05962   0.00000  Uiso   1.00
H208   H     0.70041   0.86767   0.93553   0.00000  Uiso   1.00
H209   H     0.73815   0.80916   0.05049   0.00000  Uiso   1.00
H210   H     0.67957   0.83710   0.77701   0.00000  Uiso   1.00
H211   H     0.69657   0.95900   0.97023   0.00000  Uiso   1.00
H212   H     0.75936   0.74073   0.19180   0.00000  Uiso   1.00
H213   H     0.63585   0.79966   0.61515   0.00000  Uiso   1.00
H214   H     0.67169   0.05671   0.02259   0.00000  Uiso   1.00
H215   H     0.54148   0.84031   0.04249   0.00000  Uiso   1.00
H216   H     0.57050   0.78030   0.16332   0.00000  Uiso   1.00
H217   H     0.51193   0.80824   0.88984   0.00000  Uiso   1.00
H218   H     0.52892   0.93014   0.08306   0.00000  Uiso   1.00
H219   H     0.62329   0.71730   0.28338   0.00000  Uiso   1.00
H220   H     0.49979   0.77623   0.70672   0.00000  Uiso   1.00
H221   H     0.53563   0.03328   0.11417   0.00000  Uiso   1.00
O222   O     0.71328   0.69001   0.31512   0.00000  Uiso   1.00
O223   O     0.55125   0.76734   0.55858   0.00000  Uiso   1.00
O224   O     0.59827   0.10458   0.09313   0.00000  Uiso   1.00
N225   N     0.72335   0.74346   0.19678   0.00000  Uiso   1.00
N226   N     0.60789   0.79855   0.65765   0.00000  Uiso   1.00
N227   N     0.64139   0.03887   0.03855   0.00000  Uiso   1.00
N228   N     0.65014   0.73085   0.24606   0.00000  Uiso   1.00
N229   N     0.53467   0.78594   0.70693   0.00000  Uiso   1.00
N230   N     0.56817   0.02626   0.08783   0.00000  Uiso   1.00
C231   C     0.16400   0.36140   0.46004   0.00000  Uiso   1.00
C232   C     0.16246   0.32582   0.53734   0.00000  Uiso   1.00
C233   C     0.20196   0.30292   0.57487   0.00000  Uiso   1.00
C234   C     0.19302   0.27165   0.64508   0.00000  Uiso   1.00
C235   C     0.19775   0.21760   0.76028   0.00000  Uiso   1.00
C236   C     0.13064   0.34100   0.38875   0.00000  Uiso   1.00
C237   C     0.14338   0.33086   0.30135   0.00000  Uiso   1.00
C238   C     0.10765   0.31237   0.24648   0.00000  Uiso   1.00
C239   C     0.06297   0.28192   0.13098   0.00000  Uiso   1.00
C240   C     0.13988   0.40723   0.49374   0.00000  Uiso   1.00
C241   C     0.16038   0.45278   0.49459   0.00000  Uiso   1.00
C242   C     0.13242   0.49005   0.52809   0.00000  Uiso   1.00
C243   C     0.10208   0.56243   0.57561   0.00000  Uiso   1.00
C244   C     0.07789   0.34658   0.51799   0.00000  Uiso   1.00
C245   C     0.11569   0.31777   0.56881   0.00000  Uiso   1.00
C246   C     0.10669   0.28652   0.63898   0.00000  Uiso   1.00
C247   C     0.14617   0.26358   0.67661   0.00000  Uiso   1.00
C248   C     0.08387   0.33295   0.42022   0.00000  Uiso   1.00
C249   C     0.04812   0.31446   0.36546   0.00000  Uiso   1.00
C250   C     0.06080   0.30430   0.27801   0.00000  Uiso   1.00
C251   C     0.09311   0.39917   0.52521   0.00000  Uiso   1.00
C252   C     0.06512   0.43638   0.55871   0.00000  Uiso   1.00
C253   C     0.08557   0.48198   0.55962   0.00000  Uiso   1.00
H254   H     0.20041   0.36767   0.43553   0.00000  Uiso   1.00
H255   H     0.23815   0.30916   0.55049   0.00000  Uiso   1.00
H256   H     0.17957   0.33710   0.27701   0.00000  Uiso   1.00
H257   H     0.19657   0.45900   0.47023   0.00000  Uiso   1.00
H258   H     0.25936   0.24073   0.69180   0.00000  Uiso   1.00
H259   H     0.13585   0.29966   0.11515   0.00000  Uiso   1.00
H260   H     0.17169   0.55671   0.52259   0.00000  Uiso   1.00
H261   H     0.04148   0.34031   0.54249   0.00000  Uiso   1.00
H262   H     0.07050   0.28030   0.66332   0.00000  Uiso   1.00
H263   H     0.01193   0.30824   0.38984   0.00000  Uiso   1.00
H264   H     0.02892   0.43014   0.58306   0.00000  Uiso   1.00
H265   H     0.12329   0.21730   0.78338   0.00000  Uiso   1.00
H266   H     0.99979   0.27623   0.20672   0.00000  Uiso   1.00
H267   H     0.03563   0.53328   0.61417   0.00000  Uiso   1.00
O268   O     0.21328   0.19001   0.81512   0.00000  Uiso   1.00
O269   O     0.05125   0.26734   0.05858   0.00000  Uiso   1.00
O270   O     0.09827   0.60458   0.59313   0.00000  Uiso   1.00
N271   N     0.22335   0.24346   0.69678   0.00000  Uiso   1.00
N272   N     0.10789   0.29855   0.15765   0.00000  Uiso   1.00
N273   N     0.14139   0.53887   0.53855   0.00000  Uiso   1.00
N274   N     0.15014   0.23085   0.74606   0.00000  Uiso   1.00
N275   N     0.03467   0.28594   0.20693   0.00000  Uiso   1.00
N276   N     0.06817   0.52626   0.58783   0.00000  Uiso   1.00
C277   C     0.83600   0.63860   0.46004   0.00000  Uiso   1.00
C278   C     0.83754   0.67418   0.53734   0.00000  Uiso   1.00
C279   C     0.79804   0.69708   0.57487   0.00000  Uiso   1.00
C280   C     0.80698   0.72835   0.64508   0.00000  Uiso   1.00
C281   C     0.80225   0.78240   0.76028   0.00000  Uiso   1.00
C282   C     0.86936   0.65900   0.38875   0.00000  Uiso   1.00
C283   C     0.85662   0.66914   0.30135   0.00000  Uiso   1.00
C284   C     0.89235   0.68763   0.24648   0.00000  Uiso   1.00
C285   C     0.93703   0.71808   0.13098   0.00000  Uiso   1.00
C286   C     0.86012   0.59277   0.49374   0.00000  Uiso   1.00
C287   C     0.83962   0.54722   0.49459   0.00000  Uiso   1.00
C288   C     0.86758   0.50995   0.52809   0.00000  Uiso   1.00
C289   C     0.89792   0.43757   0.57561   0.00000  Uiso   1.00
C290   C     0.92211   0.65342   0.51799   0.00000  Uiso   1.00
C291   C     0.88431   0.68223   0.56881   0.00000  Uiso   1.00
C292   C     0.89331   0.71348   0.63898   0.00000  Uiso   1.00
C293   C     0.85383   0.73642   0.67661   0.00000  Uiso   1.00
C294   C     0.91613   0.66705   0.42022   0.00000  Uiso   1.00
C295   C     0.95188   0.68554   0.36546   0.00000  Uiso   1.00
C296   C     0.93920   0.69570   0.27801   0.00000  Uiso   1.00
C297   C     0.90689   0.60083   0.52521   0.00000  Uiso   1.00
C298   C     0.93488   0.56362   0.55871   0.00000  Uiso   1.00
C299   C     0.91443   0.51802   0.55962   0.00000  Uiso   1.00
H300   H     0.79959   0.63233   0.43553   0.00000  Uiso   1.00
H301   H     0.76185   0.69084   0.55049   0.00000  Uiso   1.00
H302   H     0.82043   0.66290   0.27701   0.00000  Uiso   1.00
H303   H     0.80343   0.54100   0.47023   0.00000  Uiso   1.00
H304   H     0.74064   0.75927   0.69180   0.00000  Uiso   1.00
H305   H     0.86415   0.70034   0.11515   0.00000  Uiso   1.00
H306   H     0.82831   0.44329   0.52259   0.00000  Uiso   1.00
H307   H     0.95852   0.65969   0.54249   0.00000  Uiso   1.00
H308   H     0.92950   0.71970   0.66332   0.00000  Uiso   1.00
H309   H     0.98807   0.69176   0.38984   0.00000  Uiso   1.00
H310   H     0.97108   0.56986   0.58306   0.00000  Uiso   1.00
H311   H     0.87671   0.78270   0.78338   0.00000  Uiso   1.00
H312   H     0.00021   0.72377   0.20672   0.00000  Uiso   1.00
H313   H     0.96437   0.46672   0.61417   0.00000  Uiso   1.00
O314   O     0.78672   0.80999   0.81512   0.00000  Uiso   1.00
O315   O     0.94875   0.73266   0.05858   0.00000  Uiso   1.00
O316   O     0.90173   0.39542   0.59313   0.00000  Uiso   1.00
N317   N     0.77665   0.75654   0.69678   0.00000  Uiso   1.00
N318   N     0.89211   0.70145   0.15765   0.00000  Uiso   1.00
N319   N     0.85861   0.46113   0.53855   0.00000  Uiso   1.00
N320   N     0.84986   0.76915   0.74606   0.00000  Uiso   1.00
N321   N     0.96533   0.71406   0.20693   0.00000  Uiso   1.00
N322   N     0.93183   0.47374   0.58783   0.00000  Uiso   1.00
C323   C     0.33600   0.13860   0.96004   0.00000  Uiso   1.00
C324   C     0.33754   0.17418   0.03734   0.00000  Uiso   1.00
C325   C     0.29804   0.19708   0.07487   0.00000  Uiso   1.00
C326   C     0.30698   0.22835   0.14508   0.00000  Uiso   1.00
C327   C     0.30225   0.28240   0.26028   0.00000  Uiso   1.00
C328   C     0.36936   0.15900   0.88875   0.00000  Uiso   1.00
C329   C     0.35662   0.16914   0.80135   0.00000  Uiso   1.00
C330   C     0.39235   0.18763   0.74648   0.00000  Uiso   1.00
C331   C     0.43703   0.21808   0.63098   0.00000  Uiso   1.00
C332   C     0.36012   0.09277   0.99374   0.00000  Uiso   1.00
C333   C     0.33962   0.04722   0.99459   0.00000  Uiso   1.00
C334   C     0.36758   0.00995   0.02809   0.00000  Uiso   1.00
C335   C     0.39792   0.93757   0.07561   0.00000  Uiso   1.00
C336   C     0.42211   0.15342   0.01799   0.00000  Uiso   1.00
C337   C     0.38431   0.18223   0.06881   0.00000  Uiso   1.00
C338   C     0.39331   0.21348   0.13898   0.00000  Uiso   1.00
C339   C     0.35383   0.23642   0.17661   0.00000  Uiso   1.00
C340   C     0.41613   0.16705   0.92022   0.00000  Uiso   1.00
C341   C     0.45188   0.18554   0.86546   0.00000  Uiso   1.00
C342   C     0.43920   0.19570   0.77801   0.00000  Uiso   1.00
C343   C     0.40689   0.10083   0.02521   0.00000  Uiso   1.00
C344   C     0.43488   0.06362   0.05871   0.00000  Uiso   1.00
C345   C     0.41443   0.01802   0.05962   0.00000  Uiso   1.00
H346   H     0.29959   0.13233   0.93553   0.00000  Uiso   1.00
H347   H     0.26185   0.19084   0.05049   0.00000  Uiso   1.00
H348   H     0.32043   0.16290   0.77701   0.00000  Uiso   1.00
H349   H     0.30343   0.04100   0.97023   0.00000  Uiso   1.00
H350   H     0.24064   0.25927   0.19180   0.00000  Uiso   1.00
H351   H     0.36415   0.20034   0.61515   0.00000  Uiso   1.00
H352   H     0.32831   0.94329   0.02259   0.00000  Uiso   1.00
H353   H     0.45852   0.15969   0.04249   0.00000  Uiso   1.00
H354   H     0.42950   0.21970   0.16332   0.00000  Uiso   1.00
H355   H     0.48807   0.19176   0.88984   0.00000  Uiso   1.00
H356   H     0.47108   0.06986   0.08306   0.00000  Uiso   1.00
H357   H     0.37671   0.28270   0.28338   0.00000  Uiso   1.00
H358   H     0.50021   0.22377   0.70672   0.00000  Uiso   1.00
H359   H     0.46437   0.96672   0.11417   0.00000  Uiso   1.00
O360   O     0.28672   0.30999   0.31512   0.00000  Uiso   1.00
O361   O     0.44875   0.23266   0.55858   0.00000  Uiso   1.00
O362   O     0.40173   0.89542   0.09313   0.00000  Uiso   1.00
N363   N     0.27665   0.25654   0.19678   0.00000  Uiso   1.00
N364   N     0.39211   0.20145   0.65765   0.00000  Uiso   1.00
N365   N     0.35861   0.96113   0.03855   0.00000  Uiso   1.00
N366   N     0.34986   0.26915   0.24606   0.00000  Uiso   1.00
N367   N     0.46533   0.21406   0.70693   0.00000  Uiso   1.00
N368   N     0.43183   0.97374   0.08783   0.00000  Uiso   1.00
C369   C     0.63860   0.16400   0.53996   0.00000  Uiso   1.00
C370   C     0.67418   0.16246   0.46266   0.00000  Uiso   1.00
C371   C     0.69708   0.20196   0.42513   0.00000  Uiso   1.00
C372   C     0.72835   0.19302   0.35492   0.00000  Uiso   1.00
C373   C     0.78240   0.19775   0.23972   0.00000  Uiso   1.00
C374   C     0.65900   0.13064   0.61125   0.00000  Uiso   1.00
C375   C     0.66914   0.14338   0.69865   0.00000  Uiso   1.00
C376   C     0.68763   0.10765   0.75352   0.00000  Uiso   1.00
C377   C     0.71808   0.06297   0.86902   0.00000  Uiso   1.00
C378   C     0.59277   0.13988   0.50626   0.00000  Uiso   1.00
C379   C     0.54722   0.16038   0.50541   0.00000  Uiso   1.00
C380   C     0.50995   0.13242   0.47191   0.00000  Uiso   1.00
C381   C     0.43757   0.10208   0.42439   0.00000  Uiso   1.00
C382   C     0.65342   0.07789   0.48201   0.00000  Uiso   1.00
C383   C     0.68223   0.11569   0.43119   0.00000  Uiso   1.00
C384   C     0.71348   0.10669   0.36102   0.00000  Uiso   1.00
C385   C     0.73642   0.14617   0.32339   0.00000  Uiso   1.00
C386   C     0.66705   0.08387   0.57978   0.00000  Uiso   1.00
C387   C     0.68554   0.04812   0.63454   0.00000  Uiso   1.00
C388   C     0.69570   0.06080   0.72199   0.00000  Uiso   1.00
C389   C     0.60083   0.09311   0.47479   0.00000  Uiso   1.00
C390   C     0.56362   0.06512   0.44129   0.00000  Uiso   1.00
C391   C     0.51802   0.08557   0.44038   0.00000  Uiso   1.00
H392   H     0.63233   0.20041   0.56447   0.00000  Uiso   1.00
H393   H     0.69084   0.23815   0.44951   0.00000  Uiso   1.00
H394   H     0.66290   0.17957   0.72299   0.00000  Uiso   1.00
H395   H     0.54100   0.19657   0.52977   0.00000  Uiso   1.00
H396   H     0.75927   0.25936   0.30820   0.00000  Uiso   1.00
H397   H     0.70034   0.13585   0.88485   0.00000  Uiso   1.00
H398   H     0.44329   0.17169   0.47741   0.00000  Uiso   1.00
H399   H     0.65969   0.04148   0.45751   0.00000  Uiso   1.00
H400   H     0.71970   0.07050   0.33668   0.00000  Uiso   1.00
H401   H     0.69176   0.01193   0.61016   0.00000  Uiso   1.00
H402   H     0.56986   0.02892   0.41694   0.00000  Uiso   1.00
H403   H     0.78270   0.12329   0.21662   0.00000  Uiso   1.00
H404   H     0.72377   0.99979   0.79328   0.00000  Uiso   1.00
H405   H     0.46672   0.03563   0.38583   0.00000  Uiso   1.00
O406   O     0.80999   0.21328   0.18488   0.00000  Uiso   1.00
O407   O     0.73266   0.05125   0.94142   0.00000  Uiso   1.00
O408   O     0.39542   0.09827   0.40687   0.00000  Uiso   1.00
N409   N     0.75654   0.22335   0.30322   0.00000  Uiso   1.00
N410   N     0.70145   0.10789   0.84235   0.00000  Uiso   1.00
N411   N     0.46113   0.14139   0.46145   0.00000  Uiso   1.00
N412   N     0.76915   0.15014   0.25394   0.00000  Uiso   1.00
N413   N     0.71406   0.03467   0.79307   0.00000  Uiso   1.00
N414   N     0.47374   0.06817   0.41217   0.00000  Uiso   1.00
C415   C     0.13860   0.66400   0.03996   0.00000  Uiso   1.00
C416   C     0.17418   0.66246   0.96266   0.00000  Uiso   1.00
C417   C     0.19708   0.70196   0.92513   0.00000  Uiso   1.00
C418   C     0.22835   0.69302   0.85492   0.00000  Uiso   1.00
C419   C     0.28240   0.69775   0.73972   0.00000  Uiso   1.00
C420   C     0.15900   0.63064   0.11125   0.00000  Uiso   1.00
C421   C     0.16914   0.64338   0.19865   0.00000  Uiso   1.00
C422   C     0.18763   0.60765   0.25352   0.00000  Uiso   1.00
C423   C     0.21808   0.56297   0.36902   0.00000  Uiso   1.00
C424   C     0.09277   0.63988   0.00626   0.00000  Uiso   1.00
C425   C     0.04722   0.66038   0.00541   0.00000  Uiso   1.00
C426   C     0.00995   0.63242   0.97191   0.00000  Uiso   1.00
C427   C     0.93757   0.60208   0.92439   0.00000  Uiso   1.00
C428   C     0.15342   0.57789   0.98201   0.00000  Uiso   1.00
C429   C     0.18223   0.61569   0.93119   0.00000  Uiso   1.00
C430   C     0.21348   0.60669   0.86102   0.00000  Uiso   1.00
C431   C     0.23642   0.64617   0.82339   0.00000  Uiso   1.00
C432   C     0.16705   0.58387   0.07978   0.00000  Uiso   1.00
C433   C     0.18554   0.54812   0.13454   0.00000  Uiso   1.00
C434   C     0.19570   0.56080   0.22199   0.00000  Uiso   1.00
C435   C     0.10083   0.59311   0.97479   0.00000  Uiso   1.00
C436   C     0.06362   0.56512   0.94129   0.00000  Uiso   1.00
C437   C     0.01802   0.58557   0.94038   0.00000  Uiso   1.00
H438   H     0.13233   0.70041   0.06447   0.00000  Uiso   1.00
H439   H     0.19084   0.73815   0.94951   0.00000  Uiso   1.00
H440   H     0.16290   0.67957   0.22299   0.00000  Uiso   1.00
H441   H     0.04100   0.69657   0.02977   0.00000  Uiso   1.00
H442   H     0.25927   0.75936   0.80820   0.00000  Uiso   1.00
H443   H     0.20034   0.63585   0.38485   0.00000  Uiso   1.00
H444   H     0.94329   0.67169   0.97741   0.00000  Uiso   1.00
H445   H     0.15969   0.54148   0.95751   0.00000  Uiso   1.00
H446   H     0.21970   0.57050   0.83668   0.00000  Uiso   1.00
H447   H     0.19176   0.51193   0.11016   0.00000  Uiso   1.00
H448   H     0.06986   0.52892   0.91694   0.00000  Uiso   1.00
H449   H     0.28270   0.62329   0.71662   0.00000  Uiso   1.00
H450   H     0.22377   0.49979   0.29328   0.00000  Uiso   1.00
H451   H     0.96672   0.53563   0.88583   0.00000  Uiso   1.00
O452   O     0.30999   0.71328   0.68488   0.00000  Uiso   1.00
O453   O     0.23266   0.55125   0.44142   0.00000  Uiso   1.00
O454   O     0.89542   0.59827   0.90687   0.00000  Uiso   1.00
N455   N     0.25654   0.72335   0.80322   0.00000  Uiso   1.00
N456   N     0.20145   0.60789   0.34235   0.00000  Uiso   1.00
N457   N     0.96113   0.64139   0.96145   0.00000  Uiso   1.00
N458   N     0.26915   0.65014   0.75394   0.00000  Uiso   1.00
N459   N     0.21406   0.53467   0.29307   0.00000  Uiso   1.00
N460   N     0.97374   0.56817   0.91217   0.00000  Uiso   1.00
C461   C     0.86140   0.33600   0.03996   0.00000  Uiso   1.00
C462   C     0.82582   0.33754   0.96266   0.00000  Uiso   1.00
C463   C     0.80292   0.29804   0.92513   0.00000  Uiso   1.00
C464   C     0.77165   0.30698   0.85492   0.00000  Uiso   1.00
C465   C     0.71760   0.30225   0.73972   0.00000  Uiso   1.00
C466   C     0.84100   0.36936   0.11125   0.00000  Uiso   1.00
C467   C     0.83086   0.35662   0.19865   0.00000  Uiso   1.00
C468   C     0.81237   0.39235   0.25352   0.00000  Uiso   1.00
C469   C     0.78192   0.43703   0.36902   0.00000  Uiso   1.00
C470   C     0.90723   0.36012   0.00626   0.00000  Uiso   1.00
C471   C     0.95278   0.33962   0.00541   0.00000  Uiso   1.00
C472   C     0.99005   0.36758   0.97191   0.00000  Uiso   1.00
C473   C     0.06243   0.39792   0.92439   0.00000  Uiso   1.00
C474   C     0.84658   0.42211   0.98201   0.00000  Uiso   1.00
C475   C     0.81777   0.38431   0.93119   0.00000  Uiso   1.00
C476   C     0.78652   0.39331   0.86102   0.00000  Uiso   1.00
C477   C     0.76358   0.35383   0.82339   0.00000  Uiso   1.00
C478   C     0.83295   0.41613   0.07978   0.00000  Uiso   1.00
C479   C     0.81446   0.45188   0.13454   0.00000  Uiso   1.00
C480   C     0.80430   0.43920   0.22199   0.00000  Uiso   1.00
C481   C     0.89917   0.40689   0.97479   0.00000  Uiso   1.00
C482   C     0.93638   0.43488   0.94129   0.00000  Uiso   1.00
C483   C     0.98198   0.41443   0.94038   0.00000  Uiso   1.00
H484   H     0.86767   0.29959   0.06447   0.00000  Uiso   1.00
H485   H     0.80916   0.26185   0.94951   0.00000  Uiso   1.00
H486   H     0.83710   0.32043   0.22299   0.00000  Uiso   1.00
H487   H     0.95900   0.30343   0.02977   0.00000  Uiso   1.00
H488   H     0.74073   0.24064   0.80820   0.00000  Uiso   1.00
H489   H     0.79966   0.36415   0.38485   0.00000  Uiso   1.00
H490   H     0.05671   0.32831   0.97741   0.00000  Uiso   1.00
H491   H     0.84031   0.45852   0.95751   0.00000  Uiso   1.00
H492   H     0.78030   0.42950   0.83668   0.00000  Uiso   1.00
H493   H     0.80824   0.48807   0.11016   0.00000  Uiso   1.00
H494   H     0.93014   0.47108   0.91694   0.00000  Uiso   1.00
H495   H     0.71730   0.37671   0.71662   0.00000  Uiso   1.00
H496   H     0.77623   0.50021   0.29328   0.00000  Uiso   1.00
H497   H     0.03328   0.46437   0.88583   0.00000  Uiso   1.00
O498   O     0.69001   0.28672   0.68488   0.00000  Uiso   1.00
O499   O     0.76734   0.44875   0.44142   0.00000  Uiso   1.00
O500   O     0.10458   0.40173   0.90687   0.00000  Uiso   1.00
N501   N     0.74346   0.27665   0.80322   0.00000  Uiso   1.00
N502   N     0.79855   0.39211   0.34235   0.00000  Uiso   1.00
N503   N     0.03887   0.35861   0.96145   0.00000  Uiso   1.00
N504   N     0.73085   0.34986   0.75394   0.00000  Uiso   1.00
N505   N     0.78594   0.46533   0.29307   0.00000  Uiso   1.00
N506   N     0.02626   0.43183   0.91217   0.00000  Uiso   1.00
C507   C     0.36140   0.83600   0.53996   0.00000  Uiso   1.00
C508   C     0.32582   0.83754   0.46266   0.00000  Uiso   1.00
C509   C     0.30292   0.79804   0.42513   0.00000  Uiso   1.00
C510   C     0.27165   0.80698   0.35492   0.00000  Uiso   1.00
C511   C     0.21760   0.80225   0.23972   0.00000  Uiso   1.00
C512   C     0.34100   0.86936   0.61125   0.00000  Uiso   1.00
C513   C     0.33086   0.85662   0.69865   0.00000  Uiso   1.00
C514   C     0.31237   0.89235   0.75352   0.00000  Uiso   1.00
C515   C     0.28192   0.93703   0.86902   0.00000  Uiso   1.00
C516   C     0.40723   0.86012   0.50626   0.00000  Uiso   1.00
C517   C     0.45278   0.83962   0.50541   0.00000  Uiso   1.00
C518   C     0.49005   0.86758   0.47191   0.00000  Uiso   1.00
C519   C     0.56243   0.89792   0.42439   0.00000  Uiso   1.00
C520   C     0.34658   0.92211   0.48201   0.00000  Uiso   1.00
C521   C     0.31777   0.88431   0.43119   0.00000  Uiso   1.00
C522   C     0.28652   0.89331   0.36102   0.00000  Uiso   1.00
C523   C     0.26358   0.85383   0.32339   0.00000  Uiso   1.00
C524   C     0.33295   0.91613   0.57978   0.00000  Uiso   1.00
C525   C     0.31446   0.95188   0.63454   0.00000  Uiso   1.00
C526   C     0.30430   0.93920   0.72199   0.00000  Uiso   1.00
C527   C     0.39917   0.90689   0.47479   0.00000  Uiso   1.00
C528   C     0.43638   0.93488   0.44129   0.00000  Uiso   1.00
C529   C     0.48198   0.91443   0.44038   0.00000  Uiso   1.00
H530   H     0.36767   0.79959   0.56447   0.00000  Uiso   1.00
H531   H     0.30916   0.76185   0.44951   0.00000  Uiso   1.00
H532   H     0.33710   0.82043   0.72299   0.00000  Uiso   1.00
H533   H     0.45900   0.80343   0.52977   0.00000  Uiso   1.00
H534   H     0.24073   0.74064   0.30820   0.00000  Uiso   1.00
H535   H     0.29966   0.86415   0.88485   0.00000  Uiso   1.00
H536   H     0.55671   0.82831   0.47741   0.00000  Uiso   1.00
H537   H     0.34031   0.95852   0.45751   0.00000  Uiso   1.00
H538   H     0.28030   0.92950   0.33668   0.00000  Uiso   1.00
H539   H     0.30824   0.98807   0.61016   0.00000  Uiso   1.00
H540   H     0.43014   0.97108   0.41694   0.00000  Uiso   1.00
H541   H     0.21730   0.87671   0.21662   0.00000  Uiso   1.00
H542   H     0.27623   0.00021   0.79328   0.00000  Uiso   1.00
H543   H     0.53328   0.96437   0.38583   0.00000  Uiso   1.00
O544   O     0.19001   0.78672   0.18488   0.00000  Uiso   1.00
O545   O     0.26734   0.94875   0.94142   0.00000  Uiso   1.00
O546   O     0.60458   0.90173   0.40687   0.00000  Uiso   1.00
N547   N     0.24346   0.77665   0.30322   0.00000  Uiso   1.00
N548   N     0.29855   0.89211   0.84235   0.00000  Uiso   1.00
N549   N     0.53887   0.85861   0.46145   0.00000  Uiso   1.00
N550   N     0.23085   0.84986   0.25394   0.00000  Uiso   1.00
N551   N     0.28594   0.96533   0.79307   0.00000  Uiso   1.00
N552   N     0.52626   0.93183   0.41217   0.00000  Uiso   1.00
C553   C     0.33600   0.63860   0.28996   0.00000  Uiso   1.00
C554   C     0.33754   0.67418   0.21266   0.00000  Uiso   1.00
C555   C     0.29804   0.69708   0.17513   0.00000  Uiso   1.00
C556   C     0.30698   0.72835   0.10492   0.00000  Uiso   1.00
C557   C     0.30225   0.78240   0.98972   0.00000  Uiso   1.00
C558   C     0.36936   0.65900   0.36125   0.00000  Uiso   1.00
C559   C     0.35662   0.66914   0.44865   0.00000  Uiso   1.00
C560   C     0.39235   0.68763   0.50352   0.00000  Uiso   1.00
C561   C     0.43703   0.71808   0.61902   0.00000  Uiso   1.00
C562   C     0.36012   0.59277   0.25626   0.00000  Uiso   1.00
C563   C     0.33962   0.54722   0.25541   0.00000  Uiso   1.00
C564   C     0.36758   0.50995   0.22191   0.00000  Uiso   1.00
C565   C     0.39792   0.43757   0.17439   0.00000  Uiso   1.00
C566   C     0.42211   0.65342   0.23201   0.00000  Uiso   1.00
C567   C     0.38431   0.68223   0.18119   0.00000  Uiso   1.00
C568   C     0.39331   0.71348   0.11102   0.00000  Uiso   1.00
C569   C     0.35383   0.73642   0.07339   0.00000  Uiso   1.00
C570   C     0.41613   0.66705   0.32978   0.00000  Uiso   1.00
C571   C     0.45188   0.68554   0.38454   0.00000  Uiso   1.00
C572   C     0.43920   0.69570   0.47199   0.00000  Uiso   1.00
C573   C     0.40689   0.60083   0.22479   0.00000  Uiso   1.00
C574   C     0.43488   0.56362   0.19129   0.00000  Uiso   1.00
C575   C     0.41443   0.51802   0.19038   0.00000  Uiso   1.00
H576   H     0.29959   0.63233   0.31447   0.00000  Uiso   1.00
H577   H     0.26185   0.69084   0.19951   0.00000  Uiso   1.00
H578   H     0.32043   0.66290   0.47299   0.00000  Uiso   1.00
H579   H     0.30343   0.54100   0.27977   0.00000  Uiso   1.00
H580   H     0.24064   0.75927   0.05820   0.00000  Uiso   1.00
H581   H     0.36415   0.70034   0.63485   0.00000  Uiso   1.00
H582   H     0.32831   0.44329   0.22741   0.00000  Uiso   1.00
H583   H     0.45852   0.65969   0.20751   0.00000  Uiso   1.00
H584   H     0.42950   0.71970   0.08668   0.00000  Uiso   1.00
H585   H     0.48807   0.69176   0.36016   0.00000  Uiso   1.00
H586   H     0.47108   0.56986   0.16694   0.00000  Uiso   1.00
H587   H     0.37671   0.78270   0.96662   0.00000  Uiso   1.00
H588   H     0.50021   0.72377   0.54328   0.00000  Uiso   1.00
H589   H     0.46437   0.46672   0.13583   0.00000  Uiso   1.00
O590   O     0.28672   0.80999   0.93488   0.00000  Uiso   1.00
O591   O     0.44875   0.73266   0.69142   0.00000  Uiso   1.00
O592   O     0.40173   0.39542   0.15687   0.00000  Uiso   1.00
N593   N     0.27665   0.75654   0.05322   0.00000  Uiso   1.00
N594   N     0.39211   0.70145   0.59235   0.00000  Uiso   1.00
N595   N     0.35861   0.46113   0.21145   0.00000  Uiso   1.00
N596   N     0.34986   0.76915   0.00394   0.00000  Uiso   1.00
N597   N     0.46533   0.71406   0.54307   0.00000  Uiso   1.00
N598   N     0.43183   0.47374   0.16217   0.00000  Uiso   1.00
C599   C     0.83600   0.13860   0.78996   0.00000  Uiso   1.00
C600   C     0.83754   0.17418   0.71266   0.00000  Uiso   1.00
C601   C     0.79804   0.19708   0.67513   0.00000  Uiso   1.00
C602   C     0.80698   0.22835   0.60492   0.00000  Uiso   1.00
C603   C     0.80225   0.28240   0.48972   0.00000  Uiso   1.00
C604   C     0.86936   0.15900   0.86125   0.00000  Uiso   1.00
C605   C     0.85662   0.16914   0.94865   0.00000  Uiso   1.00
C606   C     0.89235   0.18763   0.00352   0.00000  Uiso   1.00
C607   C     0.93703   0.21808   0.11902   0.00000  Uiso   1.00
C608   C     0.86012   0.09277   0.75626   0.00000  Uiso   1.00
C609   C     0.83962   0.04722   0.75541   0.00000  Uiso   1.00
C610   C     0.86758   0.00995   0.72191   0.00000  Uiso   1.00
C611   C     0.89792   0.93757   0.67439   0.00000  Uiso   1.00
C612   C     0.92211   0.15342   0.73201   0.00000  Uiso   1.00
C613   C     0.88431   0.18223   0.68119   0.00000  Uiso   1.00
C614   C     0.89331   0.21348   0.61102   0.00000  Uiso   1.00
C615   C     0.85383   0.23642   0.57339   0.00000  Uiso   1.00
C616   C     0.91613   0.16705   0.82978   0.00000  Uiso   1.00
C617   C     0.95188   0.18554   0.88454   0.00000  Uiso   1.00
C618   C     0.93920   0.19570   0.97199   0.00000  Uiso   1.00
C619   C     0.90689   0.10083   0.72479   0.00000  Uiso   1.00
C620   C     0.93488   0.06362   0.69129   0.00000  Uiso   1.00
C621   C     0.91443   0.01802   0.69038   0.00000  Uiso   1.00
H622   H     0.79959   0.13233   0.81447   0.00000  Uiso   1.00
H623   H     0.76185   0.19084   0.69951   0.00000  Uiso   1.00
H624   H     0.82043   0.16290   0.97299   0.00000  Uiso   1.00
H625   H     0.80343   0.04100   0.77977   0.00000  Uiso   1.00
H626   H     0.74064   0.25927   0.55820   0.00000  Uiso   1.00
H627   H     0.86415   0.20034   0.13485   0.00000  Uiso   1.00
H628   H     0.82831   0.94329   0.72741   0.00000  Uiso   1.00
H629   H     0.95852   0.15969   0.70751   0.00000  Uiso   1.00
H630   H     0.92950   0.21970   0.58668   0.00000  Uiso   1.00
H631   H     0.98807   0.19176   0.86016   0.00000  Uiso   1.00
H632   H     0.97108   0.06986   0.66694   0.00000  Uiso   1.00
H633   H     0.87671   0.28270   0.46662   0.00000  Uiso   1.00
H634   H     0.00021   0.22377   0.04328   0.00000  Uiso   1.00
H635   H     0.96437   0.96672   0.63583   0.00000  Uiso   1.00
O636   O     0.78672   0.30999   0.43488   0.00000  Uiso   1.00
O637   O     0.94875   0.23266   0.19142   0.00000  Uiso   1.00
O638   O     0.90173   0.89542   0.65687   0.00000  Uiso   1.00
N639   N     0.77665   0.25654   0.55322   0.00000  Uiso   1.00
N640   N     0.89211   0.20145   0.09235   0.00000  Uiso   1.00
N641   N     0.85861   0.96113   0.71145   0.00000  Uiso   1.00
N642   N     0.84986   0.26915   0.50394   0.00000  Uiso   1.00
N643   N     0.96533   0.21406   0.04307   0.00000  Uiso   1.00
N644   N     0.93183   0.97374   0.66217   0.00000  Uiso   1.00
C645   C     0.16400   0.86140   0.78996   0.00000  Uiso   1.00
C646   C     0.16246   0.82582   0.71266   0.00000  Uiso   1.00
C647   C     0.20196   0.80292   0.67513   0.00000  Uiso   1.00
C648   C     0.19302   0.77165   0.60492   0.00000  Uiso   1.00
C649   C     0.19775   0.71760   0.48972   0.00000  Uiso   1.00
C650   C     0.13064   0.84100   0.86125   0.00000  Uiso   1.00
C651   C     0.14338   0.83086   0.94865   0.00000  Uiso   1.00
C652   C     0.10765   0.81237   0.00352   0.00000  Uiso   1.00
C653   C     0.06297   0.78192   0.11902   0.00000  Uiso   1.00
C654   C     0.13988   0.90723   0.75626   0.00000  Uiso   1.00
C655   C     0.16038   0.95278   0.75541   0.00000  Uiso   1.00
C656   C     0.13242   0.99005   0.72191   0.00000  Uiso   1.00
C657   C     0.10208   0.06243   0.67439   0.00000  Uiso   1.00
C658   C     0.07789   0.84658   0.73201   0.00000  Uiso   1.00
C659   C     0.11569   0.81777   0.68119   0.00000  Uiso   1.00
C660   C     0.10669   0.78652   0.61102   0.00000  Uiso   1.00
C661   C     0.14617   0.76358   0.57339   0.00000  Uiso   1.00
C662   C     0.08387   0.83295   0.82978   0.00000  Uiso   1.00
C663   C     0.04812   0.81446   0.88454   0.00000  Uiso   1.00
C664   C     0.06080   0.80430   0.97199   0.00000  Uiso   1.00
C665   C     0.09311   0.89917   0.72479   0.00000  Uiso   1.00
C666   C     0.06512   0.93638   0.69129   0.00000  Uiso   1.00
C667   C     0.08557   0.98198   0.69038   0.00000  Uiso   1.00
H668   H     0.20041   0.86767   0.81447   0.00000  Uiso   1.00
H669   H     0.23815   0.80916   0.69951   0.00000  Uiso   1.00
H670   H     0.17957   0.83710   0.97299   0.00000  Uiso   1.00
H671   H     0.19657   0.95900   0.77977   0.00000  Uiso   1.00
H672   H     0.25936   0.74073   0.55820   0.00000  Uiso   1.00
H673   H     0.13585   0.79966   0.13485   0.00000  Uiso   1.00
H674   H     0.17169   0.05671   0.72741   0.00000  Uiso   1.00
H675   H     0.04148   0.84031   0.70751   0.00000  Uiso   1.00
H676   H     0.07050   0.78030   0.58668   0.00000  Uiso   1.00
H677   H     0.01193   0.80824   0.86016   0.00000  Uiso   1.00
H678   H     0.02892   0.93014   0.66694   0.00000  Uiso   1.00
H679   H     0.12329   0.71730   0.46662   0.00000  Uiso   1.00
H680   H     0.99979   0.77623   0.04328   0.00000  Uiso   1.00
H681   H     0.03563   0.03328   0.63583   0.00000  Uiso   1.00
O682   O     0.21328   0.69001   0.43488   0.00000  Uiso   1.00
O683   O     0.05125   0.76734   0.19142   0.00000  Uiso   1.00
O684   O     0.09827   0.10458   0.65687   0.00000  Uiso   1.00
N685   N     0.22335   0.74346   0.55322   0.00000  Uiso   1.00
N686   N     0.10789   0.79855   0.09235   0.00000  Uiso   1.00
N687   N     0.14139   0.03887   0.71145   0.00000  Uiso   1.00
N688   N     0.15014   0.73085   0.50394   0.00000  Uiso   1.00
N689   N     0.03467   0.78594   0.04307   0.00000  Uiso   1.00
N690   N     0.06817   0.02626   0.66217   0.00000  Uiso   1.00
C691   C     0.66400   0.36140   0.28996   0.00000  Uiso   1.00
C692   C     0.66246   0.32582   0.21266   0.00000  Uiso   1.00
C693   C     0.70196   0.30292   0.17513   0.00000  Uiso   1.00
C694   C     0.69302   0.27165   0.10492   0.00000  Uiso   1.00
C695   C     0.69775   0.21760   0.98972   0.00000  Uiso   1.00
C696   C     0.63064   0.34100   0.36125   0.00000  Uiso   1.00
C697   C     0.64338   0.33086   0.44865   0.00000  Uiso   1.00
C698   C     0.60765   0.31237   0.50352   0.00000  Uiso   1.00
C699   C     0.56297   0.28192   0.61902   0.00000  Uiso   1.00
C700   C     0.63988   0.40723   0.25626   0.00000  Uiso   1.00
C701   C     0.66038   0.45278   0.25541   0.00000  Uiso   1.00
C702   C     0.63242   0.49005   0.22191   0.00000  Uiso   1.00
C703   C     0.60208   0.56243   0.17439   0.00000  Uiso   1.00
C704   C     0.57789   0.34658   0.23201   0.00000  Uiso   1.00
C705   C     0.61569   0.31777   0.18119   0.00000  Uiso   1.00
C706   C     0.60669   0.28652   0.11102   0.00000  Uiso   1.00
C707   C     0.64617   0.26358   0.07339   0.00000  Uiso   1.00
C708   C     0.58387   0.33295   0.32978   0.00000  Uiso   1.00
C709   C     0.54812   0.31446   0.38454   0.00000  Uiso   1.00
C710   C     0.56080   0.30430   0.47199   0.00000  Uiso   1.00
C711   C     0.59311   0.39917   0.22479   0.00000  Uiso   1.00
C712   C     0.56512   0.43638   0.19129   0.00000  Uiso   1.00
C713   C     0.58557   0.48198   0.19038   0.00000  Uiso   1.00
H714   H     0.70041   0.36767   0.31447   0.00000  Uiso   1.00
H715   H     0.73815   0.30916   0.19951   0.00000  Uiso   1.00
H716   H     0.67957   0.33710   0.47299   0.00000  Uiso   1.00
H717   H     0.69657   0.45900   0.27977   0.00000  Uiso   1.00
H718   H     0.75936   0.24073   0.05820   0.00000  Uiso   1.00
H719   H     0.63585   0.29966   0.63485   0.00000  Uiso   1.00
H720   H     0.67169   0.55671   0.22741   0.00000  Uiso   1.00
H721   H     0.54148   0.34031   0.20751   0.00000  Uiso   1.00
H722   H     0.57050   0.28030   0.08668   0.00000  Uiso   1.00
H723   H     0.51193   0.30824   0.36016   0.00000  Uiso   1.00
H724   H     0.52892   0.43014   0.16694   0.00000  Uiso   1.00
H725   H     0.62329   0.21730   0.96662   0.00000  Uiso   1.00
H726   H     0.49979   0.27623   0.54328   0.00000  Uiso   1.00
H727   H     0.53563   0.53328   0.13583   0.00000  Uiso   1.00
O728   O     0.71328   0.19001   0.93488   0.00000  Uiso   1.00
O729   O     0.55125   0.26734   0.69142   0.00000  Uiso   1.00
O730   O     0.59827   0.60458   0.15687   0.00000  Uiso   1.00
N731   N     0.72335   0.24346   0.05322   0.00000  Uiso   1.00
N732   N     0.60789   0.29855   0.59235   0.00000  Uiso   1.00
N733   N     0.64139   0.53887   0.21145   0.00000  Uiso   1.00
N734   N     0.65014   0.23085   0.00394   0.00000  Uiso   1.00
N735   N     0.53467   0.28594   0.54307   0.00000  Uiso   1.00
N736   N     0.56817   0.52626   0.16217   0.00000  Uiso   1.00
