data_job_04868
_audit_creation_date              2018-12-19
_audit_creation_method            'Materials Studio'
_symmetry_space_group_name_H-M    'P1'
_symmetry_Int_Tables_number       1
_symmetry_cell_setting            triclinic
loop_
_symmetry_equiv_pos_as_xyz
  x,y,z
_cell_length_a                    25.0458
_cell_length_b                    25.0458
_cell_length_c                    14.7174
_cell_angle_alpha                 90.0000
_cell_angle_beta                  90.0000
_cell_angle_gamma                 90.0000
loop_
_atom_site_label
_atom_site_type_symbol
_atom_site_fract_x
_atom_site_fract_y
_atom_site_fract_z
_atom_site_U_iso_or_equiv
_atom_site_adp_type
_atom_site_occupancy
C1     C     0.41789   0.70557   0.33367   0.00000  Uiso   1.00
C2     C     0.47545   0.72362   0.31963   0.00000  Uiso   1.00
C3     C     0.49201   0.76477   0.26312   0.00000  Uiso   1.00
C4     C     0.54644   0.77510   0.25967   0.00000  Uiso   1.00
C5     C     0.63026   0.80765   0.23004   0.00000  Uiso   1.00
C6     C     0.41676   0.64624   0.31045   0.00000  Uiso   1.00
C7     C     0.38397   0.62233   0.24624   0.00000  Uiso   1.00
C8     C     0.38898   0.56751   0.23507   0.00000  Uiso   1.00
C9     C     0.38166   0.47992   0.19125   0.00000  Uiso   1.00
C10    C     0.40752   0.70925   0.43557   0.00000  Uiso   1.00
C11    C     0.36695   0.73831   0.47656   0.00000  Uiso   1.00
C12    C     0.36418   0.73654   0.57074   0.00000  Uiso   1.00
C13    C     0.34252   0.74678   0.72117   0.00000  Uiso   1.00
C14    C     0.48510   0.65073   0.42801   0.00000  Uiso   1.00
C15    C     0.51195   0.69384   0.37087   0.00000  Uiso   1.00
C16    C     0.56637   0.70410   0.36751   0.00000  Uiso   1.00
C17    C     0.58301   0.74527   0.31101   0.00000  Uiso   1.00
C18    C     0.45326   0.61645   0.36169   0.00000  Uiso   1.00
C19    C     0.45832   0.56166   0.35062   0.00000  Uiso   1.00
C20    C     0.42555   0.53767   0.28641   0.00000  Uiso   1.00
C21    C     0.44402   0.67947   0.48682   0.00000  Uiso   1.00
C22    C     0.44131   0.67764   0.58095   0.00000  Uiso   1.00
C23    C     0.40075   0.70670   0.62208   0.00000  Uiso   1.00
H24    H     0.38947   0.72875   0.29377   0.00000  Uiso   1.00
H25    H     0.46375   0.78781   0.22347   0.00000  Uiso   1.00
H26    H     0.35572   0.64539   0.20660   0.00000  Uiso   1.00
H27    H     0.33871   0.76136   0.43688   0.00000  Uiso   1.00
H28    H     0.56220   0.84015   0.16810   0.00000  Uiso   1.00
H29    H     0.33440   0.53983   0.13256   0.00000  Uiso   1.00
H30    H     0.29853   0.78437   0.61816   0.00000  Uiso   1.00
H31    H     0.51352   0.62754   0.46791   0.00000  Uiso   1.00
H32    H     0.59461   0.68105   0.40717   0.00000  Uiso   1.00
H33    H     0.48657   0.53862   0.39030   0.00000  Uiso   1.00
H34    H     0.46957   0.65459   0.62058   0.00000  Uiso   1.00
H35    H     0.66841   0.75349   0.31720   0.00000  Uiso   1.00
H36    H     0.44061   0.45317   0.28165   0.00000  Uiso   1.00
H37    H     0.40474   0.69771   0.76725   0.00000  Uiso   1.00
O38    O     0.66641   0.83383   0.19953   0.00000  Uiso   1.00
O39    O     0.36754   0.43983   0.15290   0.00000  Uiso   1.00
O40    O     0.32049   0.76066   0.79000   0.00000  Uiso   1.00
N41    N     0.57607   0.81241   0.21154   0.00000  Uiso   1.00
N42    N     0.36310   0.53164   0.17830   0.00000  Uiso   1.00
N43    N     0.32955   0.76025   0.63229   0.00000  Uiso   1.00
N44    N     0.63322   0.76579   0.29177   0.00000  Uiso   1.00
N45    N     0.42025   0.48501   0.25852   0.00000  Uiso   1.00
N46    N     0.38670   0.71362   0.71252   0.00000  Uiso   1.00
C47    C     0.91789   0.20557   0.83367   0.00000  Uiso   1.00
C48    C     0.97545   0.22362   0.81963   0.00000  Uiso   1.00
C49    C     0.99201   0.26477   0.76312   0.00000  Uiso   1.00
C50    C     0.04644   0.27510   0.75967   0.00000  Uiso   1.00
C51    C     0.13026   0.30765   0.73004   0.00000  Uiso   1.00
C52    C     0.91676   0.14624   0.81045   0.00000  Uiso   1.00
C53    C     0.88397   0.12233   0.74624   0.00000  Uiso   1.00
C54    C     0.88898   0.06751   0.73507   0.00000  Uiso   1.00
C55    C     0.88166   0.97992   0.69125   0.00000  Uiso   1.00
C56    C     0.90752   0.20925   0.93557   0.00000  Uiso   1.00
C57    C     0.86695   0.23831   0.97656   0.00000  Uiso   1.00
C58    C     0.86418   0.23654   0.07074   0.00000  Uiso   1.00
C59    C     0.84252   0.24678   0.22117   0.00000  Uiso   1.00
C60    C     0.98510   0.15073   0.92801   0.00000  Uiso   1.00
C61    C     0.01195   0.19384   0.87087   0.00000  Uiso   1.00
C62    C     0.06637   0.20410   0.86751   0.00000  Uiso   1.00
C63    C     0.08301   0.24527   0.81101   0.00000  Uiso   1.00
C64    C     0.95326   0.11645   0.86169   0.00000  Uiso   1.00
C65    C     0.95832   0.06166   0.85062   0.00000  Uiso   1.00
C66    C     0.92555   0.03767   0.78641   0.00000  Uiso   1.00
C67    C     0.94402   0.17947   0.98682   0.00000  Uiso   1.00
C68    C     0.94131   0.17764   0.08095   0.00000  Uiso   1.00
C69    C     0.90075   0.20670   0.12208   0.00000  Uiso   1.00
H70    H     0.88947   0.22875   0.79377   0.00000  Uiso   1.00
H71    H     0.96375   0.28781   0.72347   0.00000  Uiso   1.00
H72    H     0.85572   0.14539   0.70660   0.00000  Uiso   1.00
H73    H     0.83871   0.26136   0.93688   0.00000  Uiso   1.00
H74    H     0.06220   0.34015   0.66810   0.00000  Uiso   1.00
H75    H     0.83440   0.03983   0.63256   0.00000  Uiso   1.00
H76    H     0.79853   0.28437   0.11816   0.00000  Uiso   1.00
H77    H     0.01352   0.12754   0.96791   0.00000  Uiso   1.00
H78    H     0.09461   0.18105   0.90717   0.00000  Uiso   1.00
H79    H     0.98657   0.03862   0.89030   0.00000  Uiso   1.00
H80    H     0.96957   0.15459   0.12058   0.00000  Uiso   1.00
H81    H     0.16841   0.25349   0.81720   0.00000  Uiso   1.00
H82    H     0.94061   0.95317   0.78165   0.00000  Uiso   1.00
H83    H     0.90474   0.19771   0.26725   0.00000  Uiso   1.00
O84    O     0.16641   0.33383   0.69953   0.00000  Uiso   1.00
O85    O     0.86754   0.93983   0.65290   0.00000  Uiso   1.00
O86    O     0.82049   0.26066   0.29000   0.00000  Uiso   1.00
N87    N     0.07607   0.31241   0.71154   0.00000  Uiso   1.00
N88    N     0.86310   0.03164   0.67830   0.00000  Uiso   1.00
N89    N     0.82955   0.26025   0.13229   0.00000  Uiso   1.00
N90    N     0.13322   0.26579   0.79177   0.00000  Uiso   1.00
N91    N     0.92025   0.98501   0.75852   0.00000  Uiso   1.00
N92    N     0.88670   0.21362   0.21252   0.00000  Uiso   1.00
C93    C     0.08211   0.79443   0.83367   0.00000  Uiso   1.00
C94    C     0.02455   0.77638   0.81963   0.00000  Uiso   1.00
C95    C     0.00799   0.73523   0.76312   0.00000  Uiso   1.00
C96    C     0.95356   0.72490   0.75967   0.00000  Uiso   1.00
C97    C     0.86974   0.69235   0.73004   0.00000  Uiso   1.00
C98    C     0.08324   0.85376   0.81045   0.00000  Uiso   1.00
C99    C     0.11603   0.87767   0.74624   0.00000  Uiso   1.00
C100   C     0.11102   0.93249   0.73507   0.00000  Uiso   1.00
C101   C     0.11834   0.02008   0.69125   0.00000  Uiso   1.00
C102   C     0.09248   0.79075   0.93557   0.00000  Uiso   1.00
C103   C     0.13305   0.76169   0.97656   0.00000  Uiso   1.00
C104   C     0.13582   0.76346   0.07074   0.00000  Uiso   1.00
C105   C     0.15748   0.75322   0.22117   0.00000  Uiso   1.00
C106   C     0.01490   0.84927   0.92801   0.00000  Uiso   1.00
C107   C     0.98805   0.80616   0.87087   0.00000  Uiso   1.00
C108   C     0.93363   0.79590   0.86751   0.00000  Uiso   1.00
C109   C     0.91699   0.75473   0.81101   0.00000  Uiso   1.00
C110   C     0.04674   0.88355   0.86169   0.00000  Uiso   1.00
C111   C     0.04168   0.93834   0.85062   0.00000  Uiso   1.00
C112   C     0.07445   0.96233   0.78641   0.00000  Uiso   1.00
C113   C     0.05598   0.82053   0.98682   0.00000  Uiso   1.00
C114   C     0.05869   0.82236   0.08095   0.00000  Uiso   1.00
C115   C     0.09925   0.79330   0.12208   0.00000  Uiso   1.00
H116   H     0.11053   0.77125   0.79377   0.00000  Uiso   1.00
H117   H     0.03625   0.71219   0.72347   0.00000  Uiso   1.00
H118   H     0.14428   0.85461   0.70660   0.00000  Uiso   1.00
H119   H     0.16129   0.73864   0.93688   0.00000  Uiso   1.00
H120   H     0.93780   0.65985   0.66810   0.00000  Uiso   1.00
H121   H     0.16560   0.96017   0.63256   0.00000  Uiso   1.00
H122   H     0.20147   0.71563   0.11816   0.00000  Uiso   1.00
H123   H     0.98648   0.87246   0.96791   0.00000  Uiso   1.00
H124   H     0.90539   0.81895   0.90717   0.00000  Uiso   1.00
H125   H     0.01343   0.96138   0.89030   0.00000  Uiso   1.00
H126   H     0.03043   0.84541   0.12058   0.00000  Uiso   1.00
H127   H     0.83159   0.74651   0.81720   0.00000  Uiso   1.00
H128   H     0.05939   0.04683   0.78165   0.00000  Uiso   1.00
H129   H     0.09526   0.80229   0.26725   0.00000  Uiso   1.00
O130   O     0.83359   0.66617   0.69953   0.00000  Uiso   1.00
O131   O     0.13246   0.06017   0.65290   0.00000  Uiso   1.00
O132   O     0.17951   0.73934   0.29000   0.00000  Uiso   1.00
N133   N     0.92393   0.68759   0.71154   0.00000  Uiso   1.00
N134   N     0.13690   0.96836   0.67830   0.00000  Uiso   1.00
N135   N     0.17045   0.73975   0.13229   0.00000  Uiso   1.00
N136   N     0.86678   0.73421   0.79177   0.00000  Uiso   1.00
N137   N     0.07975   0.01499   0.75852   0.00000  Uiso   1.00
N138   N     0.11330   0.78638   0.21252   0.00000  Uiso   1.00
C139   C     0.58211   0.29443   0.33367   0.00000  Uiso   1.00
C140   C     0.52455   0.27638   0.31963   0.00000  Uiso   1.00
C141   C     0.50799   0.23523   0.26312   0.00000  Uiso   1.00
C142   C     0.45356   0.22490   0.25967   0.00000  Uiso   1.00
C143   C     0.36974   0.19235   0.23004   0.00000  Uiso   1.00
C144   C     0.58324   0.35376   0.31045   0.00000  Uiso   1.00
C145   C     0.61603   0.37767   0.24624   0.00000  Uiso   1.00
C146   C     0.61102   0.43249   0.23507   0.00000  Uiso   1.00
C147   C     0.61834   0.52008   0.19125   0.00000  Uiso   1.00
C148   C     0.59248   0.29075   0.43557   0.00000  Uiso   1.00
C149   C     0.63305   0.26169   0.47656   0.00000  Uiso   1.00
C150   C     0.63582   0.26346   0.57074   0.00000  Uiso   1.00
C151   C     0.65748   0.25322   0.72117   0.00000  Uiso   1.00
C152   C     0.51490   0.34927   0.42801   0.00000  Uiso   1.00
C153   C     0.48805   0.30616   0.37087   0.00000  Uiso   1.00
C154   C     0.43363   0.29590   0.36751   0.00000  Uiso   1.00
C155   C     0.41699   0.25473   0.31101   0.00000  Uiso   1.00
C156   C     0.54674   0.38355   0.36169   0.00000  Uiso   1.00
C157   C     0.54168   0.43834   0.35062   0.00000  Uiso   1.00
C158   C     0.57445   0.46233   0.28641   0.00000  Uiso   1.00
C159   C     0.55598   0.32053   0.48682   0.00000  Uiso   1.00
C160   C     0.55869   0.32236   0.58095   0.00000  Uiso   1.00
C161   C     0.59925   0.29330   0.62208   0.00000  Uiso   1.00
H162   H     0.61053   0.27125   0.29377   0.00000  Uiso   1.00
H163   H     0.53625   0.21219   0.22347   0.00000  Uiso   1.00
H164   H     0.64428   0.35461   0.20660   0.00000  Uiso   1.00
H165   H     0.66129   0.23864   0.43688   0.00000  Uiso   1.00
H166   H     0.43780   0.15985   0.16810   0.00000  Uiso   1.00
H167   H     0.66560   0.46017   0.13256   0.00000  Uiso   1.00
H168   H     0.70147   0.21563   0.61816   0.00000  Uiso   1.00
H169   H     0.48648   0.37246   0.46791   0.00000  Uiso   1.00
H170   H     0.40539   0.31895   0.40717   0.00000  Uiso   1.00
H171   H     0.51343   0.46138   0.39030   0.00000  Uiso   1.00
H172   H     0.53043   0.34541   0.62058   0.00000  Uiso   1.00
H173   H     0.33159   0.24651   0.31720   0.00000  Uiso   1.00
H174   H     0.55939   0.54683   0.28165   0.00000  Uiso   1.00
H175   H     0.59526   0.30229   0.76725   0.00000  Uiso   1.00
O176   O     0.33359   0.16617   0.19953   0.00000  Uiso   1.00
O177   O     0.63246   0.56017   0.15290   0.00000  Uiso   1.00
O178   O     0.67951   0.23934   0.79000   0.00000  Uiso   1.00
N179   N     0.42393   0.18759   0.21154   0.00000  Uiso   1.00
N180   N     0.63690   0.46836   0.17830   0.00000  Uiso   1.00
N181   N     0.67045   0.23975   0.63229   0.00000  Uiso   1.00
N182   N     0.36678   0.23421   0.29177   0.00000  Uiso   1.00
N183   N     0.57975   0.51499   0.25852   0.00000  Uiso   1.00
N184   N     0.61330   0.28638   0.71252   0.00000  Uiso   1.00
C185   C     0.29443   0.91789   0.58367   0.00000  Uiso   1.00
C186   C     0.27638   0.97545   0.56963   0.00000  Uiso   1.00
C187   C     0.23523   0.99201   0.51312   0.00000  Uiso   1.00
C188   C     0.22490   0.04644   0.50967   0.00000  Uiso   1.00
C189   C     0.19235   0.13026   0.48004   0.00000  Uiso   1.00
C190   C     0.35376   0.91676   0.56045   0.00000  Uiso   1.00
C191   C     0.37767   0.88397   0.49624   0.00000  Uiso   1.00
C192   C     0.43249   0.88898   0.48507   0.00000  Uiso   1.00
C193   C     0.52008   0.88166   0.44125   0.00000  Uiso   1.00
C194   C     0.29075   0.90752   0.68557   0.00000  Uiso   1.00
C195   C     0.26169   0.86695   0.72656   0.00000  Uiso   1.00
C196   C     0.26346   0.86418   0.82074   0.00000  Uiso   1.00
C197   C     0.25322   0.84252   0.97117   0.00000  Uiso   1.00
C198   C     0.34927   0.98510   0.67801   0.00000  Uiso   1.00
C199   C     0.30616   0.01195   0.62087   0.00000  Uiso   1.00
C200   C     0.29590   0.06637   0.61751   0.00000  Uiso   1.00
C201   C     0.25473   0.08301   0.56101   0.00000  Uiso   1.00
C202   C     0.38355   0.95326   0.61169   0.00000  Uiso   1.00
C203   C     0.43834   0.95832   0.60062   0.00000  Uiso   1.00
C204   C     0.46233   0.92555   0.53641   0.00000  Uiso   1.00
C205   C     0.32053   0.94402   0.73682   0.00000  Uiso   1.00
C206   C     0.32236   0.94131   0.83095   0.00000  Uiso   1.00
C207   C     0.29330   0.90075   0.87208   0.00000  Uiso   1.00
H208   H     0.27125   0.88947   0.54377   0.00000  Uiso   1.00
H209   H     0.21219   0.96375   0.47347   0.00000  Uiso   1.00
H210   H     0.35461   0.85572   0.45660   0.00000  Uiso   1.00
H211   H     0.23864   0.83871   0.68688   0.00000  Uiso   1.00
H212   H     0.15985   0.06220   0.41810   0.00000  Uiso   1.00
H213   H     0.46017   0.83440   0.38256   0.00000  Uiso   1.00
H214   H     0.21563   0.79853   0.86816   0.00000  Uiso   1.00
H215   H     0.37246   0.01352   0.71791   0.00000  Uiso   1.00
H216   H     0.31895   0.09461   0.65717   0.00000  Uiso   1.00
H217   H     0.46138   0.98657   0.64030   0.00000  Uiso   1.00
H218   H     0.34541   0.96957   0.87058   0.00000  Uiso   1.00
H219   H     0.24651   0.16841   0.56720   0.00000  Uiso   1.00
H220   H     0.54683   0.94061   0.53165   0.00000  Uiso   1.00
H221   H     0.30229   0.90474   0.01725   0.00000  Uiso   1.00
O222   O     0.16617   0.16641   0.44953   0.00000  Uiso   1.00
O223   O     0.56017   0.86754   0.40290   0.00000  Uiso   1.00
O224   O     0.23934   0.82049   0.04000   0.00000  Uiso   1.00
N225   N     0.18759   0.07607   0.46154   0.00000  Uiso   1.00
N226   N     0.46836   0.86310   0.42830   0.00000  Uiso   1.00
N227   N     0.23975   0.82955   0.88229   0.00000  Uiso   1.00
N228   N     0.23421   0.13322   0.54177   0.00000  Uiso   1.00
N229   N     0.51499   0.92025   0.50852   0.00000  Uiso   1.00
N230   N     0.28638   0.88670   0.96252   0.00000  Uiso   1.00
C231   C     0.79443   0.41789   0.08367   0.00000  Uiso   1.00
C232   C     0.77638   0.47545   0.06963   0.00000  Uiso   1.00
C233   C     0.73523   0.49201   0.01312   0.00000  Uiso   1.00
C234   C     0.72490   0.54644   0.00967   0.00000  Uiso   1.00
C235   C     0.69235   0.63026   0.98004   0.00000  Uiso   1.00
C236   C     0.85376   0.41676   0.06045   0.00000  Uiso   1.00
C237   C     0.87767   0.38397   0.99624   0.00000  Uiso   1.00
C238   C     0.93249   0.38898   0.98507   0.00000  Uiso   1.00
C239   C     0.02008   0.38166   0.94125   0.00000  Uiso   1.00
C240   C     0.79075   0.40752   0.18557   0.00000  Uiso   1.00
C241   C     0.76169   0.36695   0.22656   0.00000  Uiso   1.00
C242   C     0.76346   0.36418   0.32074   0.00000  Uiso   1.00
C243   C     0.75322   0.34252   0.47117   0.00000  Uiso   1.00
C244   C     0.84927   0.48510   0.17801   0.00000  Uiso   1.00
C245   C     0.80616   0.51195   0.12087   0.00000  Uiso   1.00
C246   C     0.79590   0.56637   0.11751   0.00000  Uiso   1.00
C247   C     0.75473   0.58301   0.06101   0.00000  Uiso   1.00
C248   C     0.88355   0.45326   0.11169   0.00000  Uiso   1.00
C249   C     0.93834   0.45832   0.10062   0.00000  Uiso   1.00
C250   C     0.96233   0.42555   0.03641   0.00000  Uiso   1.00
C251   C     0.82053   0.44402   0.23682   0.00000  Uiso   1.00
C252   C     0.82236   0.44131   0.33095   0.00000  Uiso   1.00
C253   C     0.79330   0.40075   0.37208   0.00000  Uiso   1.00
H254   H     0.77125   0.38947   0.04377   0.00000  Uiso   1.00
H255   H     0.71219   0.46375   0.97347   0.00000  Uiso   1.00
H256   H     0.85461   0.35572   0.95660   0.00000  Uiso   1.00
H257   H     0.73864   0.33871   0.18688   0.00000  Uiso   1.00
H258   H     0.65985   0.56220   0.91810   0.00000  Uiso   1.00
H259   H     0.96017   0.33440   0.88256   0.00000  Uiso   1.00
H260   H     0.71563   0.29853   0.36816   0.00000  Uiso   1.00
H261   H     0.87246   0.51352   0.21791   0.00000  Uiso   1.00
H262   H     0.81895   0.59461   0.15717   0.00000  Uiso   1.00
H263   H     0.96138   0.48657   0.14030   0.00000  Uiso   1.00
H264   H     0.84541   0.46957   0.37058   0.00000  Uiso   1.00
H265   H     0.74651   0.66841   0.06720   0.00000  Uiso   1.00
H266   H     0.04683   0.44061   0.03165   0.00000  Uiso   1.00
H267   H     0.80229   0.40474   0.51725   0.00000  Uiso   1.00
O268   O     0.66617   0.66641   0.94953   0.00000  Uiso   1.00
O269   O     0.06017   0.36754   0.90290   0.00000  Uiso   1.00
O270   O     0.73934   0.32049   0.54000   0.00000  Uiso   1.00
N271   N     0.68759   0.57607   0.96154   0.00000  Uiso   1.00
N272   N     0.96836   0.36310   0.92830   0.00000  Uiso   1.00
N273   N     0.73975   0.32955   0.38229   0.00000  Uiso   1.00
N274   N     0.73421   0.63322   0.04177   0.00000  Uiso   1.00
N275   N     0.01499   0.42025   0.00852   0.00000  Uiso   1.00
N276   N     0.78638   0.38670   0.46252   0.00000  Uiso   1.00
C277   C     0.20557   0.58211   0.08367   0.00000  Uiso   1.00
C278   C     0.22362   0.52455   0.06963   0.00000  Uiso   1.00
C279   C     0.26477   0.50799   0.01312   0.00000  Uiso   1.00
C280   C     0.27510   0.45356   0.00967   0.00000  Uiso   1.00
C281   C     0.30765   0.36974   0.98004   0.00000  Uiso   1.00
C282   C     0.14624   0.58324   0.06045   0.00000  Uiso   1.00
C283   C     0.12233   0.61603   0.99624   0.00000  Uiso   1.00
C284   C     0.06751   0.61102   0.98507   0.00000  Uiso   1.00
C285   C     0.97992   0.61834   0.94125   0.00000  Uiso   1.00
C286   C     0.20925   0.59248   0.18557   0.00000  Uiso   1.00
C287   C     0.23831   0.63305   0.22656   0.00000  Uiso   1.00
C288   C     0.23654   0.63582   0.32074   0.00000  Uiso   1.00
C289   C     0.24678   0.65748   0.47117   0.00000  Uiso   1.00
C290   C     0.15073   0.51490   0.17801   0.00000  Uiso   1.00
C291   C     0.19384   0.48805   0.12087   0.00000  Uiso   1.00
C292   C     0.20410   0.43363   0.11751   0.00000  Uiso   1.00
C293   C     0.24527   0.41699   0.06101   0.00000  Uiso   1.00
C294   C     0.11645   0.54674   0.11169   0.00000  Uiso   1.00
C295   C     0.06166   0.54168   0.10062   0.00000  Uiso   1.00
C296   C     0.03767   0.57445   0.03641   0.00000  Uiso   1.00
C297   C     0.17947   0.55598   0.23682   0.00000  Uiso   1.00
C298   C     0.17764   0.55869   0.33095   0.00000  Uiso   1.00
C299   C     0.20670   0.59925   0.37208   0.00000  Uiso   1.00
H300   H     0.22875   0.61053   0.04377   0.00000  Uiso   1.00
H301   H     0.28781   0.53625   0.97347   0.00000  Uiso   1.00
H302   H     0.14539   0.64428   0.95660   0.00000  Uiso   1.00
H303   H     0.26136   0.66129   0.18688   0.00000  Uiso   1.00
H304   H     0.34015   0.43780   0.91810   0.00000  Uiso   1.00
H305   H     0.03983   0.66560   0.88256   0.00000  Uiso   1.00
H306   H     0.28437   0.70147   0.36816   0.00000  Uiso   1.00
H307   H     0.12754   0.48648   0.21791   0.00000  Uiso   1.00
H308   H     0.18105   0.40539   0.15717   0.00000  Uiso   1.00
H309   H     0.03862   0.51343   0.14030   0.00000  Uiso   1.00
H310   H     0.15459   0.53043   0.37058   0.00000  Uiso   1.00
H311   H     0.25349   0.33159   0.06720   0.00000  Uiso   1.00
H312   H     0.95317   0.55939   0.03165   0.00000  Uiso   1.00
H313   H     0.19771   0.59526   0.51725   0.00000  Uiso   1.00
O314   O     0.33383   0.33359   0.94953   0.00000  Uiso   1.00
O315   O     0.93983   0.63246   0.90290   0.00000  Uiso   1.00
O316   O     0.26066   0.67951   0.54000   0.00000  Uiso   1.00
N317   N     0.31241   0.42393   0.96154   0.00000  Uiso   1.00
N318   N     0.03164   0.63690   0.92830   0.00000  Uiso   1.00
N319   N     0.26025   0.67045   0.38229   0.00000  Uiso   1.00
N320   N     0.26579   0.36678   0.04177   0.00000  Uiso   1.00
N321   N     0.98501   0.57975   0.00852   0.00000  Uiso   1.00
N322   N     0.21362   0.61330   0.46252   0.00000  Uiso   1.00
C323   C     0.70557   0.08211   0.58367   0.00000  Uiso   1.00
C324   C     0.72362   0.02455   0.56963   0.00000  Uiso   1.00
C325   C     0.76477   0.00799   0.51312   0.00000  Uiso   1.00
C326   C     0.77510   0.95356   0.50967   0.00000  Uiso   1.00
C327   C     0.80765   0.86974   0.48004   0.00000  Uiso   1.00
C328   C     0.64624   0.08324   0.56045   0.00000  Uiso   1.00
C329   C     0.62233   0.11603   0.49624   0.00000  Uiso   1.00
C330   C     0.56751   0.11102   0.48507   0.00000  Uiso   1.00
C331   C     0.47992   0.11834   0.44125   0.00000  Uiso   1.00
C332   C     0.70925   0.09248   0.68557   0.00000  Uiso   1.00
C333   C     0.73831   0.13305   0.72656   0.00000  Uiso   1.00
C334   C     0.73654   0.13582   0.82074   0.00000  Uiso   1.00
C335   C     0.74678   0.15748   0.97117   0.00000  Uiso   1.00
C336   C     0.65073   0.01490   0.67801   0.00000  Uiso   1.00
C337   C     0.69384   0.98805   0.62087   0.00000  Uiso   1.00
C338   C     0.70410   0.93363   0.61751   0.00000  Uiso   1.00
C339   C     0.74527   0.91699   0.56101   0.00000  Uiso   1.00
C340   C     0.61645   0.04674   0.61169   0.00000  Uiso   1.00
C341   C     0.56166   0.04168   0.60062   0.00000  Uiso   1.00
C342   C     0.53767   0.07445   0.53641   0.00000  Uiso   1.00
C343   C     0.67947   0.05598   0.73682   0.00000  Uiso   1.00
C344   C     0.67764   0.05869   0.83095   0.00000  Uiso   1.00
C345   C     0.70670   0.09925   0.87208   0.00000  Uiso   1.00
H346   H     0.72875   0.11053   0.54377   0.00000  Uiso   1.00
H347   H     0.78781   0.03625   0.47347   0.00000  Uiso   1.00
H348   H     0.64539   0.14428   0.45660   0.00000  Uiso   1.00
H349   H     0.76136   0.16129   0.68688   0.00000  Uiso   1.00
H350   H     0.84015   0.93780   0.41810   0.00000  Uiso   1.00
H351   H     0.53983   0.16560   0.38256   0.00000  Uiso   1.00
H352   H     0.78437   0.20147   0.86816   0.00000  Uiso   1.00
H353   H     0.62754   0.98648   0.71791   0.00000  Uiso   1.00
H354   H     0.68105   0.90539   0.65717   0.00000  Uiso   1.00
H355   H     0.53862   0.01343   0.64030   0.00000  Uiso   1.00
H356   H     0.65459   0.03043   0.87058   0.00000  Uiso   1.00
H357   H     0.75349   0.83159   0.56720   0.00000  Uiso   1.00
H358   H     0.45317   0.05939   0.53165   0.00000  Uiso   1.00
H359   H     0.69771   0.09526   0.01725   0.00000  Uiso   1.00
O360   O     0.83383   0.83359   0.44953   0.00000  Uiso   1.00
O361   O     0.43983   0.13246   0.40290   0.00000  Uiso   1.00
O362   O     0.76066   0.17951   0.04000   0.00000  Uiso   1.00
N363   N     0.81241   0.92393   0.46154   0.00000  Uiso   1.00
N364   N     0.53164   0.13690   0.42830   0.00000  Uiso   1.00
N365   N     0.76025   0.17045   0.88229   0.00000  Uiso   1.00
N366   N     0.76579   0.86678   0.54177   0.00000  Uiso   1.00
N367   N     0.48501   0.07975   0.50852   0.00000  Uiso   1.00
N368   N     0.71362   0.11330   0.96252   0.00000  Uiso   1.00
C369   C     0.58211   0.79443   0.91633   0.00000  Uiso   1.00
C370   C     0.52455   0.77638   0.93037   0.00000  Uiso   1.00
C371   C     0.50799   0.73523   0.98688   0.00000  Uiso   1.00
C372   C     0.45356   0.72490   0.99033   0.00000  Uiso   1.00
C373   C     0.36974   0.69235   0.01996   0.00000  Uiso   1.00
C374   C     0.58324   0.85376   0.93955   0.00000  Uiso   1.00
C375   C     0.61603   0.87767   0.00376   0.00000  Uiso   1.00
C376   C     0.61102   0.93249   0.01493   0.00000  Uiso   1.00
C377   C     0.61834   0.02008   0.05875   0.00000  Uiso   1.00
C378   C     0.59248   0.79075   0.81443   0.00000  Uiso   1.00
C379   C     0.63305   0.76169   0.77344   0.00000  Uiso   1.00
C380   C     0.63582   0.76346   0.67926   0.00000  Uiso   1.00
C381   C     0.65748   0.75322   0.52883   0.00000  Uiso   1.00
C382   C     0.51490   0.84927   0.82199   0.00000  Uiso   1.00
C383   C     0.48805   0.80616   0.87913   0.00000  Uiso   1.00
C384   C     0.43363   0.79590   0.88249   0.00000  Uiso   1.00
C385   C     0.41699   0.75473   0.93899   0.00000  Uiso   1.00
C386   C     0.54674   0.88355   0.88831   0.00000  Uiso   1.00
C387   C     0.54168   0.93834   0.89938   0.00000  Uiso   1.00
C388   C     0.57445   0.96233   0.96359   0.00000  Uiso   1.00
C389   C     0.55598   0.82053   0.76318   0.00000  Uiso   1.00
C390   C     0.55869   0.82236   0.66905   0.00000  Uiso   1.00
C391   C     0.59925   0.79330   0.62792   0.00000  Uiso   1.00
H392   H     0.61053   0.77125   0.95623   0.00000  Uiso   1.00
H393   H     0.53625   0.71219   0.02653   0.00000  Uiso   1.00
H394   H     0.64428   0.85461   0.04340   0.00000  Uiso   1.00
H395   H     0.66129   0.73864   0.81312   0.00000  Uiso   1.00
H396   H     0.43780   0.65985   0.08190   0.00000  Uiso   1.00
H397   H     0.66560   0.96017   0.11744   0.00000  Uiso   1.00
H398   H     0.70147   0.71563   0.63184   0.00000  Uiso   1.00
H399   H     0.48648   0.87246   0.78209   0.00000  Uiso   1.00
H400   H     0.40539   0.81895   0.84283   0.00000  Uiso   1.00
H401   H     0.51343   0.96138   0.85970   0.00000  Uiso   1.00
H402   H     0.53043   0.84541   0.62942   0.00000  Uiso   1.00
H403   H     0.33159   0.74651   0.93280   0.00000  Uiso   1.00
H404   H     0.55939   0.04683   0.96835   0.00000  Uiso   1.00
H405   H     0.59526   0.80229   0.48275   0.00000  Uiso   1.00
O406   O     0.33359   0.66617   0.05047   0.00000  Uiso   1.00
O407   O     0.63246   0.06017   0.09710   0.00000  Uiso   1.00
O408   O     0.67951   0.73934   0.46000   0.00000  Uiso   1.00
N409   N     0.42393   0.68759   0.03846   0.00000  Uiso   1.00
N410   N     0.63690   0.96836   0.07170   0.00000  Uiso   1.00
N411   N     0.67045   0.73975   0.61771   0.00000  Uiso   1.00
N412   N     0.36678   0.73421   0.95823   0.00000  Uiso   1.00
N413   N     0.57975   0.01499   0.99148   0.00000  Uiso   1.00
N414   N     0.61330   0.78638   0.53748   0.00000  Uiso   1.00
C415   C     0.08211   0.29443   0.41633   0.00000  Uiso   1.00
C416   C     0.02455   0.27638   0.43037   0.00000  Uiso   1.00
C417   C     0.00799   0.23523   0.48688   0.00000  Uiso   1.00
C418   C     0.95356   0.22490   0.49033   0.00000  Uiso   1.00
C419   C     0.86974   0.19235   0.51996   0.00000  Uiso   1.00
C420   C     0.08324   0.35376   0.43955   0.00000  Uiso   1.00
C421   C     0.11603   0.37767   0.50376   0.00000  Uiso   1.00
C422   C     0.11102   0.43249   0.51493   0.00000  Uiso   1.00
C423   C     0.11834   0.52008   0.55875   0.00000  Uiso   1.00
C424   C     0.09248   0.29075   0.31443   0.00000  Uiso   1.00
C425   C     0.13305   0.26169   0.27344   0.00000  Uiso   1.00
C426   C     0.13582   0.26346   0.17926   0.00000  Uiso   1.00
C427   C     0.15748   0.25322   0.02883   0.00000  Uiso   1.00
C428   C     0.01490   0.34927   0.32199   0.00000  Uiso   1.00
C429   C     0.98805   0.30616   0.37913   0.00000  Uiso   1.00
C430   C     0.93363   0.29590   0.38249   0.00000  Uiso   1.00
C431   C     0.91699   0.25473   0.43899   0.00000  Uiso   1.00
C432   C     0.04674   0.38355   0.38831   0.00000  Uiso   1.00
C433   C     0.04168   0.43834   0.39938   0.00000  Uiso   1.00
C434   C     0.07445   0.46233   0.46359   0.00000  Uiso   1.00
C435   C     0.05598   0.32053   0.26318   0.00000  Uiso   1.00
C436   C     0.05869   0.32236   0.16905   0.00000  Uiso   1.00
C437   C     0.09925   0.29330   0.12792   0.00000  Uiso   1.00
H438   H     0.11053   0.27125   0.45623   0.00000  Uiso   1.00
H439   H     0.03625   0.21219   0.52653   0.00000  Uiso   1.00
H440   H     0.14428   0.35461   0.54340   0.00000  Uiso   1.00
H441   H     0.16129   0.23864   0.31312   0.00000  Uiso   1.00
H442   H     0.93780   0.15985   0.58190   0.00000  Uiso   1.00
H443   H     0.16560   0.46017   0.61744   0.00000  Uiso   1.00
H444   H     0.20147   0.21563   0.13184   0.00000  Uiso   1.00
H445   H     0.98648   0.37246   0.28209   0.00000  Uiso   1.00
H446   H     0.90539   0.31895   0.34283   0.00000  Uiso   1.00
H447   H     0.01343   0.46138   0.35970   0.00000  Uiso   1.00
H448   H     0.03043   0.34541   0.12942   0.00000  Uiso   1.00
H449   H     0.83159   0.24651   0.43280   0.00000  Uiso   1.00
H450   H     0.05939   0.54683   0.46835   0.00000  Uiso   1.00
H451   H     0.09526   0.30229   0.98275   0.00000  Uiso   1.00
O452   O     0.83359   0.16617   0.55047   0.00000  Uiso   1.00
O453   O     0.13246   0.56017   0.59710   0.00000  Uiso   1.00
O454   O     0.17951   0.23934   0.96000   0.00000  Uiso   1.00
N455   N     0.92393   0.18759   0.53846   0.00000  Uiso   1.00
N456   N     0.13690   0.46836   0.57170   0.00000  Uiso   1.00
N457   N     0.17045   0.23975   0.11771   0.00000  Uiso   1.00
N458   N     0.86678   0.23421   0.45823   0.00000  Uiso   1.00
N459   N     0.07975   0.51499   0.49148   0.00000  Uiso   1.00
N460   N     0.11330   0.28638   0.03748   0.00000  Uiso   1.00
C461   C     0.91789   0.70557   0.41633   0.00000  Uiso   1.00
C462   C     0.97545   0.72362   0.43037   0.00000  Uiso   1.00
C463   C     0.99201   0.76477   0.48688   0.00000  Uiso   1.00
C464   C     0.04644   0.77510   0.49033   0.00000  Uiso   1.00
C465   C     0.13026   0.80765   0.51996   0.00000  Uiso   1.00
C466   C     0.91676   0.64624   0.43955   0.00000  Uiso   1.00
C467   C     0.88397   0.62233   0.50376   0.00000  Uiso   1.00
C468   C     0.88898   0.56751   0.51493   0.00000  Uiso   1.00
C469   C     0.88166   0.47992   0.55875   0.00000  Uiso   1.00
C470   C     0.90752   0.70925   0.31443   0.00000  Uiso   1.00
C471   C     0.86695   0.73831   0.27344   0.00000  Uiso   1.00
C472   C     0.86418   0.73654   0.17926   0.00000  Uiso   1.00
C473   C     0.84252   0.74678   0.02883   0.00000  Uiso   1.00
C474   C     0.98510   0.65073   0.32199   0.00000  Uiso   1.00
C475   C     0.01195   0.69384   0.37913   0.00000  Uiso   1.00
C476   C     0.06637   0.70410   0.38249   0.00000  Uiso   1.00
C477   C     0.08301   0.74527   0.43899   0.00000  Uiso   1.00
C478   C     0.95326   0.61645   0.38831   0.00000  Uiso   1.00
C479   C     0.95832   0.56166   0.39938   0.00000  Uiso   1.00
C480   C     0.92555   0.53767   0.46359   0.00000  Uiso   1.00
C481   C     0.94402   0.67947   0.26318   0.00000  Uiso   1.00
C482   C     0.94131   0.67764   0.16905   0.00000  Uiso   1.00
C483   C     0.90075   0.70670   0.12792   0.00000  Uiso   1.00
H484   H     0.88947   0.72875   0.45623   0.00000  Uiso   1.00
H485   H     0.96375   0.78781   0.52653   0.00000  Uiso   1.00
H486   H     0.85572   0.64539   0.54340   0.00000  Uiso   1.00
H487   H     0.83871   0.76136   0.31312   0.00000  Uiso   1.00
H488   H     0.06220   0.84015   0.58190   0.00000  Uiso   1.00
H489   H     0.83440   0.53983   0.61744   0.00000  Uiso   1.00
H490   H     0.79853   0.78437   0.13184   0.00000  Uiso   1.00
H491   H     0.01352   0.62754   0.28209   0.00000  Uiso   1.00
H492   H     0.09461   0.68105   0.34283   0.00000  Uiso   1.00
H493   H     0.98657   0.53862   0.35970   0.00000  Uiso   1.00
H494   H     0.96957   0.65459   0.12942   0.00000  Uiso   1.00
H495   H     0.16841   0.75349   0.43280   0.00000  Uiso   1.00
H496   H     0.94061   0.45317   0.46835   0.00000  Uiso   1.00
H497   H     0.90474   0.69771   0.98275   0.00000  Uiso   1.00
O498   O     0.16641   0.83383   0.55047   0.00000  Uiso   1.00
O499   O     0.86754   0.43983   0.59710   0.00000  Uiso   1.00
O500   O     0.82049   0.76066   0.96000   0.00000  Uiso   1.00
N501   N     0.07607   0.81241   0.53846   0.00000  Uiso   1.00
N502   N     0.86310   0.53164   0.57170   0.00000  Uiso   1.00
N503   N     0.82955   0.76025   0.11771   0.00000  Uiso   1.00
N504   N     0.13322   0.76579   0.45823   0.00000  Uiso   1.00
N505   N     0.92025   0.48501   0.49148   0.00000  Uiso   1.00
N506   N     0.88670   0.71362   0.03748   0.00000  Uiso   1.00
C507   C     0.41789   0.20557   0.91633   0.00000  Uiso   1.00
C508   C     0.47545   0.22362   0.93037   0.00000  Uiso   1.00
C509   C     0.49201   0.26477   0.98688   0.00000  Uiso   1.00
C510   C     0.54644   0.27510   0.99033   0.00000  Uiso   1.00
C511   C     0.63026   0.30765   0.01996   0.00000  Uiso   1.00
C512   C     0.41676   0.14624   0.93955   0.00000  Uiso   1.00
C513   C     0.38397   0.12233   0.00376   0.00000  Uiso   1.00
C514   C     0.38898   0.06751   0.01493   0.00000  Uiso   1.00
C515   C     0.38166   0.97992   0.05875   0.00000  Uiso   1.00
C516   C     0.40752   0.20925   0.81443   0.00000  Uiso   1.00
C517   C     0.36695   0.23831   0.77344   0.00000  Uiso   1.00
C518   C     0.36418   0.23654   0.67926   0.00000  Uiso   1.00
C519   C     0.34252   0.24678   0.52883   0.00000  Uiso   1.00
C520   C     0.48510   0.15073   0.82199   0.00000  Uiso   1.00
C521   C     0.51195   0.19384   0.87913   0.00000  Uiso   1.00
C522   C     0.56637   0.20410   0.88249   0.00000  Uiso   1.00
C523   C     0.58301   0.24527   0.93899   0.00000  Uiso   1.00
C524   C     0.45326   0.11645   0.88831   0.00000  Uiso   1.00
C525   C     0.45832   0.06166   0.89938   0.00000  Uiso   1.00
C526   C     0.42555   0.03767   0.96359   0.00000  Uiso   1.00
C527   C     0.44402   0.17947   0.76318   0.00000  Uiso   1.00
C528   C     0.44131   0.17764   0.66905   0.00000  Uiso   1.00
C529   C     0.40075   0.20670   0.62792   0.00000  Uiso   1.00
H530   H     0.38947   0.22875   0.95623   0.00000  Uiso   1.00
H531   H     0.46375   0.28781   0.02653   0.00000  Uiso   1.00
H532   H     0.35572   0.14539   0.04340   0.00000  Uiso   1.00
H533   H     0.33871   0.26136   0.81312   0.00000  Uiso   1.00
H534   H     0.56220   0.34015   0.08190   0.00000  Uiso   1.00
H535   H     0.33440   0.03983   0.11744   0.00000  Uiso   1.00
H536   H     0.29853   0.28437   0.63184   0.00000  Uiso   1.00
H537   H     0.51352   0.12754   0.78209   0.00000  Uiso   1.00
H538   H     0.59461   0.18105   0.84283   0.00000  Uiso   1.00
H539   H     0.48657   0.03862   0.85970   0.00000  Uiso   1.00
H540   H     0.46957   0.15459   0.62942   0.00000  Uiso   1.00
H541   H     0.66841   0.25349   0.93280   0.00000  Uiso   1.00
H542   H     0.44061   0.95317   0.96835   0.00000  Uiso   1.00
H543   H     0.40474   0.19771   0.48275   0.00000  Uiso   1.00
O544   O     0.66641   0.33383   0.05047   0.00000  Uiso   1.00
O545   O     0.36754   0.93983   0.09710   0.00000  Uiso   1.00
O546   O     0.32049   0.26066   0.46000   0.00000  Uiso   1.00
N547   N     0.57607   0.31241   0.03846   0.00000  Uiso   1.00
N548   N     0.36310   0.03164   0.07170   0.00000  Uiso   1.00
N549   N     0.32955   0.26025   0.61771   0.00000  Uiso   1.00
N550   N     0.63322   0.26579   0.95823   0.00000  Uiso   1.00
N551   N     0.42025   0.98501   0.99148   0.00000  Uiso   1.00
N552   N     0.38670   0.21362   0.53748   0.00000  Uiso   1.00
C553   C     0.70557   0.58211   0.66633   0.00000  Uiso   1.00
C554   C     0.72362   0.52455   0.68037   0.00000  Uiso   1.00
C555   C     0.76477   0.50799   0.73688   0.00000  Uiso   1.00
C556   C     0.77510   0.45356   0.74033   0.00000  Uiso   1.00
C557   C     0.80765   0.36974   0.76996   0.00000  Uiso   1.00
C558   C     0.64624   0.58324   0.68955   0.00000  Uiso   1.00
C559   C     0.62233   0.61603   0.75376   0.00000  Uiso   1.00
C560   C     0.56751   0.61102   0.76493   0.00000  Uiso   1.00
C561   C     0.47992   0.61834   0.80875   0.00000  Uiso   1.00
C562   C     0.70925   0.59248   0.56443   0.00000  Uiso   1.00
C563   C     0.73831   0.63305   0.52344   0.00000  Uiso   1.00
C564   C     0.73654   0.63582   0.42926   0.00000  Uiso   1.00
C565   C     0.74678   0.65748   0.27883   0.00000  Uiso   1.00
C566   C     0.65073   0.51490   0.57199   0.00000  Uiso   1.00
C567   C     0.69384   0.48805   0.62913   0.00000  Uiso   1.00
C568   C     0.70410   0.43363   0.63249   0.00000  Uiso   1.00
C569   C     0.74527   0.41699   0.68899   0.00000  Uiso   1.00
C570   C     0.61645   0.54674   0.63831   0.00000  Uiso   1.00
C571   C     0.56166   0.54168   0.64938   0.00000  Uiso   1.00
C572   C     0.53767   0.57445   0.71359   0.00000  Uiso   1.00
C573   C     0.67947   0.55598   0.51318   0.00000  Uiso   1.00
C574   C     0.67764   0.55869   0.41905   0.00000  Uiso   1.00
C575   C     0.70670   0.59925   0.37792   0.00000  Uiso   1.00
H576   H     0.72875   0.61053   0.70623   0.00000  Uiso   1.00
H577   H     0.78781   0.53625   0.77653   0.00000  Uiso   1.00
H578   H     0.64539   0.64428   0.79340   0.00000  Uiso   1.00
H579   H     0.76136   0.66129   0.56312   0.00000  Uiso   1.00
H580   H     0.84015   0.43780   0.83190   0.00000  Uiso   1.00
H581   H     0.53983   0.66560   0.86744   0.00000  Uiso   1.00
H582   H     0.78437   0.70147   0.38184   0.00000  Uiso   1.00
H583   H     0.62754   0.48648   0.53209   0.00000  Uiso   1.00
H584   H     0.68105   0.40539   0.59283   0.00000  Uiso   1.00
H585   H     0.53862   0.51343   0.60970   0.00000  Uiso   1.00
H586   H     0.65459   0.53043   0.37942   0.00000  Uiso   1.00
H587   H     0.75349   0.33159   0.68280   0.00000  Uiso   1.00
H588   H     0.45317   0.55939   0.71835   0.00000  Uiso   1.00
H589   H     0.69771   0.59526   0.23275   0.00000  Uiso   1.00
O590   O     0.83383   0.33359   0.80047   0.00000  Uiso   1.00
O591   O     0.43983   0.63246   0.84710   0.00000  Uiso   1.00
O592   O     0.76066   0.67951   0.21000   0.00000  Uiso   1.00
N593   N     0.81241   0.42393   0.78846   0.00000  Uiso   1.00
N594   N     0.53164   0.63690   0.82170   0.00000  Uiso   1.00
N595   N     0.76025   0.67045   0.36771   0.00000  Uiso   1.00
N596   N     0.76579   0.36678   0.70823   0.00000  Uiso   1.00
N597   N     0.48501   0.57975   0.74148   0.00000  Uiso   1.00
N598   N     0.71362   0.61330   0.28748   0.00000  Uiso   1.00
C599   C     0.20557   0.08211   0.16633   0.00000  Uiso   1.00
C600   C     0.22362   0.02455   0.18037   0.00000  Uiso   1.00
C601   C     0.26477   0.00799   0.23688   0.00000  Uiso   1.00
C602   C     0.27510   0.95356   0.24033   0.00000  Uiso   1.00
C603   C     0.30765   0.86974   0.26996   0.00000  Uiso   1.00
C604   C     0.14624   0.08324   0.18955   0.00000  Uiso   1.00
C605   C     0.12233   0.11603   0.25376   0.00000  Uiso   1.00
C606   C     0.06751   0.11102   0.26493   0.00000  Uiso   1.00
C607   C     0.97992   0.11834   0.30875   0.00000  Uiso   1.00
C608   C     0.20925   0.09248   0.06443   0.00000  Uiso   1.00
C609   C     0.23831   0.13305   0.02344   0.00000  Uiso   1.00
C610   C     0.23654   0.13582   0.92926   0.00000  Uiso   1.00
C611   C     0.24678   0.15748   0.77883   0.00000  Uiso   1.00
C612   C     0.15073   0.01490   0.07199   0.00000  Uiso   1.00
C613   C     0.19384   0.98805   0.12913   0.00000  Uiso   1.00
C614   C     0.20410   0.93363   0.13249   0.00000  Uiso   1.00
C615   C     0.24527   0.91699   0.18899   0.00000  Uiso   1.00
C616   C     0.11645   0.04674   0.13831   0.00000  Uiso   1.00
C617   C     0.06166   0.04168   0.14938   0.00000  Uiso   1.00
C618   C     0.03767   0.07445   0.21359   0.00000  Uiso   1.00
C619   C     0.17947   0.05598   0.01318   0.00000  Uiso   1.00
C620   C     0.17764   0.05869   0.91905   0.00000  Uiso   1.00
C621   C     0.20670   0.09925   0.87792   0.00000  Uiso   1.00
H622   H     0.22875   0.11053   0.20623   0.00000  Uiso   1.00
H623   H     0.28781   0.03625   0.27653   0.00000  Uiso   1.00
H624   H     0.14539   0.14428   0.29340   0.00000  Uiso   1.00
H625   H     0.26136   0.16129   0.06312   0.00000  Uiso   1.00
H626   H     0.34015   0.93780   0.33190   0.00000  Uiso   1.00
H627   H     0.03983   0.16560   0.36744   0.00000  Uiso   1.00
H628   H     0.28437   0.20147   0.88184   0.00000  Uiso   1.00
H629   H     0.12754   0.98648   0.03209   0.00000  Uiso   1.00
H630   H     0.18105   0.90539   0.09283   0.00000  Uiso   1.00
H631   H     0.03862   0.01343   0.10970   0.00000  Uiso   1.00
H632   H     0.15459   0.03043   0.87942   0.00000  Uiso   1.00
H633   H     0.25349   0.83159   0.18280   0.00000  Uiso   1.00
H634   H     0.95317   0.05939   0.21835   0.00000  Uiso   1.00
H635   H     0.19771   0.09526   0.73275   0.00000  Uiso   1.00
O636   O     0.33383   0.83359   0.30047   0.00000  Uiso   1.00
O637   O     0.93983   0.13246   0.34710   0.00000  Uiso   1.00
O638   O     0.26066   0.17951   0.71000   0.00000  Uiso   1.00
N639   N     0.31241   0.92393   0.28846   0.00000  Uiso   1.00
N640   N     0.03164   0.13690   0.32170   0.00000  Uiso   1.00
N641   N     0.26025   0.17045   0.86771   0.00000  Uiso   1.00
N642   N     0.26579   0.86678   0.20823   0.00000  Uiso   1.00
N643   N     0.98501   0.07975   0.24148   0.00000  Uiso   1.00
N644   N     0.21362   0.11330   0.78748   0.00000  Uiso   1.00
C645   C     0.79443   0.91789   0.16633   0.00000  Uiso   1.00
C646   C     0.77638   0.97545   0.18037   0.00000  Uiso   1.00
C647   C     0.73523   0.99201   0.23688   0.00000  Uiso   1.00
C648   C     0.72490   0.04644   0.24033   0.00000  Uiso   1.00
C649   C     0.69235   0.13026   0.26996   0.00000  Uiso   1.00
C650   C     0.85376   0.91676   0.18955   0.00000  Uiso   1.00
C651   C     0.87767   0.88397   0.25376   0.00000  Uiso   1.00
C652   C     0.93249   0.88898   0.26493   0.00000  Uiso   1.00
C653   C     0.02008   0.88166   0.30875   0.00000  Uiso   1.00
C654   C     0.79075   0.90752   0.06443   0.00000  Uiso   1.00
C655   C     0.76169   0.86695   0.02344   0.00000  Uiso   1.00
C656   C     0.76346   0.86418   0.92926   0.00000  Uiso   1.00
C657   C     0.75322   0.84252   0.77883   0.00000  Uiso   1.00
C658   C     0.84927   0.98510   0.07199   0.00000  Uiso   1.00
C659   C     0.80616   0.01195   0.12913   0.00000  Uiso   1.00
C660   C     0.79590   0.06637   0.13249   0.00000  Uiso   1.00
C661   C     0.75473   0.08301   0.18899   0.00000  Uiso   1.00
C662   C     0.88355   0.95326   0.13831   0.00000  Uiso   1.00
C663   C     0.93834   0.95832   0.14938   0.00000  Uiso   1.00
C664   C     0.96233   0.92555   0.21359   0.00000  Uiso   1.00
C665   C     0.82053   0.94402   0.01318   0.00000  Uiso   1.00
C666   C     0.82236   0.94131   0.91905   0.00000  Uiso   1.00
C667   C     0.79330   0.90075   0.87792   0.00000  Uiso   1.00
H668   H     0.77125   0.88947   0.20623   0.00000  Uiso   1.00
H669   H     0.71219   0.96375   0.27653   0.00000  Uiso   1.00
H670   H     0.85461   0.85572   0.29340   0.00000  Uiso   1.00
H671   H     0.73864   0.83871   0.06312   0.00000  Uiso   1.00
H672   H     0.65985   0.06220   0.33190   0.00000  Uiso   1.00
H673   H     0.96017   0.83440   0.36744   0.00000  Uiso   1.00
H674   H     0.71563   0.79853   0.88184   0.00000  Uiso   1.00
H675   H     0.87246   0.01352   0.03209   0.00000  Uiso   1.00
H676   H     0.81895   0.09461   0.09283   0.00000  Uiso   1.00
H677   H     0.96138   0.98657   0.10970   0.00000  Uiso   1.00
H678   H     0.84541   0.96957   0.87942   0.00000  Uiso   1.00
H679   H     0.74651   0.16841   0.18280   0.00000  Uiso   1.00
H680   H     0.04683   0.94061   0.21835   0.00000  Uiso   1.00
H681   H     0.80229   0.90474   0.73275   0.00000  Uiso   1.00
O682   O     0.66617   0.16641   0.30047   0.00000  Uiso   1.00
O683   O     0.06017   0.86754   0.34710   0.00000  Uiso   1.00
O684   O     0.73934   0.82049   0.71000   0.00000  Uiso   1.00
N685   N     0.68759   0.07607   0.28846   0.00000  Uiso   1.00
N686   N     0.96836   0.86310   0.32170   0.00000  Uiso   1.00
N687   N     0.73975   0.82955   0.86771   0.00000  Uiso   1.00
N688   N     0.73421   0.13322   0.20823   0.00000  Uiso   1.00
N689   N     0.01499   0.92025   0.24148   0.00000  Uiso   1.00
N690   N     0.78638   0.88670   0.78748   0.00000  Uiso   1.00
C691   C     0.29443   0.41789   0.66633   0.00000  Uiso   1.00
C692   C     0.27638   0.47545   0.68037   0.00000  Uiso   1.00
C693   C     0.23523   0.49201   0.73688   0.00000  Uiso   1.00
C694   C     0.22490   0.54644   0.74033   0.00000  Uiso   1.00
C695   C     0.19235   0.63026   0.76996   0.00000  Uiso   1.00
C696   C     0.35376   0.41676   0.68955   0.00000  Uiso   1.00
C697   C     0.37767   0.38397   0.75376   0.00000  Uiso   1.00
C698   C     0.43249   0.38898   0.76493   0.00000  Uiso   1.00
C699   C     0.52008   0.38166   0.80875   0.00000  Uiso   1.00
C700   C     0.29075   0.40752   0.56443   0.00000  Uiso   1.00
C701   C     0.26169   0.36695   0.52344   0.00000  Uiso   1.00
C702   C     0.26346   0.36418   0.42926   0.00000  Uiso   1.00
C703   C     0.25322   0.34252   0.27883   0.00000  Uiso   1.00
C704   C     0.34927   0.48510   0.57199   0.00000  Uiso   1.00
C705   C     0.30616   0.51195   0.62913   0.00000  Uiso   1.00
C706   C     0.29590   0.56637   0.63249   0.00000  Uiso   1.00
C707   C     0.25473   0.58301   0.68899   0.00000  Uiso   1.00
C708   C     0.38355   0.45326   0.63831   0.00000  Uiso   1.00
C709   C     0.43834   0.45832   0.64938   0.00000  Uiso   1.00
C710   C     0.46233   0.42555   0.71359   0.00000  Uiso   1.00
C711   C     0.32053   0.44402   0.51318   0.00000  Uiso   1.00
C712   C     0.32236   0.44131   0.41905   0.00000  Uiso   1.00
C713   C     0.29330   0.40075   0.37792   0.00000  Uiso   1.00
H714   H     0.27125   0.38947   0.70623   0.00000  Uiso   1.00
H715   H     0.21219   0.46375   0.77653   0.00000  Uiso   1.00
H716   H     0.35461   0.35572   0.79340   0.00000  Uiso   1.00
H717   H     0.23864   0.33871   0.56312   0.00000  Uiso   1.00
H718   H     0.15985   0.56220   0.83190   0.00000  Uiso   1.00
H719   H     0.46017   0.33440   0.86744   0.00000  Uiso   1.00
H720   H     0.21563   0.29853   0.38184   0.00000  Uiso   1.00
H721   H     0.37246   0.51352   0.53209   0.00000  Uiso   1.00
H722   H     0.31895   0.59461   0.59283   0.00000  Uiso   1.00
H723   H     0.46138   0.48657   0.60970   0.00000  Uiso   1.00
H724   H     0.34541   0.46957   0.37942   0.00000  Uiso   1.00
H725   H     0.24651   0.66841   0.68280   0.00000  Uiso   1.00
H726   H     0.54683   0.44061   0.71835   0.00000  Uiso   1.00
H727   H     0.30229   0.40474   0.23275   0.00000  Uiso   1.00
O728   O     0.16617   0.66641   0.80047   0.00000  Uiso   1.00
O729   O     0.56017   0.36754   0.84710   0.00000  Uiso   1.00
O730   O     0.23934   0.32049   0.21000   0.00000  Uiso   1.00
N731   N     0.18759   0.57607   0.78846   0.00000  Uiso   1.00
N732   N     0.46836   0.36310   0.82170   0.00000  Uiso   1.00
N733   N     0.23975   0.32955   0.36771   0.00000  Uiso   1.00
N734   N     0.23421   0.63322   0.70823   0.00000  Uiso   1.00
N735   N     0.51499   0.42025   0.74148   0.00000  Uiso   1.00
N736   N     0.28638   0.38670   0.28748   0.00000  Uiso   1.00
