data_job_02776
_audit_creation_date              2018-12-19
_audit_creation_method            'Materials Studio'
_symmetry_space_group_name_H-M    'P1'
_symmetry_Int_Tables_number       1
_symmetry_cell_setting            triclinic
loop_
_symmetry_equiv_pos_as_xyz
  x,y,z
_cell_length_a                    21.5581
_cell_length_b                    21.5581
_cell_length_c                    23.5945
_cell_angle_alpha                 90.0000
_cell_angle_beta                  90.0000
_cell_angle_gamma                 90.0000
loop_
_atom_site_label
_atom_site_type_symbol
_atom_site_fract_x
_atom_site_fract_y
_atom_site_fract_z
_atom_site_U_iso_or_equiv
_atom_site_adp_type
_atom_site_occupancy
C1     C     0.68713   0.03079   0.83421   0.00000  Uiso   1.00
C2     C     0.69893   0.97361   0.87070   0.00000  Uiso   1.00
C3     C     0.66096   0.95242   0.91407   0.00000  Uiso   1.00
C4     C     0.67987   0.89924   0.94242   0.00000  Uiso   1.00
C5     C     0.68985   0.81516   0.00130   0.00000  Uiso   1.00
C6     C     0.74443   0.07167   0.84062   0.00000  Uiso   1.00
C7     C     0.74471   0.13294   0.85869   0.00000  Uiso   1.00
C8     C     0.80193   0.16232   0.86171   0.00000  Uiso   1.00
C9     C     0.88254   0.23050   0.87385   0.00000  Uiso   1.00
C10    C     0.68733   0.00820   0.77297   0.00000  Uiso   1.00
C11    C     0.63962   0.01611   0.73415   0.00000  Uiso   1.00
C12    C     0.64877   0.99206   0.68021   0.00000  Uiso   1.00
C13    C     0.64074   0.96169   0.58732   0.00000  Uiso   1.00
C14    C     0.78824   0.97404   0.80743   0.00000  Uiso   1.00
C15    C     0.75385   0.94278   0.85615   0.00000  Uiso   1.00
C16    C     0.77282   0.88963   0.88444   0.00000  Uiso   1.00
C17    C     0.73489   0.86836   0.92784   0.00000  Uiso   1.00
C18    C     0.79935   0.04085   0.82607   0.00000  Uiso   1.00
C19    C     0.85658   0.07015   0.82906   0.00000  Uiso   1.00
C20    C     0.85695   0.13144   0.84713   0.00000  Uiso   1.00
C21    C     0.74225   0.97737   0.75842   0.00000  Uiso   1.00
C22    C     0.75149   0.95332   0.70452   0.00000  Uiso   1.00
C23    C     0.70379   0.96118   0.66563   0.00000  Uiso   1.00
H24    H     0.64438   0.05479   0.84554   0.00000  Uiso   1.00
H25    H     0.61846   0.97629   0.92532   0.00000  Uiso   1.00
H26    H     0.70220   0.15678   0.86994   0.00000  Uiso   1.00
H27    H     0.59713   0.03997   0.74543   0.00000  Uiso   1.00
H28    H     0.61396   0.87567   0.00737   0.00000  Uiso   1.00
H29    H     0.79053   0.25626   0.89058   0.00000  Uiso   1.00
H30    H     0.56895   0.00993   0.62801   0.00000  Uiso   1.00
H31    H     0.83100   0.95004   0.79610   0.00000  Uiso   1.00
H32    H     0.81533   0.86578   0.87317   0.00000  Uiso   1.00
H33    H     0.89907   0.04628   0.81779   0.00000  Uiso   1.00
H34    H     0.79399   0.92946   0.69328   0.00000  Uiso   1.00
H35    H     0.77375   0.78598   0.96504   0.00000  Uiso   1.00
H36    H     0.95032   0.16657   0.84825   0.00000  Uiso   1.00
H37    H     0.72874   0.92024   0.58569   0.00000  Uiso   1.00
O38    O     0.68018   0.77730   0.03781   0.00000  Uiso   1.00
O39    O     0.91184   0.27662   0.88458   0.00000  Uiso   1.00
O40    O     0.62113   0.95345   0.54010   0.00000  Uiso   1.00
N41    N     0.65371   0.86612   0.98682   0.00000  Uiso   1.00
N42    N     0.81880   0.22194   0.87764   0.00000  Uiso   1.00
N43    N     0.61165   0.99166   0.63216   0.00000  Uiso   1.00
N44    N     0.73969   0.81786   0.96405   0.00000  Uiso   1.00
N45    N     0.90477   0.17368   0.85487   0.00000  Uiso   1.00
N46    N     0.69762   0.94340   0.60939   0.00000  Uiso   1.00
C47    C     0.31287   0.96921   0.83421   0.00000  Uiso   1.00
C48    C     0.30107   0.02639   0.87070   0.00000  Uiso   1.00
C49    C     0.33904   0.04758   0.91407   0.00000  Uiso   1.00
C50    C     0.32013   0.10076   0.94242   0.00000  Uiso   1.00
C51    C     0.31015   0.18484   0.00130   0.00000  Uiso   1.00
C52    C     0.25557   0.92833   0.84062   0.00000  Uiso   1.00
C53    C     0.25529   0.86706   0.85869   0.00000  Uiso   1.00
C54    C     0.19807   0.83768   0.86171   0.00000  Uiso   1.00
C55    C     0.11746   0.76950   0.87385   0.00000  Uiso   1.00
C56    C     0.31267   0.99180   0.77297   0.00000  Uiso   1.00
C57    C     0.36038   0.98389   0.73415   0.00000  Uiso   1.00
C58    C     0.35123   0.00794   0.68021   0.00000  Uiso   1.00
C59    C     0.35926   0.03831   0.58732   0.00000  Uiso   1.00
C60    C     0.21176   0.02596   0.80743   0.00000  Uiso   1.00
C61    C     0.24615   0.05722   0.85615   0.00000  Uiso   1.00
C62    C     0.22718   0.11037   0.88444   0.00000  Uiso   1.00
C63    C     0.26511   0.13164   0.92784   0.00000  Uiso   1.00
C64    C     0.20065   0.95915   0.82607   0.00000  Uiso   1.00
C65    C     0.14342   0.92985   0.82906   0.00000  Uiso   1.00
C66    C     0.14305   0.86856   0.84713   0.00000  Uiso   1.00
C67    C     0.25775   0.02263   0.75842   0.00000  Uiso   1.00
C68    C     0.24851   0.04668   0.70452   0.00000  Uiso   1.00
C69    C     0.29621   0.03882   0.66563   0.00000  Uiso   1.00
H70    H     0.35562   0.94521   0.84554   0.00000  Uiso   1.00
H71    H     0.38154   0.02371   0.92532   0.00000  Uiso   1.00
H72    H     0.29780   0.84322   0.86994   0.00000  Uiso   1.00
H73    H     0.40287   0.96003   0.74543   0.00000  Uiso   1.00
H74    H     0.38604   0.12433   0.00737   0.00000  Uiso   1.00
H75    H     0.20947   0.74374   0.89058   0.00000  Uiso   1.00
H76    H     0.43105   0.99007   0.62801   0.00000  Uiso   1.00
H77    H     0.16900   0.04996   0.79610   0.00000  Uiso   1.00
H78    H     0.18467   0.13422   0.87317   0.00000  Uiso   1.00
H79    H     0.10093   0.95372   0.81779   0.00000  Uiso   1.00
H80    H     0.20601   0.07054   0.69328   0.00000  Uiso   1.00
H81    H     0.22625   0.21402   0.96504   0.00000  Uiso   1.00
H82    H     0.04968   0.83343   0.84825   0.00000  Uiso   1.00
H83    H     0.27126   0.07976   0.58569   0.00000  Uiso   1.00
O84    O     0.31982   0.22270   0.03781   0.00000  Uiso   1.00
O85    O     0.08816   0.72338   0.88458   0.00000  Uiso   1.00
O86    O     0.37887   0.04655   0.54010   0.00000  Uiso   1.00
N87    N     0.34629   0.13388   0.98682   0.00000  Uiso   1.00
N88    N     0.18120   0.77806   0.87764   0.00000  Uiso   1.00
N89    N     0.38835   0.00834   0.63216   0.00000  Uiso   1.00
N90    N     0.26031   0.18214   0.96405   0.00000  Uiso   1.00
N91    N     0.09523   0.82632   0.85487   0.00000  Uiso   1.00
N92    N     0.30238   0.05660   0.60939   0.00000  Uiso   1.00
C93    C     0.46921   0.18713   0.83421   0.00000  Uiso   1.00
C94    C     0.52639   0.19893   0.87070   0.00000  Uiso   1.00
C95    C     0.54758   0.16096   0.91407   0.00000  Uiso   1.00
C96    C     0.60076   0.17987   0.94242   0.00000  Uiso   1.00
C97    C     0.68484   0.18985   0.00130   0.00000  Uiso   1.00
C98    C     0.42833   0.24443   0.84062   0.00000  Uiso   1.00
C99    C     0.36706   0.24471   0.85869   0.00000  Uiso   1.00
C100   C     0.33768   0.30193   0.86171   0.00000  Uiso   1.00
C101   C     0.26950   0.38254   0.87385   0.00000  Uiso   1.00
C102   C     0.49180   0.18733   0.77297   0.00000  Uiso   1.00
C103   C     0.48389   0.13962   0.73415   0.00000  Uiso   1.00
C104   C     0.50794   0.14877   0.68021   0.00000  Uiso   1.00
C105   C     0.53831   0.14074   0.58732   0.00000  Uiso   1.00
C106   C     0.52596   0.28824   0.80743   0.00000  Uiso   1.00
C107   C     0.55722   0.25385   0.85615   0.00000  Uiso   1.00
C108   C     0.61037   0.27282   0.88444   0.00000  Uiso   1.00
C109   C     0.63164   0.23489   0.92784   0.00000  Uiso   1.00
C110   C     0.45915   0.29935   0.82607   0.00000  Uiso   1.00
C111   C     0.42985   0.35658   0.82906   0.00000  Uiso   1.00
C112   C     0.36856   0.35695   0.84713   0.00000  Uiso   1.00
C113   C     0.52263   0.24225   0.75842   0.00000  Uiso   1.00
C114   C     0.54668   0.25149   0.70452   0.00000  Uiso   1.00
C115   C     0.53882   0.20379   0.66563   0.00000  Uiso   1.00
H116   H     0.44521   0.14438   0.84554   0.00000  Uiso   1.00
H117   H     0.52371   0.11846   0.92532   0.00000  Uiso   1.00
H118   H     0.34322   0.20220   0.86994   0.00000  Uiso   1.00
H119   H     0.46003   0.09713   0.74543   0.00000  Uiso   1.00
H120   H     0.62433   0.11396   0.00737   0.00000  Uiso   1.00
H121   H     0.24374   0.29053   0.89058   0.00000  Uiso   1.00
H122   H     0.49007   0.06895   0.62801   0.00000  Uiso   1.00
H123   H     0.54996   0.33100   0.79610   0.00000  Uiso   1.00
H124   H     0.63422   0.31533   0.87317   0.00000  Uiso   1.00
H125   H     0.45372   0.39907   0.81779   0.00000  Uiso   1.00
H126   H     0.57054   0.29399   0.69328   0.00000  Uiso   1.00
H127   H     0.71402   0.27375   0.96504   0.00000  Uiso   1.00
H128   H     0.33343   0.45032   0.84825   0.00000  Uiso   1.00
H129   H     0.57976   0.22874   0.58569   0.00000  Uiso   1.00
O130   O     0.72270   0.18018   0.03781   0.00000  Uiso   1.00
O131   O     0.22338   0.41184   0.88458   0.00000  Uiso   1.00
O132   O     0.54655   0.12113   0.54010   0.00000  Uiso   1.00
N133   N     0.63388   0.15371   0.98682   0.00000  Uiso   1.00
N134   N     0.27806   0.31880   0.87764   0.00000  Uiso   1.00
N135   N     0.50834   0.11165   0.63216   0.00000  Uiso   1.00
N136   N     0.68214   0.23969   0.96405   0.00000  Uiso   1.00
N137   N     0.32632   0.40477   0.85487   0.00000  Uiso   1.00
N138   N     0.55660   0.19762   0.60939   0.00000  Uiso   1.00
C139   C     0.53079   0.81287   0.83421   0.00000  Uiso   1.00
C140   C     0.47361   0.80107   0.87070   0.00000  Uiso   1.00
C141   C     0.45242   0.83904   0.91407   0.00000  Uiso   1.00
C142   C     0.39924   0.82013   0.94242   0.00000  Uiso   1.00
C143   C     0.31516   0.81015   0.00130   0.00000  Uiso   1.00
C144   C     0.57167   0.75557   0.84062   0.00000  Uiso   1.00
C145   C     0.63294   0.75529   0.85869   0.00000  Uiso   1.00
C146   C     0.66232   0.69807   0.86171   0.00000  Uiso   1.00
C147   C     0.73050   0.61746   0.87385   0.00000  Uiso   1.00
C148   C     0.50820   0.81267   0.77297   0.00000  Uiso   1.00
C149   C     0.51611   0.86038   0.73415   0.00000  Uiso   1.00
C150   C     0.49206   0.85123   0.68021   0.00000  Uiso   1.00
C151   C     0.46169   0.85926   0.58732   0.00000  Uiso   1.00
C152   C     0.47404   0.71176   0.80743   0.00000  Uiso   1.00
C153   C     0.44278   0.74615   0.85615   0.00000  Uiso   1.00
C154   C     0.38963   0.72718   0.88444   0.00000  Uiso   1.00
C155   C     0.36836   0.76511   0.92784   0.00000  Uiso   1.00
C156   C     0.54085   0.70065   0.82607   0.00000  Uiso   1.00
C157   C     0.57015   0.64342   0.82906   0.00000  Uiso   1.00
C158   C     0.63144   0.64305   0.84713   0.00000  Uiso   1.00
C159   C     0.47737   0.75775   0.75842   0.00000  Uiso   1.00
C160   C     0.45332   0.74851   0.70452   0.00000  Uiso   1.00
C161   C     0.46118   0.79621   0.66563   0.00000  Uiso   1.00
H162   H     0.55479   0.85562   0.84554   0.00000  Uiso   1.00
H163   H     0.47629   0.88154   0.92532   0.00000  Uiso   1.00
H164   H     0.65678   0.79780   0.86994   0.00000  Uiso   1.00
H165   H     0.53997   0.90287   0.74543   0.00000  Uiso   1.00
H166   H     0.37567   0.88604   0.00737   0.00000  Uiso   1.00
H167   H     0.75626   0.70947   0.89058   0.00000  Uiso   1.00
H168   H     0.50993   0.93105   0.62801   0.00000  Uiso   1.00
H169   H     0.45004   0.66900   0.79610   0.00000  Uiso   1.00
H170   H     0.36578   0.68467   0.87317   0.00000  Uiso   1.00
H171   H     0.54628   0.60093   0.81779   0.00000  Uiso   1.00
H172   H     0.42946   0.70601   0.69328   0.00000  Uiso   1.00
H173   H     0.28598   0.72625   0.96504   0.00000  Uiso   1.00
H174   H     0.66657   0.54968   0.84825   0.00000  Uiso   1.00
H175   H     0.42024   0.77126   0.58569   0.00000  Uiso   1.00
O176   O     0.27730   0.81982   0.03781   0.00000  Uiso   1.00
O177   O     0.77662   0.58816   0.88458   0.00000  Uiso   1.00
O178   O     0.45345   0.87887   0.54010   0.00000  Uiso   1.00
N179   N     0.36612   0.84629   0.98682   0.00000  Uiso   1.00
N180   N     0.72194   0.68120   0.87764   0.00000  Uiso   1.00
N181   N     0.49166   0.88835   0.63216   0.00000  Uiso   1.00
N182   N     0.31786   0.76031   0.96405   0.00000  Uiso   1.00
N183   N     0.67368   0.59523   0.85487   0.00000  Uiso   1.00
N184   N     0.44340   0.80238   0.60939   0.00000  Uiso   1.00
C185   C     0.81287   0.53079   0.66579   0.00000  Uiso   1.00
C186   C     0.80107   0.47361   0.62930   0.00000  Uiso   1.00
C187   C     0.83904   0.45242   0.58593   0.00000  Uiso   1.00
C188   C     0.82013   0.39924   0.55758   0.00000  Uiso   1.00
C189   C     0.81015   0.31516   0.49870   0.00000  Uiso   1.00
C190   C     0.75557   0.57167   0.65938   0.00000  Uiso   1.00
C191   C     0.75529   0.63294   0.64131   0.00000  Uiso   1.00
C192   C     0.69807   0.66232   0.63829   0.00000  Uiso   1.00
C193   C     0.61746   0.73050   0.62615   0.00000  Uiso   1.00
C194   C     0.81267   0.50820   0.72703   0.00000  Uiso   1.00
C195   C     0.86038   0.51611   0.76585   0.00000  Uiso   1.00
C196   C     0.85123   0.49206   0.81979   0.00000  Uiso   1.00
C197   C     0.85926   0.46169   0.91268   0.00000  Uiso   1.00
C198   C     0.71176   0.47404   0.69257   0.00000  Uiso   1.00
C199   C     0.74615   0.44278   0.64385   0.00000  Uiso   1.00
C200   C     0.72718   0.38963   0.61556   0.00000  Uiso   1.00
C201   C     0.76511   0.36836   0.57216   0.00000  Uiso   1.00
C202   C     0.70065   0.54085   0.67393   0.00000  Uiso   1.00
C203   C     0.64342   0.57015   0.67094   0.00000  Uiso   1.00
C204   C     0.64305   0.63144   0.65287   0.00000  Uiso   1.00
C205   C     0.75775   0.47737   0.74158   0.00000  Uiso   1.00
C206   C     0.74851   0.45332   0.79548   0.00000  Uiso   1.00
C207   C     0.79621   0.46118   0.83437   0.00000  Uiso   1.00
H208   H     0.85562   0.55479   0.65446   0.00000  Uiso   1.00
H209   H     0.88154   0.47629   0.57468   0.00000  Uiso   1.00
H210   H     0.79780   0.65678   0.63006   0.00000  Uiso   1.00
H211   H     0.90287   0.53997   0.75457   0.00000  Uiso   1.00
H212   H     0.88604   0.37567   0.49263   0.00000  Uiso   1.00
H213   H     0.70947   0.75626   0.60942   0.00000  Uiso   1.00
H214   H     0.93105   0.50993   0.87199   0.00000  Uiso   1.00
H215   H     0.66900   0.45004   0.70390   0.00000  Uiso   1.00
H216   H     0.68467   0.36578   0.62683   0.00000  Uiso   1.00
H217   H     0.60093   0.54628   0.68221   0.00000  Uiso   1.00
H218   H     0.70601   0.42946   0.80672   0.00000  Uiso   1.00
H219   H     0.72625   0.28598   0.53496   0.00000  Uiso   1.00
H220   H     0.54968   0.66657   0.65175   0.00000  Uiso   1.00
H221   H     0.77126   0.42024   0.91431   0.00000  Uiso   1.00
O222   O     0.81982   0.27730   0.46219   0.00000  Uiso   1.00
O223   O     0.58816   0.77662   0.61542   0.00000  Uiso   1.00
O224   O     0.87887   0.45345   0.95990   0.00000  Uiso   1.00
N225   N     0.84629   0.36612   0.51318   0.00000  Uiso   1.00
N226   N     0.68120   0.72194   0.62236   0.00000  Uiso   1.00
N227   N     0.88835   0.49166   0.86784   0.00000  Uiso   1.00
N228   N     0.76031   0.31786   0.53595   0.00000  Uiso   1.00
N229   N     0.59523   0.67368   0.64513   0.00000  Uiso   1.00
N230   N     0.80238   0.44340   0.89061   0.00000  Uiso   1.00
C231   C     0.18713   0.46921   0.66579   0.00000  Uiso   1.00
C232   C     0.19893   0.52639   0.62930   0.00000  Uiso   1.00
C233   C     0.16096   0.54758   0.58593   0.00000  Uiso   1.00
C234   C     0.17987   0.60076   0.55758   0.00000  Uiso   1.00
C235   C     0.18985   0.68484   0.49870   0.00000  Uiso   1.00
C236   C     0.24443   0.42833   0.65938   0.00000  Uiso   1.00
C237   C     0.24471   0.36706   0.64131   0.00000  Uiso   1.00
C238   C     0.30193   0.33768   0.63829   0.00000  Uiso   1.00
C239   C     0.38254   0.26950   0.62615   0.00000  Uiso   1.00
C240   C     0.18733   0.49180   0.72703   0.00000  Uiso   1.00
C241   C     0.13962   0.48389   0.76585   0.00000  Uiso   1.00
C242   C     0.14877   0.50794   0.81979   0.00000  Uiso   1.00
C243   C     0.14074   0.53831   0.91268   0.00000  Uiso   1.00
C244   C     0.28824   0.52596   0.69257   0.00000  Uiso   1.00
C245   C     0.25385   0.55722   0.64385   0.00000  Uiso   1.00
C246   C     0.27282   0.61037   0.61556   0.00000  Uiso   1.00
C247   C     0.23489   0.63164   0.57216   0.00000  Uiso   1.00
C248   C     0.29935   0.45915   0.67393   0.00000  Uiso   1.00
C249   C     0.35658   0.42985   0.67094   0.00000  Uiso   1.00
C250   C     0.35695   0.36856   0.65287   0.00000  Uiso   1.00
C251   C     0.24225   0.52263   0.74158   0.00000  Uiso   1.00
C252   C     0.25149   0.54668   0.79548   0.00000  Uiso   1.00
C253   C     0.20379   0.53882   0.83437   0.00000  Uiso   1.00
H254   H     0.14438   0.44521   0.65446   0.00000  Uiso   1.00
H255   H     0.11846   0.52371   0.57468   0.00000  Uiso   1.00
H256   H     0.20220   0.34322   0.63006   0.00000  Uiso   1.00
H257   H     0.09713   0.46003   0.75457   0.00000  Uiso   1.00
H258   H     0.11396   0.62433   0.49263   0.00000  Uiso   1.00
H259   H     0.29053   0.24374   0.60942   0.00000  Uiso   1.00
H260   H     0.06895   0.49007   0.87199   0.00000  Uiso   1.00
H261   H     0.33100   0.54996   0.70390   0.00000  Uiso   1.00
H262   H     0.31533   0.63422   0.62683   0.00000  Uiso   1.00
H263   H     0.39907   0.45372   0.68221   0.00000  Uiso   1.00
H264   H     0.29399   0.57054   0.80672   0.00000  Uiso   1.00
H265   H     0.27375   0.71402   0.53496   0.00000  Uiso   1.00
H266   H     0.45032   0.33343   0.65175   0.00000  Uiso   1.00
H267   H     0.22874   0.57976   0.91431   0.00000  Uiso   1.00
O268   O     0.18018   0.72270   0.46219   0.00000  Uiso   1.00
O269   O     0.41184   0.22338   0.61542   0.00000  Uiso   1.00
O270   O     0.12113   0.54655   0.95990   0.00000  Uiso   1.00
N271   N     0.15371   0.63388   0.51318   0.00000  Uiso   1.00
N272   N     0.31880   0.27806   0.62236   0.00000  Uiso   1.00
N273   N     0.11165   0.50834   0.86784   0.00000  Uiso   1.00
N274   N     0.23969   0.68214   0.53595   0.00000  Uiso   1.00
N275   N     0.40477   0.32632   0.64513   0.00000  Uiso   1.00
N276   N     0.19762   0.55660   0.89061   0.00000  Uiso   1.00
C277   C     0.03079   0.68713   0.66579   0.00000  Uiso   1.00
C278   C     0.97361   0.69893   0.62930   0.00000  Uiso   1.00
C279   C     0.95242   0.66096   0.58593   0.00000  Uiso   1.00
C280   C     0.89924   0.67987   0.55758   0.00000  Uiso   1.00
C281   C     0.81516   0.68985   0.49870   0.00000  Uiso   1.00
C282   C     0.07167   0.74443   0.65938   0.00000  Uiso   1.00
C283   C     0.13294   0.74471   0.64131   0.00000  Uiso   1.00
C284   C     0.16232   0.80193   0.63829   0.00000  Uiso   1.00
C285   C     0.23050   0.88254   0.62615   0.00000  Uiso   1.00
C286   C     0.00820   0.68733   0.72703   0.00000  Uiso   1.00
C287   C     0.01611   0.63962   0.76585   0.00000  Uiso   1.00
C288   C     0.99206   0.64877   0.81979   0.00000  Uiso   1.00
C289   C     0.96169   0.64074   0.91268   0.00000  Uiso   1.00
C290   C     0.97404   0.78824   0.69257   0.00000  Uiso   1.00
C291   C     0.94278   0.75385   0.64385   0.00000  Uiso   1.00
C292   C     0.88963   0.77282   0.61556   0.00000  Uiso   1.00
C293   C     0.86836   0.73489   0.57216   0.00000  Uiso   1.00
C294   C     0.04085   0.79935   0.67393   0.00000  Uiso   1.00
C295   C     0.07015   0.85658   0.67094   0.00000  Uiso   1.00
C296   C     0.13144   0.85695   0.65287   0.00000  Uiso   1.00
C297   C     0.97737   0.74225   0.74158   0.00000  Uiso   1.00
C298   C     0.95332   0.75149   0.79548   0.00000  Uiso   1.00
C299   C     0.96118   0.70379   0.83437   0.00000  Uiso   1.00
H300   H     0.05479   0.64438   0.65446   0.00000  Uiso   1.00
H301   H     0.97629   0.61846   0.57468   0.00000  Uiso   1.00
H302   H     0.15678   0.70220   0.63006   0.00000  Uiso   1.00
H303   H     0.03997   0.59713   0.75457   0.00000  Uiso   1.00
H304   H     0.87567   0.61396   0.49263   0.00000  Uiso   1.00
H305   H     0.25626   0.79053   0.60942   0.00000  Uiso   1.00
H306   H     0.00993   0.56895   0.87199   0.00000  Uiso   1.00
H307   H     0.95004   0.83100   0.70390   0.00000  Uiso   1.00
H308   H     0.86578   0.81533   0.62683   0.00000  Uiso   1.00
H309   H     0.04628   0.89907   0.68221   0.00000  Uiso   1.00
H310   H     0.92946   0.79399   0.80672   0.00000  Uiso   1.00
H311   H     0.78598   0.77375   0.53496   0.00000  Uiso   1.00
H312   H     0.16657   0.95032   0.65175   0.00000  Uiso   1.00
H313   H     0.92024   0.72874   0.91431   0.00000  Uiso   1.00
O314   O     0.77730   0.68018   0.46219   0.00000  Uiso   1.00
O315   O     0.27662   0.91184   0.61542   0.00000  Uiso   1.00
O316   O     0.95345   0.62113   0.95990   0.00000  Uiso   1.00
N317   N     0.86612   0.65371   0.51318   0.00000  Uiso   1.00
N318   N     0.22194   0.81880   0.62236   0.00000  Uiso   1.00
N319   N     0.99166   0.61165   0.86784   0.00000  Uiso   1.00
N320   N     0.81786   0.73969   0.53595   0.00000  Uiso   1.00
N321   N     0.17368   0.90477   0.64513   0.00000  Uiso   1.00
N322   N     0.94340   0.69762   0.89061   0.00000  Uiso   1.00
C323   C     0.96921   0.31287   0.66579   0.00000  Uiso   1.00
C324   C     0.02639   0.30107   0.62930   0.00000  Uiso   1.00
C325   C     0.04758   0.33904   0.58593   0.00000  Uiso   1.00
C326   C     0.10076   0.32013   0.55758   0.00000  Uiso   1.00
C327   C     0.18484   0.31015   0.49870   0.00000  Uiso   1.00
C328   C     0.92833   0.25557   0.65938   0.00000  Uiso   1.00
C329   C     0.86706   0.25529   0.64131   0.00000  Uiso   1.00
C330   C     0.83768   0.19807   0.63829   0.00000  Uiso   1.00
C331   C     0.76950   0.11746   0.62615   0.00000  Uiso   1.00
C332   C     0.99180   0.31267   0.72703   0.00000  Uiso   1.00
C333   C     0.98389   0.36038   0.76585   0.00000  Uiso   1.00
C334   C     0.00794   0.35123   0.81979   0.00000  Uiso   1.00
C335   C     0.03831   0.35926   0.91268   0.00000  Uiso   1.00
C336   C     0.02596   0.21176   0.69257   0.00000  Uiso   1.00
C337   C     0.05722   0.24615   0.64385   0.00000  Uiso   1.00
C338   C     0.11037   0.22718   0.61556   0.00000  Uiso   1.00
C339   C     0.13164   0.26511   0.57216   0.00000  Uiso   1.00
C340   C     0.95915   0.20065   0.67393   0.00000  Uiso   1.00
C341   C     0.92985   0.14342   0.67094   0.00000  Uiso   1.00
C342   C     0.86856   0.14305   0.65287   0.00000  Uiso   1.00
C343   C     0.02263   0.25775   0.74158   0.00000  Uiso   1.00
C344   C     0.04668   0.24851   0.79548   0.00000  Uiso   1.00
C345   C     0.03882   0.29621   0.83437   0.00000  Uiso   1.00
H346   H     0.94521   0.35562   0.65446   0.00000  Uiso   1.00
H347   H     0.02371   0.38154   0.57468   0.00000  Uiso   1.00
H348   H     0.84322   0.29780   0.63006   0.00000  Uiso   1.00
H349   H     0.96003   0.40287   0.75457   0.00000  Uiso   1.00
H350   H     0.12433   0.38604   0.49263   0.00000  Uiso   1.00
H351   H     0.74374   0.20947   0.60942   0.00000  Uiso   1.00
H352   H     0.99007   0.43105   0.87199   0.00000  Uiso   1.00
H353   H     0.04996   0.16900   0.70390   0.00000  Uiso   1.00
H354   H     0.13422   0.18467   0.62683   0.00000  Uiso   1.00
H355   H     0.95372   0.10093   0.68221   0.00000  Uiso   1.00
H356   H     0.07054   0.20601   0.80672   0.00000  Uiso   1.00
H357   H     0.21402   0.22625   0.53496   0.00000  Uiso   1.00
H358   H     0.83343   0.04968   0.65175   0.00000  Uiso   1.00
H359   H     0.07976   0.27126   0.91431   0.00000  Uiso   1.00
O360   O     0.22270   0.31982   0.46219   0.00000  Uiso   1.00
O361   O     0.72338   0.08816   0.61542   0.00000  Uiso   1.00
O362   O     0.04655   0.37887   0.95990   0.00000  Uiso   1.00
N363   N     0.13388   0.34629   0.51318   0.00000  Uiso   1.00
N364   N     0.77806   0.18120   0.62236   0.00000  Uiso   1.00
N365   N     0.00834   0.38835   0.86784   0.00000  Uiso   1.00
N366   N     0.18214   0.26031   0.53595   0.00000  Uiso   1.00
N367   N     0.82632   0.09523   0.64513   0.00000  Uiso   1.00
N368   N     0.05660   0.30238   0.89061   0.00000  Uiso   1.00
C369   C     0.81287   0.46921   0.16579   0.00000  Uiso   1.00
C370   C     0.80107   0.52639   0.12930   0.00000  Uiso   1.00
C371   C     0.83904   0.54758   0.08593   0.00000  Uiso   1.00
C372   C     0.82013   0.60076   0.05758   0.00000  Uiso   1.00
C373   C     0.81015   0.68484   0.99870   0.00000  Uiso   1.00
C374   C     0.75557   0.42833   0.15938   0.00000  Uiso   1.00
C375   C     0.75529   0.36706   0.14131   0.00000  Uiso   1.00
C376   C     0.69807   0.33768   0.13829   0.00000  Uiso   1.00
C377   C     0.61746   0.26950   0.12615   0.00000  Uiso   1.00
C378   C     0.81267   0.49180   0.22703   0.00000  Uiso   1.00
C379   C     0.86038   0.48389   0.26585   0.00000  Uiso   1.00
C380   C     0.85123   0.50794   0.31979   0.00000  Uiso   1.00
C381   C     0.85926   0.53831   0.41268   0.00000  Uiso   1.00
C382   C     0.71176   0.52596   0.19257   0.00000  Uiso   1.00
C383   C     0.74615   0.55722   0.14385   0.00000  Uiso   1.00
C384   C     0.72718   0.61037   0.11556   0.00000  Uiso   1.00
C385   C     0.76511   0.63164   0.07216   0.00000  Uiso   1.00
C386   C     0.70065   0.45915   0.17393   0.00000  Uiso   1.00
C387   C     0.64342   0.42985   0.17094   0.00000  Uiso   1.00
C388   C     0.64305   0.36856   0.15287   0.00000  Uiso   1.00
C389   C     0.75775   0.52263   0.24158   0.00000  Uiso   1.00
C390   C     0.74851   0.54668   0.29548   0.00000  Uiso   1.00
C391   C     0.79621   0.53882   0.33437   0.00000  Uiso   1.00
H392   H     0.85562   0.44521   0.15446   0.00000  Uiso   1.00
H393   H     0.88154   0.52371   0.07468   0.00000  Uiso   1.00
H394   H     0.79780   0.34322   0.13006   0.00000  Uiso   1.00
H395   H     0.90287   0.46003   0.25457   0.00000  Uiso   1.00
H396   H     0.88604   0.62433   0.99263   0.00000  Uiso   1.00
H397   H     0.70947   0.24374   0.10942   0.00000  Uiso   1.00
H398   H     0.93105   0.49007   0.37199   0.00000  Uiso   1.00
H399   H     0.66900   0.54996   0.20390   0.00000  Uiso   1.00
H400   H     0.68467   0.63422   0.12683   0.00000  Uiso   1.00
H401   H     0.60093   0.45372   0.18221   0.00000  Uiso   1.00
H402   H     0.70601   0.57054   0.30672   0.00000  Uiso   1.00
H403   H     0.72625   0.71402   0.03496   0.00000  Uiso   1.00
H404   H     0.54968   0.33343   0.15175   0.00000  Uiso   1.00
H405   H     0.77126   0.57976   0.41431   0.00000  Uiso   1.00
O406   O     0.81982   0.72270   0.96219   0.00000  Uiso   1.00
O407   O     0.58816   0.22338   0.11542   0.00000  Uiso   1.00
O408   O     0.87887   0.54655   0.45990   0.00000  Uiso   1.00
N409   N     0.84629   0.63388   0.01318   0.00000  Uiso   1.00
N410   N     0.68120   0.27806   0.12236   0.00000  Uiso   1.00
N411   N     0.88835   0.50834   0.36784   0.00000  Uiso   1.00
N412   N     0.76031   0.68214   0.03595   0.00000  Uiso   1.00
N413   N     0.59523   0.32632   0.14513   0.00000  Uiso   1.00
N414   N     0.80238   0.55660   0.39061   0.00000  Uiso   1.00
C415   C     0.18713   0.53079   0.16579   0.00000  Uiso   1.00
C416   C     0.19893   0.47361   0.12930   0.00000  Uiso   1.00
C417   C     0.16096   0.45242   0.08593   0.00000  Uiso   1.00
C418   C     0.17987   0.39924   0.05758   0.00000  Uiso   1.00
C419   C     0.18985   0.31516   0.99870   0.00000  Uiso   1.00
C420   C     0.24443   0.57167   0.15938   0.00000  Uiso   1.00
C421   C     0.24471   0.63294   0.14131   0.00000  Uiso   1.00
C422   C     0.30193   0.66232   0.13829   0.00000  Uiso   1.00
C423   C     0.38254   0.73050   0.12615   0.00000  Uiso   1.00
C424   C     0.18733   0.50820   0.22703   0.00000  Uiso   1.00
C425   C     0.13962   0.51611   0.26585   0.00000  Uiso   1.00
C426   C     0.14877   0.49206   0.31979   0.00000  Uiso   1.00
C427   C     0.14074   0.46169   0.41268   0.00000  Uiso   1.00
C428   C     0.28824   0.47404   0.19257   0.00000  Uiso   1.00
C429   C     0.25385   0.44278   0.14385   0.00000  Uiso   1.00
C430   C     0.27282   0.38963   0.11556   0.00000  Uiso   1.00
C431   C     0.23489   0.36836   0.07216   0.00000  Uiso   1.00
C432   C     0.29935   0.54085   0.17393   0.00000  Uiso   1.00
C433   C     0.35658   0.57015   0.17094   0.00000  Uiso   1.00
C434   C     0.35695   0.63144   0.15287   0.00000  Uiso   1.00
C435   C     0.24225   0.47737   0.24158   0.00000  Uiso   1.00
C436   C     0.25149   0.45332   0.29548   0.00000  Uiso   1.00
C437   C     0.20379   0.46118   0.33437   0.00000  Uiso   1.00
H438   H     0.14438   0.55479   0.15446   0.00000  Uiso   1.00
H439   H     0.11846   0.47629   0.07468   0.00000  Uiso   1.00
H440   H     0.20220   0.65678   0.13006   0.00000  Uiso   1.00
H441   H     0.09713   0.53997   0.25457   0.00000  Uiso   1.00
H442   H     0.11396   0.37567   0.99263   0.00000  Uiso   1.00
H443   H     0.29053   0.75626   0.10942   0.00000  Uiso   1.00
H444   H     0.06895   0.50993   0.37199   0.00000  Uiso   1.00
H445   H     0.33100   0.45004   0.20390   0.00000  Uiso   1.00
H446   H     0.31533   0.36578   0.12683   0.00000  Uiso   1.00
H447   H     0.39907   0.54628   0.18221   0.00000  Uiso   1.00
H448   H     0.29399   0.42946   0.30672   0.00000  Uiso   1.00
H449   H     0.27375   0.28598   0.03496   0.00000  Uiso   1.00
H450   H     0.45032   0.66657   0.15175   0.00000  Uiso   1.00
H451   H     0.22874   0.42024   0.41431   0.00000  Uiso   1.00
O452   O     0.18018   0.27730   0.96219   0.00000  Uiso   1.00
O453   O     0.41184   0.77662   0.11542   0.00000  Uiso   1.00
O454   O     0.12113   0.45345   0.45990   0.00000  Uiso   1.00
N455   N     0.15371   0.36612   0.01318   0.00000  Uiso   1.00
N456   N     0.31880   0.72194   0.12236   0.00000  Uiso   1.00
N457   N     0.11165   0.49166   0.36784   0.00000  Uiso   1.00
N458   N     0.23969   0.31786   0.03595   0.00000  Uiso   1.00
N459   N     0.40477   0.67368   0.14513   0.00000  Uiso   1.00
N460   N     0.19762   0.44340   0.39061   0.00000  Uiso   1.00
C461   C     0.03079   0.31287   0.16579   0.00000  Uiso   1.00
C462   C     0.97361   0.30107   0.12930   0.00000  Uiso   1.00
C463   C     0.95242   0.33904   0.08593   0.00000  Uiso   1.00
C464   C     0.89924   0.32013   0.05758   0.00000  Uiso   1.00
C465   C     0.81516   0.31015   0.99870   0.00000  Uiso   1.00
C466   C     0.07167   0.25557   0.15938   0.00000  Uiso   1.00
C467   C     0.13294   0.25529   0.14131   0.00000  Uiso   1.00
C468   C     0.16232   0.19807   0.13829   0.00000  Uiso   1.00
C469   C     0.23050   0.11746   0.12615   0.00000  Uiso   1.00
C470   C     0.00820   0.31267   0.22703   0.00000  Uiso   1.00
C471   C     0.01611   0.36038   0.26585   0.00000  Uiso   1.00
C472   C     0.99206   0.35123   0.31979   0.00000  Uiso   1.00
C473   C     0.96169   0.35926   0.41268   0.00000  Uiso   1.00
C474   C     0.97404   0.21176   0.19257   0.00000  Uiso   1.00
C475   C     0.94278   0.24615   0.14385   0.00000  Uiso   1.00
C476   C     0.88963   0.22718   0.11556   0.00000  Uiso   1.00
C477   C     0.86836   0.26511   0.07216   0.00000  Uiso   1.00
C478   C     0.04085   0.20065   0.17393   0.00000  Uiso   1.00
C479   C     0.07015   0.14342   0.17094   0.00000  Uiso   1.00
C480   C     0.13144   0.14305   0.15287   0.00000  Uiso   1.00
C481   C     0.97737   0.25775   0.24158   0.00000  Uiso   1.00
C482   C     0.95332   0.24851   0.29548   0.00000  Uiso   1.00
C483   C     0.96118   0.29621   0.33437   0.00000  Uiso   1.00
H484   H     0.05479   0.35562   0.15446   0.00000  Uiso   1.00
H485   H     0.97629   0.38154   0.07468   0.00000  Uiso   1.00
H486   H     0.15678   0.29780   0.13006   0.00000  Uiso   1.00
H487   H     0.03997   0.40287   0.25457   0.00000  Uiso   1.00
H488   H     0.87567   0.38604   0.99263   0.00000  Uiso   1.00
H489   H     0.25626   0.20947   0.10942   0.00000  Uiso   1.00
H490   H     0.00993   0.43105   0.37199   0.00000  Uiso   1.00
H491   H     0.95004   0.16900   0.20390   0.00000  Uiso   1.00
H492   H     0.86578   0.18467   0.12683   0.00000  Uiso   1.00
H493   H     0.04628   0.10093   0.18221   0.00000  Uiso   1.00
H494   H     0.92946   0.20601   0.30672   0.00000  Uiso   1.00
H495   H     0.78598   0.22625   0.03496   0.00000  Uiso   1.00
H496   H     0.16657   0.04968   0.15175   0.00000  Uiso   1.00
H497   H     0.92024   0.27126   0.41431   0.00000  Uiso   1.00
O498   O     0.77730   0.31982   0.96219   0.00000  Uiso   1.00
O499   O     0.27662   0.08816   0.11542   0.00000  Uiso   1.00
O500   O     0.95345   0.37887   0.45990   0.00000  Uiso   1.00
N501   N     0.86612   0.34629   0.01318   0.00000  Uiso   1.00
N502   N     0.22194   0.18120   0.12236   0.00000  Uiso   1.00
N503   N     0.99166   0.38835   0.36784   0.00000  Uiso   1.00
N504   N     0.81786   0.26031   0.03595   0.00000  Uiso   1.00
N505   N     0.17368   0.09523   0.14513   0.00000  Uiso   1.00
N506   N     0.94340   0.30238   0.39061   0.00000  Uiso   1.00
C507   C     0.96921   0.68713   0.16579   0.00000  Uiso   1.00
C508   C     0.02639   0.69893   0.12930   0.00000  Uiso   1.00
C509   C     0.04758   0.66096   0.08593   0.00000  Uiso   1.00
C510   C     0.10076   0.67987   0.05758   0.00000  Uiso   1.00
C511   C     0.18484   0.68985   0.99870   0.00000  Uiso   1.00
C512   C     0.92833   0.74443   0.15938   0.00000  Uiso   1.00
C513   C     0.86706   0.74471   0.14131   0.00000  Uiso   1.00
C514   C     0.83768   0.80193   0.13829   0.00000  Uiso   1.00
C515   C     0.76950   0.88254   0.12615   0.00000  Uiso   1.00
C516   C     0.99180   0.68733   0.22703   0.00000  Uiso   1.00
C517   C     0.98389   0.63962   0.26585   0.00000  Uiso   1.00
C518   C     0.00794   0.64877   0.31979   0.00000  Uiso   1.00
C519   C     0.03831   0.64074   0.41268   0.00000  Uiso   1.00
C520   C     0.02596   0.78824   0.19257   0.00000  Uiso   1.00
C521   C     0.05722   0.75385   0.14385   0.00000  Uiso   1.00
C522   C     0.11037   0.77282   0.11556   0.00000  Uiso   1.00
C523   C     0.13164   0.73489   0.07216   0.00000  Uiso   1.00
C524   C     0.95915   0.79935   0.17393   0.00000  Uiso   1.00
C525   C     0.92985   0.85658   0.17094   0.00000  Uiso   1.00
C526   C     0.86856   0.85695   0.15287   0.00000  Uiso   1.00
C527   C     0.02263   0.74225   0.24158   0.00000  Uiso   1.00
C528   C     0.04668   0.75149   0.29548   0.00000  Uiso   1.00
C529   C     0.03882   0.70379   0.33437   0.00000  Uiso   1.00
H530   H     0.94521   0.64438   0.15446   0.00000  Uiso   1.00
H531   H     0.02371   0.61846   0.07468   0.00000  Uiso   1.00
H532   H     0.84322   0.70220   0.13006   0.00000  Uiso   1.00
H533   H     0.96003   0.59713   0.25457   0.00000  Uiso   1.00
H534   H     0.12433   0.61396   0.99263   0.00000  Uiso   1.00
H535   H     0.74374   0.79053   0.10942   0.00000  Uiso   1.00
H536   H     0.99007   0.56895   0.37199   0.00000  Uiso   1.00
H537   H     0.04996   0.83100   0.20390   0.00000  Uiso   1.00
H538   H     0.13422   0.81533   0.12683   0.00000  Uiso   1.00
H539   H     0.95372   0.89907   0.18221   0.00000  Uiso   1.00
H540   H     0.07054   0.79399   0.30672   0.00000  Uiso   1.00
H541   H     0.21402   0.77375   0.03496   0.00000  Uiso   1.00
H542   H     0.83343   0.95032   0.15175   0.00000  Uiso   1.00
H543   H     0.07976   0.72874   0.41431   0.00000  Uiso   1.00
O544   O     0.22270   0.68018   0.96219   0.00000  Uiso   1.00
O545   O     0.72338   0.91184   0.11542   0.00000  Uiso   1.00
O546   O     0.04655   0.62113   0.45990   0.00000  Uiso   1.00
N547   N     0.13388   0.65371   0.01318   0.00000  Uiso   1.00
N548   N     0.77806   0.81880   0.12236   0.00000  Uiso   1.00
N549   N     0.00834   0.61165   0.36784   0.00000  Uiso   1.00
N550   N     0.18214   0.73969   0.03595   0.00000  Uiso   1.00
N551   N     0.82632   0.90477   0.14513   0.00000  Uiso   1.00
N552   N     0.05660   0.69762   0.39061   0.00000  Uiso   1.00
C553   C     0.68713   0.96921   0.33421   0.00000  Uiso   1.00
C554   C     0.69893   0.02639   0.37070   0.00000  Uiso   1.00
C555   C     0.66096   0.04758   0.41407   0.00000  Uiso   1.00
C556   C     0.67987   0.10076   0.44242   0.00000  Uiso   1.00
C557   C     0.68985   0.18484   0.50130   0.00000  Uiso   1.00
C558   C     0.74443   0.92833   0.34062   0.00000  Uiso   1.00
C559   C     0.74471   0.86706   0.35869   0.00000  Uiso   1.00
C560   C     0.80193   0.83768   0.36171   0.00000  Uiso   1.00
C561   C     0.88254   0.76950   0.37385   0.00000  Uiso   1.00
C562   C     0.68733   0.99180   0.27297   0.00000  Uiso   1.00
C563   C     0.63962   0.98389   0.23415   0.00000  Uiso   1.00
C564   C     0.64877   0.00794   0.18021   0.00000  Uiso   1.00
C565   C     0.64074   0.03831   0.08732   0.00000  Uiso   1.00
C566   C     0.78824   0.02596   0.30743   0.00000  Uiso   1.00
C567   C     0.75385   0.05722   0.35615   0.00000  Uiso   1.00
C568   C     0.77282   0.11037   0.38444   0.00000  Uiso   1.00
C569   C     0.73489   0.13164   0.42784   0.00000  Uiso   1.00
C570   C     0.79935   0.95915   0.32607   0.00000  Uiso   1.00
C571   C     0.85658   0.92985   0.32906   0.00000  Uiso   1.00
C572   C     0.85695   0.86856   0.34713   0.00000  Uiso   1.00
C573   C     0.74225   0.02263   0.25842   0.00000  Uiso   1.00
C574   C     0.75149   0.04668   0.20452   0.00000  Uiso   1.00
C575   C     0.70379   0.03882   0.16563   0.00000  Uiso   1.00
H576   H     0.64438   0.94521   0.34554   0.00000  Uiso   1.00
H577   H     0.61846   0.02371   0.42532   0.00000  Uiso   1.00
H578   H     0.70220   0.84322   0.36994   0.00000  Uiso   1.00
H579   H     0.59713   0.96003   0.24543   0.00000  Uiso   1.00
H580   H     0.61396   0.12433   0.50737   0.00000  Uiso   1.00
H581   H     0.79053   0.74374   0.39058   0.00000  Uiso   1.00
H582   H     0.56895   0.99007   0.12801   0.00000  Uiso   1.00
H583   H     0.83100   0.04996   0.29610   0.00000  Uiso   1.00
H584   H     0.81533   0.13422   0.37317   0.00000  Uiso   1.00
H585   H     0.89907   0.95372   0.31779   0.00000  Uiso   1.00
H586   H     0.79399   0.07054   0.19328   0.00000  Uiso   1.00
H587   H     0.77375   0.21402   0.46504   0.00000  Uiso   1.00
H588   H     0.95032   0.83343   0.34825   0.00000  Uiso   1.00
H589   H     0.72874   0.07976   0.08569   0.00000  Uiso   1.00
O590   O     0.68018   0.22270   0.53781   0.00000  Uiso   1.00
O591   O     0.91184   0.72338   0.38458   0.00000  Uiso   1.00
O592   O     0.62113   0.04655   0.04010   0.00000  Uiso   1.00
N593   N     0.65371   0.13388   0.48682   0.00000  Uiso   1.00
N594   N     0.81880   0.77806   0.37764   0.00000  Uiso   1.00
N595   N     0.61165   0.00834   0.13216   0.00000  Uiso   1.00
N596   N     0.73969   0.18214   0.46405   0.00000  Uiso   1.00
N597   N     0.90477   0.82632   0.35487   0.00000  Uiso   1.00
N598   N     0.69762   0.05660   0.10939   0.00000  Uiso   1.00
C599   C     0.31287   0.03079   0.33421   0.00000  Uiso   1.00
C600   C     0.30107   0.97361   0.37070   0.00000  Uiso   1.00
C601   C     0.33904   0.95242   0.41407   0.00000  Uiso   1.00
C602   C     0.32013   0.89924   0.44242   0.00000  Uiso   1.00
C603   C     0.31015   0.81516   0.50130   0.00000  Uiso   1.00
C604   C     0.25557   0.07167   0.34062   0.00000  Uiso   1.00
C605   C     0.25529   0.13294   0.35869   0.00000  Uiso   1.00
C606   C     0.19807   0.16232   0.36171   0.00000  Uiso   1.00
C607   C     0.11746   0.23050   0.37385   0.00000  Uiso   1.00
C608   C     0.31267   0.00820   0.27297   0.00000  Uiso   1.00
C609   C     0.36038   0.01611   0.23415   0.00000  Uiso   1.00
C610   C     0.35123   0.99206   0.18021   0.00000  Uiso   1.00
C611   C     0.35926   0.96169   0.08732   0.00000  Uiso   1.00
C612   C     0.21176   0.97404   0.30743   0.00000  Uiso   1.00
C613   C     0.24615   0.94278   0.35615   0.00000  Uiso   1.00
C614   C     0.22718   0.88963   0.38444   0.00000  Uiso   1.00
C615   C     0.26511   0.86836   0.42784   0.00000  Uiso   1.00
C616   C     0.20065   0.04085   0.32607   0.00000  Uiso   1.00
C617   C     0.14342   0.07015   0.32906   0.00000  Uiso   1.00
C618   C     0.14305   0.13144   0.34713   0.00000  Uiso   1.00
C619   C     0.25775   0.97737   0.25842   0.00000  Uiso   1.00
C620   C     0.24851   0.95332   0.20452   0.00000  Uiso   1.00
C621   C     0.29621   0.96118   0.16563   0.00000  Uiso   1.00
H622   H     0.35562   0.05479   0.34554   0.00000  Uiso   1.00
H623   H     0.38154   0.97629   0.42532   0.00000  Uiso   1.00
H624   H     0.29780   0.15678   0.36994   0.00000  Uiso   1.00
H625   H     0.40287   0.03997   0.24543   0.00000  Uiso   1.00
H626   H     0.38604   0.87567   0.50737   0.00000  Uiso   1.00
H627   H     0.20947   0.25626   0.39058   0.00000  Uiso   1.00
H628   H     0.43105   0.00993   0.12801   0.00000  Uiso   1.00
H629   H     0.16900   0.95004   0.29610   0.00000  Uiso   1.00
H630   H     0.18467   0.86578   0.37317   0.00000  Uiso   1.00
H631   H     0.10093   0.04628   0.31779   0.00000  Uiso   1.00
H632   H     0.20601   0.92946   0.19328   0.00000  Uiso   1.00
H633   H     0.22625   0.78598   0.46504   0.00000  Uiso   1.00
H634   H     0.04968   0.16657   0.34825   0.00000  Uiso   1.00
H635   H     0.27126   0.92024   0.08569   0.00000  Uiso   1.00
O636   O     0.31982   0.77730   0.53781   0.00000  Uiso   1.00
O637   O     0.08816   0.27662   0.38458   0.00000  Uiso   1.00
O638   O     0.37887   0.95345   0.04010   0.00000  Uiso   1.00
N639   N     0.34629   0.86612   0.48682   0.00000  Uiso   1.00
N640   N     0.18120   0.22194   0.37764   0.00000  Uiso   1.00
N641   N     0.38835   0.99166   0.13216   0.00000  Uiso   1.00
N642   N     0.26031   0.81786   0.46405   0.00000  Uiso   1.00
N643   N     0.09523   0.17368   0.35487   0.00000  Uiso   1.00
N644   N     0.30238   0.94340   0.10939   0.00000  Uiso   1.00
C645   C     0.46921   0.81287   0.33421   0.00000  Uiso   1.00
C646   C     0.52639   0.80107   0.37070   0.00000  Uiso   1.00
C647   C     0.54758   0.83904   0.41407   0.00000  Uiso   1.00
C648   C     0.60076   0.82013   0.44242   0.00000  Uiso   1.00
C649   C     0.68484   0.81015   0.50130   0.00000  Uiso   1.00
C650   C     0.42833   0.75557   0.34062   0.00000  Uiso   1.00
C651   C     0.36706   0.75529   0.35869   0.00000  Uiso   1.00
C652   C     0.33768   0.69807   0.36171   0.00000  Uiso   1.00
C653   C     0.26950   0.61746   0.37385   0.00000  Uiso   1.00
C654   C     0.49180   0.81267   0.27297   0.00000  Uiso   1.00
C655   C     0.48389   0.86038   0.23415   0.00000  Uiso   1.00
C656   C     0.50794   0.85123   0.18021   0.00000  Uiso   1.00
C657   C     0.53831   0.85926   0.08732   0.00000  Uiso   1.00
C658   C     0.52596   0.71176   0.30743   0.00000  Uiso   1.00
C659   C     0.55722   0.74615   0.35615   0.00000  Uiso   1.00
C660   C     0.61037   0.72718   0.38444   0.00000  Uiso   1.00
C661   C     0.63164   0.76511   0.42784   0.00000  Uiso   1.00
C662   C     0.45915   0.70065   0.32607   0.00000  Uiso   1.00
C663   C     0.42985   0.64342   0.32906   0.00000  Uiso   1.00
C664   C     0.36856   0.64305   0.34713   0.00000  Uiso   1.00
C665   C     0.52263   0.75775   0.25842   0.00000  Uiso   1.00
C666   C     0.54668   0.74851   0.20452   0.00000  Uiso   1.00
C667   C     0.53882   0.79621   0.16563   0.00000  Uiso   1.00
H668   H     0.44521   0.85562   0.34554   0.00000  Uiso   1.00
H669   H     0.52371   0.88154   0.42532   0.00000  Uiso   1.00
H670   H     0.34322   0.79780   0.36994   0.00000  Uiso   1.00
H671   H     0.46003   0.90287   0.24543   0.00000  Uiso   1.00
H672   H     0.62433   0.88604   0.50737   0.00000  Uiso   1.00
H673   H     0.24374   0.70947   0.39058   0.00000  Uiso   1.00
H674   H     0.49007   0.93105   0.12801   0.00000  Uiso   1.00
H675   H     0.54996   0.66900   0.29610   0.00000  Uiso   1.00
H676   H     0.63422   0.68467   0.37317   0.00000  Uiso   1.00
H677   H     0.45372   0.60093   0.31779   0.00000  Uiso   1.00
H678   H     0.57054   0.70601   0.19328   0.00000  Uiso   1.00
H679   H     0.71402   0.72625   0.46504   0.00000  Uiso   1.00
H680   H     0.33343   0.54968   0.34825   0.00000  Uiso   1.00
H681   H     0.57976   0.77126   0.08569   0.00000  Uiso   1.00
O682   O     0.72270   0.81982   0.53781   0.00000  Uiso   1.00
O683   O     0.22338   0.58816   0.38458   0.00000  Uiso   1.00
O684   O     0.54655   0.87887   0.04010   0.00000  Uiso   1.00
N685   N     0.63388   0.84629   0.48682   0.00000  Uiso   1.00
N686   N     0.27806   0.68120   0.37764   0.00000  Uiso   1.00
N687   N     0.50834   0.88835   0.13216   0.00000  Uiso   1.00
N688   N     0.68214   0.76031   0.46405   0.00000  Uiso   1.00
N689   N     0.32632   0.59523   0.35487   0.00000  Uiso   1.00
N690   N     0.55660   0.80238   0.10939   0.00000  Uiso   1.00
C691   C     0.53079   0.18713   0.33421   0.00000  Uiso   1.00
C692   C     0.47361   0.19893   0.37070   0.00000  Uiso   1.00
C693   C     0.45242   0.16096   0.41407   0.00000  Uiso   1.00
C694   C     0.39924   0.17987   0.44242   0.00000  Uiso   1.00
C695   C     0.31516   0.18985   0.50130   0.00000  Uiso   1.00
C696   C     0.57167   0.24443   0.34062   0.00000  Uiso   1.00
C697   C     0.63294   0.24471   0.35869   0.00000  Uiso   1.00
C698   C     0.66232   0.30193   0.36171   0.00000  Uiso   1.00
C699   C     0.73050   0.38254   0.37385   0.00000  Uiso   1.00
C700   C     0.50820   0.18733   0.27297   0.00000  Uiso   1.00
C701   C     0.51611   0.13962   0.23415   0.00000  Uiso   1.00
C702   C     0.49206   0.14877   0.18021   0.00000  Uiso   1.00
C703   C     0.46169   0.14074   0.08732   0.00000  Uiso   1.00
C704   C     0.47404   0.28824   0.30743   0.00000  Uiso   1.00
C705   C     0.44278   0.25385   0.35615   0.00000  Uiso   1.00
C706   C     0.38963   0.27282   0.38444   0.00000  Uiso   1.00
C707   C     0.36836   0.23489   0.42784   0.00000  Uiso   1.00
C708   C     0.54085   0.29935   0.32607   0.00000  Uiso   1.00
C709   C     0.57015   0.35658   0.32906   0.00000  Uiso   1.00
C710   C     0.63144   0.35695   0.34713   0.00000  Uiso   1.00
C711   C     0.47737   0.24225   0.25842   0.00000  Uiso   1.00
C712   C     0.45332   0.25149   0.20452   0.00000  Uiso   1.00
C713   C     0.46118   0.20379   0.16563   0.00000  Uiso   1.00
H714   H     0.55479   0.14438   0.34554   0.00000  Uiso   1.00
H715   H     0.47629   0.11846   0.42532   0.00000  Uiso   1.00
H716   H     0.65678   0.20220   0.36994   0.00000  Uiso   1.00
H717   H     0.53997   0.09713   0.24543   0.00000  Uiso   1.00
H718   H     0.37567   0.11396   0.50737   0.00000  Uiso   1.00
H719   H     0.75626   0.29053   0.39058   0.00000  Uiso   1.00
H720   H     0.50993   0.06895   0.12801   0.00000  Uiso   1.00
H721   H     0.45004   0.33100   0.29610   0.00000  Uiso   1.00
H722   H     0.36578   0.31533   0.37317   0.00000  Uiso   1.00
H723   H     0.54628   0.39907   0.31779   0.00000  Uiso   1.00
H724   H     0.42946   0.29399   0.19328   0.00000  Uiso   1.00
H725   H     0.28598   0.27375   0.46504   0.00000  Uiso   1.00
H726   H     0.66657   0.45032   0.34825   0.00000  Uiso   1.00
H727   H     0.42024   0.22874   0.08569   0.00000  Uiso   1.00
O728   O     0.27730   0.18018   0.53781   0.00000  Uiso   1.00
O729   O     0.77662   0.41184   0.38458   0.00000  Uiso   1.00
O730   O     0.45345   0.12113   0.04010   0.00000  Uiso   1.00
N731   N     0.36612   0.15371   0.48682   0.00000  Uiso   1.00
N732   N     0.72194   0.31880   0.37764   0.00000  Uiso   1.00
N733   N     0.49166   0.11165   0.13216   0.00000  Uiso   1.00
N734   N     0.31786   0.23969   0.46405   0.00000  Uiso   1.00
N735   N     0.67368   0.40477   0.35487   0.00000  Uiso   1.00
N736   N     0.44340   0.19762   0.10939   0.00000  Uiso   1.00
