data_job_00216
_audit_creation_date              2018-12-19
_audit_creation_method            'Materials Studio'
_symmetry_space_group_name_H-M    'P1'
_symmetry_Int_Tables_number       1
_symmetry_cell_setting            triclinic
loop_
_symmetry_equiv_pos_as_xyz
  x,y,z
_cell_length_a                    27.7558
_cell_length_b                    27.7558
_cell_length_c                    11.8434
_cell_angle_alpha                 90.0000
_cell_angle_beta                  90.0000
_cell_angle_gamma                 90.0000
loop_
_atom_site_label
_atom_site_type_symbol
_atom_site_fract_x
_atom_site_fract_y
_atom_site_fract_z
_atom_site_U_iso_or_equiv
_atom_site_adp_type
_atom_site_occupancy
C1     C     0.17628   0.14904   0.38542   0.00000  Uiso   1.00
C2     C     0.18976   0.10991   0.30074   0.00000  Uiso   1.00
C3     C     0.23401   0.08681   0.29403   0.00000  Uiso   1.00
C4     C     0.23919   0.05204   0.21063   0.00000  Uiso   1.00
C5     C     0.26588   0.99300   0.09036   0.00000  Uiso   1.00
C6     C     0.15997   0.19223   0.31562   0.00000  Uiso   1.00
C7     C     0.17916   0.23834   0.32144   0.00000  Uiso   1.00
C8     C     0.15926   0.27287   0.25058   0.00000  Uiso   1.00
C9     C     0.13967   0.34164   0.15347   0.00000  Uiso   1.00
C10    C     0.13149   0.13083   0.44658   0.00000  Uiso   1.00
C11    C     0.12674   0.12531   0.56251   0.00000  Uiso   1.00
C12    C     0.08286   0.10815   0.60191   0.00000  Uiso   1.00
C13    C     0.01906   0.08159   0.70814   0.00000  Uiso   1.00
C14    C     0.10680   0.12838   0.24925   0.00000  Uiso   1.00
C15    C     0.15203   0.09870   0.22678   0.00000  Uiso   1.00
C16    C     0.15715   0.06395   0.14337   0.00000  Uiso   1.00
C17    C     0.20139   0.04079   0.13654   0.00000  Uiso   1.00
C18    C     0.12223   0.18101   0.24166   0.00000  Uiso   1.00
C19    C     0.10230   0.21548   0.17078   0.00000  Uiso   1.00
C20    C     0.12146   0.26163   0.17648   0.00000  Uiso   1.00
C21    C     0.09376   0.11960   0.37262   0.00000  Uiso   1.00
C22    C     0.04988   0.10245   0.41185   0.00000  Uiso   1.00
C23    C     0.04506   0.09691   0.52782   0.00000  Uiso   1.00
H24    H     0.20565   0.15778   0.44300   0.00000  Uiso   1.00
H25    H     0.26320   0.09550   0.35128   0.00000  Uiso   1.00
H26    H     0.20836   0.24701   0.37869   0.00000  Uiso   1.00
H27    H     0.15595   0.13400   0.61972   0.00000  Uiso   1.00
H28    H     0.31037   0.02152   0.21694   0.00000  Uiso   1.00
H29    H     0.19472   0.34099   0.27476   0.00000  Uiso   1.00
H30    H     0.08420   0.10268   0.78303   0.00000  Uiso   1.00
H31    H     0.07743   0.11965   0.19167   0.00000  Uiso   1.00
H32    H     0.12794   0.05527   0.08615   0.00000  Uiso   1.00
H33    H     0.07310   0.20678   0.11356   0.00000  Uiso   1.00
H34    H     0.02069   0.09377   0.35460   0.00000  Uiso   1.00
H35    H     0.20059   0.98887   0.00175   0.00000  Uiso   1.00
H36    H     0.08493   0.30834   0.05958   0.00000  Uiso   1.00
H37    H     0.97442   0.07003   0.56785   0.00000  Uiso   1.00
O38    O     0.29103   0.96355   0.04444   0.00000  Uiso   1.00
O39    O     0.13929   0.38268   0.12033   0.00000  Uiso   1.00
O40    O     0.99430   0.07003   0.78716   0.00000  Uiso   1.00
N41    N     0.27760   0.02266   0.18079   0.00000  Uiso   1.00
N42    N     0.16947   0.32135   0.23484   0.00000  Uiso   1.00
N43    N     0.06615   0.09856   0.71003   0.00000  Uiso   1.00
N44    N     0.21852   0.00509   0.06500   0.00000  Uiso   1.00
N45    N     0.11040   0.30378   0.11905   0.00000  Uiso   1.00
N46    N     0.00707   0.08099   0.59424   0.00000  Uiso   1.00
C47    C     0.67628   0.64904   0.88542   0.00000  Uiso   1.00
C48    C     0.68976   0.60991   0.80074   0.00000  Uiso   1.00
C49    C     0.73401   0.58681   0.79403   0.00000  Uiso   1.00
C50    C     0.73919   0.55204   0.71063   0.00000  Uiso   1.00
C51    C     0.76588   0.49300   0.59036   0.00000  Uiso   1.00
C52    C     0.65997   0.69223   0.81562   0.00000  Uiso   1.00
C53    C     0.67916   0.73834   0.82144   0.00000  Uiso   1.00
C54    C     0.65926   0.77287   0.75058   0.00000  Uiso   1.00
C55    C     0.63967   0.84164   0.65347   0.00000  Uiso   1.00
C56    C     0.63149   0.63083   0.94658   0.00000  Uiso   1.00
C57    C     0.62674   0.62531   0.06251   0.00000  Uiso   1.00
C58    C     0.58286   0.60815   0.10191   0.00000  Uiso   1.00
C59    C     0.51906   0.58159   0.20814   0.00000  Uiso   1.00
C60    C     0.60680   0.62838   0.74925   0.00000  Uiso   1.00
C61    C     0.65203   0.59870   0.72678   0.00000  Uiso   1.00
C62    C     0.65715   0.56395   0.64337   0.00000  Uiso   1.00
C63    C     0.70139   0.54079   0.63654   0.00000  Uiso   1.00
C64    C     0.62223   0.68101   0.74166   0.00000  Uiso   1.00
C65    C     0.60230   0.71548   0.67078   0.00000  Uiso   1.00
C66    C     0.62146   0.76163   0.67648   0.00000  Uiso   1.00
C67    C     0.59376   0.61960   0.87262   0.00000  Uiso   1.00
C68    C     0.54988   0.60245   0.91185   0.00000  Uiso   1.00
C69    C     0.54506   0.59691   0.02782   0.00000  Uiso   1.00
H70    H     0.70565   0.65778   0.94300   0.00000  Uiso   1.00
H71    H     0.76320   0.59550   0.85128   0.00000  Uiso   1.00
H72    H     0.70836   0.74701   0.87869   0.00000  Uiso   1.00
H73    H     0.65595   0.63400   0.11972   0.00000  Uiso   1.00
H74    H     0.81037   0.52152   0.71694   0.00000  Uiso   1.00
H75    H     0.69472   0.84099   0.77476   0.00000  Uiso   1.00
H76    H     0.58420   0.60268   0.28303   0.00000  Uiso   1.00
H77    H     0.57743   0.61965   0.69167   0.00000  Uiso   1.00
H78    H     0.62794   0.55527   0.58615   0.00000  Uiso   1.00
H79    H     0.57310   0.70678   0.61356   0.00000  Uiso   1.00
H80    H     0.52069   0.59377   0.85460   0.00000  Uiso   1.00
H81    H     0.70059   0.48887   0.50175   0.00000  Uiso   1.00
H82    H     0.58493   0.80834   0.55958   0.00000  Uiso   1.00
H83    H     0.47442   0.57003   0.06785   0.00000  Uiso   1.00
O84    O     0.79103   0.46355   0.54444   0.00000  Uiso   1.00
O85    O     0.63929   0.88268   0.62033   0.00000  Uiso   1.00
O86    O     0.49430   0.57003   0.28716   0.00000  Uiso   1.00
N87    N     0.77760   0.52266   0.68079   0.00000  Uiso   1.00
N88    N     0.66947   0.82135   0.73484   0.00000  Uiso   1.00
N89    N     0.56615   0.59856   0.21003   0.00000  Uiso   1.00
N90    N     0.71852   0.50509   0.56500   0.00000  Uiso   1.00
N91    N     0.61040   0.80378   0.61905   0.00000  Uiso   1.00
N92    N     0.50707   0.58099   0.09424   0.00000  Uiso   1.00
C93    C     0.32372   0.35096   0.88542   0.00000  Uiso   1.00
C94    C     0.31024   0.39009   0.80074   0.00000  Uiso   1.00
C95    C     0.26599   0.41319   0.79403   0.00000  Uiso   1.00
C96    C     0.26081   0.44796   0.71063   0.00000  Uiso   1.00
C97    C     0.23412   0.50700   0.59036   0.00000  Uiso   1.00
C98    C     0.34003   0.30777   0.81562   0.00000  Uiso   1.00
C99    C     0.32084   0.26166   0.82144   0.00000  Uiso   1.00
C100   C     0.34074   0.22713   0.75058   0.00000  Uiso   1.00
C101   C     0.36033   0.15836   0.65347   0.00000  Uiso   1.00
C102   C     0.36851   0.36917   0.94658   0.00000  Uiso   1.00
C103   C     0.37326   0.37469   0.06251   0.00000  Uiso   1.00
C104   C     0.41714   0.39185   0.10191   0.00000  Uiso   1.00
C105   C     0.48094   0.41841   0.20814   0.00000  Uiso   1.00
C106   C     0.39320   0.37162   0.74925   0.00000  Uiso   1.00
C107   C     0.34797   0.40130   0.72678   0.00000  Uiso   1.00
C108   C     0.34285   0.43605   0.64337   0.00000  Uiso   1.00
C109   C     0.29861   0.45921   0.63654   0.00000  Uiso   1.00
C110   C     0.37777   0.31899   0.74166   0.00000  Uiso   1.00
C111   C     0.39770   0.28452   0.67078   0.00000  Uiso   1.00
C112   C     0.37854   0.23837   0.67648   0.00000  Uiso   1.00
C113   C     0.40624   0.38040   0.87262   0.00000  Uiso   1.00
C114   C     0.45012   0.39755   0.91185   0.00000  Uiso   1.00
C115   C     0.45494   0.40309   0.02782   0.00000  Uiso   1.00
H116   H     0.29435   0.34222   0.94300   0.00000  Uiso   1.00
H117   H     0.23680   0.40450   0.85128   0.00000  Uiso   1.00
H118   H     0.29164   0.25299   0.87869   0.00000  Uiso   1.00
H119   H     0.34405   0.36600   0.11972   0.00000  Uiso   1.00
H120   H     0.18963   0.47848   0.71694   0.00000  Uiso   1.00
H121   H     0.30528   0.15901   0.77476   0.00000  Uiso   1.00
H122   H     0.41580   0.39732   0.28303   0.00000  Uiso   1.00
H123   H     0.42257   0.38035   0.69167   0.00000  Uiso   1.00
H124   H     0.37206   0.44473   0.58615   0.00000  Uiso   1.00
H125   H     0.42690   0.29322   0.61356   0.00000  Uiso   1.00
H126   H     0.47931   0.40623   0.85460   0.00000  Uiso   1.00
H127   H     0.29941   0.51113   0.50175   0.00000  Uiso   1.00
H128   H     0.41507   0.19166   0.55958   0.00000  Uiso   1.00
H129   H     0.52558   0.42997   0.06785   0.00000  Uiso   1.00
O130   O     0.20897   0.53645   0.54444   0.00000  Uiso   1.00
O131   O     0.36071   0.11732   0.62033   0.00000  Uiso   1.00
O132   O     0.50570   0.42997   0.28716   0.00000  Uiso   1.00
N133   N     0.22240   0.47734   0.68079   0.00000  Uiso   1.00
N134   N     0.33053   0.17865   0.73484   0.00000  Uiso   1.00
N135   N     0.43385   0.40144   0.21003   0.00000  Uiso   1.00
N136   N     0.28148   0.49491   0.56500   0.00000  Uiso   1.00
N137   N     0.38960   0.19622   0.61905   0.00000  Uiso   1.00
N138   N     0.49293   0.41901   0.09424   0.00000  Uiso   1.00
C139   C     0.82372   0.85096   0.38542   0.00000  Uiso   1.00
C140   C     0.81024   0.89009   0.30074   0.00000  Uiso   1.00
C141   C     0.76599   0.91319   0.29403   0.00000  Uiso   1.00
C142   C     0.76081   0.94796   0.21063   0.00000  Uiso   1.00
C143   C     0.73412   0.00700   0.09036   0.00000  Uiso   1.00
C144   C     0.84003   0.80777   0.31562   0.00000  Uiso   1.00
C145   C     0.82084   0.76166   0.32144   0.00000  Uiso   1.00
C146   C     0.84074   0.72713   0.25058   0.00000  Uiso   1.00
C147   C     0.86033   0.65836   0.15347   0.00000  Uiso   1.00
C148   C     0.86851   0.86917   0.44658   0.00000  Uiso   1.00
C149   C     0.87326   0.87469   0.56251   0.00000  Uiso   1.00
C150   C     0.91714   0.89185   0.60191   0.00000  Uiso   1.00
C151   C     0.98094   0.91841   0.70814   0.00000  Uiso   1.00
C152   C     0.89320   0.87162   0.24925   0.00000  Uiso   1.00
C153   C     0.84797   0.90130   0.22678   0.00000  Uiso   1.00
C154   C     0.84285   0.93605   0.14337   0.00000  Uiso   1.00
C155   C     0.79861   0.95921   0.13654   0.00000  Uiso   1.00
C156   C     0.87777   0.81899   0.24166   0.00000  Uiso   1.00
C157   C     0.89770   0.78452   0.17078   0.00000  Uiso   1.00
C158   C     0.87854   0.73837   0.17648   0.00000  Uiso   1.00
C159   C     0.90624   0.88040   0.37262   0.00000  Uiso   1.00
C160   C     0.95012   0.89755   0.41185   0.00000  Uiso   1.00
C161   C     0.95494   0.90309   0.52782   0.00000  Uiso   1.00
H162   H     0.79435   0.84222   0.44300   0.00000  Uiso   1.00
H163   H     0.73680   0.90450   0.35128   0.00000  Uiso   1.00
H164   H     0.79164   0.75299   0.37869   0.00000  Uiso   1.00
H165   H     0.84405   0.86600   0.61972   0.00000  Uiso   1.00
H166   H     0.68963   0.97848   0.21694   0.00000  Uiso   1.00
H167   H     0.80528   0.65901   0.27476   0.00000  Uiso   1.00
H168   H     0.91580   0.89732   0.78303   0.00000  Uiso   1.00
H169   H     0.92257   0.88035   0.19167   0.00000  Uiso   1.00
H170   H     0.87206   0.94473   0.08615   0.00000  Uiso   1.00
H171   H     0.92690   0.79322   0.11356   0.00000  Uiso   1.00
H172   H     0.97931   0.90623   0.35460   0.00000  Uiso   1.00
H173   H     0.79941   0.01113   0.00175   0.00000  Uiso   1.00
H174   H     0.91507   0.69166   0.05958   0.00000  Uiso   1.00
H175   H     0.02558   0.92997   0.56785   0.00000  Uiso   1.00
O176   O     0.70897   0.03645   0.04444   0.00000  Uiso   1.00
O177   O     0.86071   0.61732   0.12033   0.00000  Uiso   1.00
O178   O     0.00570   0.92997   0.78716   0.00000  Uiso   1.00
N179   N     0.72240   0.97734   0.18079   0.00000  Uiso   1.00
N180   N     0.83053   0.67865   0.23484   0.00000  Uiso   1.00
N181   N     0.93385   0.90144   0.71003   0.00000  Uiso   1.00
N182   N     0.78148   0.99491   0.06500   0.00000  Uiso   1.00
N183   N     0.88960   0.69622   0.11905   0.00000  Uiso   1.00
N184   N     0.99293   0.91901   0.59424   0.00000  Uiso   1.00
C185   C     0.85096   0.67628   0.63542   0.00000  Uiso   1.00
C186   C     0.89009   0.68976   0.55074   0.00000  Uiso   1.00
C187   C     0.91319   0.73401   0.54403   0.00000  Uiso   1.00
C188   C     0.94796   0.73919   0.46063   0.00000  Uiso   1.00
C189   C     0.00700   0.76588   0.34036   0.00000  Uiso   1.00
C190   C     0.80777   0.65997   0.56562   0.00000  Uiso   1.00
C191   C     0.76166   0.67916   0.57144   0.00000  Uiso   1.00
C192   C     0.72713   0.65926   0.50058   0.00000  Uiso   1.00
C193   C     0.65836   0.63967   0.40347   0.00000  Uiso   1.00
C194   C     0.86917   0.63149   0.69658   0.00000  Uiso   1.00
C195   C     0.87469   0.62674   0.81251   0.00000  Uiso   1.00
C196   C     0.89185   0.58286   0.85191   0.00000  Uiso   1.00
C197   C     0.91841   0.51906   0.95814   0.00000  Uiso   1.00
C198   C     0.87162   0.60680   0.49925   0.00000  Uiso   1.00
C199   C     0.90130   0.65203   0.47678   0.00000  Uiso   1.00
C200   C     0.93605   0.65715   0.39337   0.00000  Uiso   1.00
C201   C     0.95921   0.70139   0.38654   0.00000  Uiso   1.00
C202   C     0.81899   0.62223   0.49166   0.00000  Uiso   1.00
C203   C     0.78452   0.60230   0.42078   0.00000  Uiso   1.00
C204   C     0.73837   0.62146   0.42648   0.00000  Uiso   1.00
C205   C     0.88040   0.59376   0.62262   0.00000  Uiso   1.00
C206   C     0.89755   0.54988   0.66185   0.00000  Uiso   1.00
C207   C     0.90309   0.54506   0.77782   0.00000  Uiso   1.00
H208   H     0.84222   0.70565   0.69300   0.00000  Uiso   1.00
H209   H     0.90450   0.76320   0.60128   0.00000  Uiso   1.00
H210   H     0.75299   0.70836   0.62869   0.00000  Uiso   1.00
H211   H     0.86600   0.65595   0.86972   0.00000  Uiso   1.00
H212   H     0.97848   0.81037   0.46694   0.00000  Uiso   1.00
H213   H     0.65901   0.69472   0.52476   0.00000  Uiso   1.00
H214   H     0.89732   0.58420   0.03303   0.00000  Uiso   1.00
H215   H     0.88035   0.57743   0.44167   0.00000  Uiso   1.00
H216   H     0.94473   0.62794   0.33615   0.00000  Uiso   1.00
H217   H     0.79322   0.57310   0.36356   0.00000  Uiso   1.00
H218   H     0.90623   0.52069   0.60460   0.00000  Uiso   1.00
H219   H     0.01113   0.70059   0.25175   0.00000  Uiso   1.00
H220   H     0.69166   0.58493   0.30958   0.00000  Uiso   1.00
H221   H     0.92997   0.47442   0.81785   0.00000  Uiso   1.00
O222   O     0.03645   0.79103   0.29444   0.00000  Uiso   1.00
O223   O     0.61732   0.63929   0.37033   0.00000  Uiso   1.00
O224   O     0.92997   0.49430   0.03716   0.00000  Uiso   1.00
N225   N     0.97734   0.77760   0.43079   0.00000  Uiso   1.00
N226   N     0.67865   0.66947   0.48484   0.00000  Uiso   1.00
N227   N     0.90144   0.56615   0.96003   0.00000  Uiso   1.00
N228   N     0.99491   0.71852   0.31500   0.00000  Uiso   1.00
N229   N     0.69622   0.61040   0.36905   0.00000  Uiso   1.00
N230   N     0.91901   0.50707   0.84424   0.00000  Uiso   1.00
C231   C     0.35096   0.17628   0.13542   0.00000  Uiso   1.00
C232   C     0.39009   0.18976   0.05074   0.00000  Uiso   1.00
C233   C     0.41319   0.23401   0.04403   0.00000  Uiso   1.00
C234   C     0.44796   0.23919   0.96063   0.00000  Uiso   1.00
C235   C     0.50700   0.26588   0.84036   0.00000  Uiso   1.00
C236   C     0.30777   0.15997   0.06562   0.00000  Uiso   1.00
C237   C     0.26166   0.17916   0.07144   0.00000  Uiso   1.00
C238   C     0.22713   0.15926   0.00058   0.00000  Uiso   1.00
C239   C     0.15836   0.13967   0.90347   0.00000  Uiso   1.00
C240   C     0.36917   0.13149   0.19658   0.00000  Uiso   1.00
C241   C     0.37469   0.12674   0.31251   0.00000  Uiso   1.00
C242   C     0.39185   0.08286   0.35191   0.00000  Uiso   1.00
C243   C     0.41841   0.01906   0.45814   0.00000  Uiso   1.00
C244   C     0.37162   0.10680   0.99925   0.00000  Uiso   1.00
C245   C     0.40130   0.15203   0.97678   0.00000  Uiso   1.00
C246   C     0.43605   0.15715   0.89337   0.00000  Uiso   1.00
C247   C     0.45921   0.20139   0.88654   0.00000  Uiso   1.00
C248   C     0.31899   0.12223   0.99166   0.00000  Uiso   1.00
C249   C     0.28452   0.10230   0.92078   0.00000  Uiso   1.00
C250   C     0.23837   0.12146   0.92648   0.00000  Uiso   1.00
C251   C     0.38040   0.09376   0.12262   0.00000  Uiso   1.00
C252   C     0.39755   0.04988   0.16185   0.00000  Uiso   1.00
C253   C     0.40309   0.04506   0.27782   0.00000  Uiso   1.00
H254   H     0.34222   0.20565   0.19300   0.00000  Uiso   1.00
H255   H     0.40450   0.26320   0.10128   0.00000  Uiso   1.00
H256   H     0.25299   0.20836   0.12869   0.00000  Uiso   1.00
H257   H     0.36600   0.15595   0.36972   0.00000  Uiso   1.00
H258   H     0.47848   0.31037   0.96694   0.00000  Uiso   1.00
H259   H     0.15901   0.19472   0.02476   0.00000  Uiso   1.00
H260   H     0.39732   0.08420   0.53303   0.00000  Uiso   1.00
H261   H     0.38035   0.07743   0.94167   0.00000  Uiso   1.00
H262   H     0.44473   0.12794   0.83615   0.00000  Uiso   1.00
H263   H     0.29322   0.07310   0.86356   0.00000  Uiso   1.00
H264   H     0.40623   0.02069   0.10460   0.00000  Uiso   1.00
H265   H     0.51113   0.20059   0.75175   0.00000  Uiso   1.00
H266   H     0.19166   0.08493   0.80958   0.00000  Uiso   1.00
H267   H     0.42997   0.97442   0.31785   0.00000  Uiso   1.00
O268   O     0.53645   0.29103   0.79444   0.00000  Uiso   1.00
O269   O     0.11732   0.13929   0.87033   0.00000  Uiso   1.00
O270   O     0.42997   0.99430   0.53716   0.00000  Uiso   1.00
N271   N     0.47734   0.27760   0.93079   0.00000  Uiso   1.00
N272   N     0.17865   0.16947   0.98484   0.00000  Uiso   1.00
N273   N     0.40144   0.06615   0.46003   0.00000  Uiso   1.00
N274   N     0.49491   0.21852   0.81500   0.00000  Uiso   1.00
N275   N     0.19622   0.11040   0.86905   0.00000  Uiso   1.00
N276   N     0.41901   0.00707   0.34424   0.00000  Uiso   1.00
C277   C     0.64904   0.82372   0.13542   0.00000  Uiso   1.00
C278   C     0.60991   0.81024   0.05074   0.00000  Uiso   1.00
C279   C     0.58681   0.76599   0.04403   0.00000  Uiso   1.00
C280   C     0.55204   0.76081   0.96063   0.00000  Uiso   1.00
C281   C     0.49300   0.73412   0.84036   0.00000  Uiso   1.00
C282   C     0.69223   0.84003   0.06562   0.00000  Uiso   1.00
C283   C     0.73834   0.82084   0.07144   0.00000  Uiso   1.00
C284   C     0.77287   0.84074   0.00058   0.00000  Uiso   1.00
C285   C     0.84164   0.86033   0.90347   0.00000  Uiso   1.00
C286   C     0.63083   0.86851   0.19658   0.00000  Uiso   1.00
C287   C     0.62531   0.87326   0.31251   0.00000  Uiso   1.00
C288   C     0.60815   0.91714   0.35191   0.00000  Uiso   1.00
C289   C     0.58159   0.98094   0.45814   0.00000  Uiso   1.00
C290   C     0.62838   0.89320   0.99925   0.00000  Uiso   1.00
C291   C     0.59870   0.84797   0.97678   0.00000  Uiso   1.00
C292   C     0.56395   0.84285   0.89337   0.00000  Uiso   1.00
C293   C     0.54079   0.79861   0.88654   0.00000  Uiso   1.00
C294   C     0.68101   0.87777   0.99166   0.00000  Uiso   1.00
C295   C     0.71548   0.89770   0.92078   0.00000  Uiso   1.00
C296   C     0.76163   0.87854   0.92648   0.00000  Uiso   1.00
C297   C     0.61960   0.90624   0.12262   0.00000  Uiso   1.00
C298   C     0.60245   0.95012   0.16185   0.00000  Uiso   1.00
C299   C     0.59691   0.95494   0.27782   0.00000  Uiso   1.00
H300   H     0.65778   0.79435   0.19300   0.00000  Uiso   1.00
H301   H     0.59550   0.73680   0.10128   0.00000  Uiso   1.00
H302   H     0.74701   0.79164   0.12869   0.00000  Uiso   1.00
H303   H     0.63400   0.84405   0.36972   0.00000  Uiso   1.00
H304   H     0.52152   0.68963   0.96694   0.00000  Uiso   1.00
H305   H     0.84099   0.80528   0.02476   0.00000  Uiso   1.00
H306   H     0.60268   0.91580   0.53303   0.00000  Uiso   1.00
H307   H     0.61965   0.92257   0.94167   0.00000  Uiso   1.00
H308   H     0.55527   0.87206   0.83615   0.00000  Uiso   1.00
H309   H     0.70678   0.92690   0.86356   0.00000  Uiso   1.00
H310   H     0.59377   0.97931   0.10460   0.00000  Uiso   1.00
H311   H     0.48887   0.79941   0.75175   0.00000  Uiso   1.00
H312   H     0.80834   0.91507   0.80958   0.00000  Uiso   1.00
H313   H     0.57003   0.02558   0.31785   0.00000  Uiso   1.00
O314   O     0.46355   0.70897   0.79444   0.00000  Uiso   1.00
O315   O     0.88268   0.86071   0.87033   0.00000  Uiso   1.00
O316   O     0.57003   0.00570   0.53716   0.00000  Uiso   1.00
N317   N     0.52266   0.72240   0.93079   0.00000  Uiso   1.00
N318   N     0.82135   0.83053   0.98484   0.00000  Uiso   1.00
N319   N     0.59856   0.93385   0.46003   0.00000  Uiso   1.00
N320   N     0.50509   0.78148   0.81500   0.00000  Uiso   1.00
N321   N     0.80378   0.88960   0.86905   0.00000  Uiso   1.00
N322   N     0.58099   0.99293   0.34424   0.00000  Uiso   1.00
C323   C     0.14904   0.32372   0.63542   0.00000  Uiso   1.00
C324   C     0.10991   0.31024   0.55074   0.00000  Uiso   1.00
C325   C     0.08681   0.26599   0.54403   0.00000  Uiso   1.00
C326   C     0.05204   0.26081   0.46063   0.00000  Uiso   1.00
C327   C     0.99300   0.23412   0.34036   0.00000  Uiso   1.00
C328   C     0.19223   0.34003   0.56562   0.00000  Uiso   1.00
C329   C     0.23834   0.32084   0.57144   0.00000  Uiso   1.00
C330   C     0.27287   0.34074   0.50058   0.00000  Uiso   1.00
C331   C     0.34164   0.36033   0.40347   0.00000  Uiso   1.00
C332   C     0.13083   0.36851   0.69658   0.00000  Uiso   1.00
C333   C     0.12531   0.37326   0.81251   0.00000  Uiso   1.00
C334   C     0.10815   0.41714   0.85191   0.00000  Uiso   1.00
C335   C     0.08159   0.48094   0.95814   0.00000  Uiso   1.00
C336   C     0.12838   0.39320   0.49925   0.00000  Uiso   1.00
C337   C     0.09870   0.34797   0.47678   0.00000  Uiso   1.00
C338   C     0.06395   0.34285   0.39337   0.00000  Uiso   1.00
C339   C     0.04079   0.29861   0.38654   0.00000  Uiso   1.00
C340   C     0.18101   0.37777   0.49166   0.00000  Uiso   1.00
C341   C     0.21548   0.39770   0.42078   0.00000  Uiso   1.00
C342   C     0.26163   0.37854   0.42648   0.00000  Uiso   1.00
C343   C     0.11960   0.40624   0.62262   0.00000  Uiso   1.00
C344   C     0.10245   0.45012   0.66185   0.00000  Uiso   1.00
C345   C     0.09691   0.45494   0.77782   0.00000  Uiso   1.00
H346   H     0.15778   0.29435   0.69300   0.00000  Uiso   1.00
H347   H     0.09550   0.23680   0.60128   0.00000  Uiso   1.00
H348   H     0.24701   0.29164   0.62869   0.00000  Uiso   1.00
H349   H     0.13400   0.34405   0.86972   0.00000  Uiso   1.00
H350   H     0.02152   0.18963   0.46694   0.00000  Uiso   1.00
H351   H     0.34099   0.30528   0.52476   0.00000  Uiso   1.00
H352   H     0.10268   0.41580   0.03303   0.00000  Uiso   1.00
H353   H     0.11965   0.42257   0.44167   0.00000  Uiso   1.00
H354   H     0.05527   0.37206   0.33615   0.00000  Uiso   1.00
H355   H     0.20678   0.42690   0.36356   0.00000  Uiso   1.00
H356   H     0.09377   0.47931   0.60460   0.00000  Uiso   1.00
H357   H     0.98887   0.29941   0.25175   0.00000  Uiso   1.00
H358   H     0.30834   0.41507   0.30958   0.00000  Uiso   1.00
H359   H     0.07003   0.52558   0.81785   0.00000  Uiso   1.00
O360   O     0.96355   0.20897   0.29444   0.00000  Uiso   1.00
O361   O     0.38268   0.36071   0.37033   0.00000  Uiso   1.00
O362   O     0.07003   0.50570   0.03716   0.00000  Uiso   1.00
N363   N     0.02266   0.22240   0.43079   0.00000  Uiso   1.00
N364   N     0.32135   0.33053   0.48484   0.00000  Uiso   1.00
N365   N     0.09856   0.43385   0.96003   0.00000  Uiso   1.00
N366   N     0.00509   0.28148   0.31500   0.00000  Uiso   1.00
N367   N     0.30378   0.38960   0.36905   0.00000  Uiso   1.00
N368   N     0.08099   0.49293   0.84424   0.00000  Uiso   1.00
C369   C     0.82372   0.35096   0.86458   0.00000  Uiso   1.00
C370   C     0.81024   0.39009   0.94926   0.00000  Uiso   1.00
C371   C     0.76599   0.41319   0.95597   0.00000  Uiso   1.00
C372   C     0.76081   0.44796   0.03937   0.00000  Uiso   1.00
C373   C     0.73412   0.50700   0.15964   0.00000  Uiso   1.00
C374   C     0.84003   0.30777   0.93438   0.00000  Uiso   1.00
C375   C     0.82084   0.26166   0.92856   0.00000  Uiso   1.00
C376   C     0.84074   0.22713   0.99942   0.00000  Uiso   1.00
C377   C     0.86033   0.15836   0.09653   0.00000  Uiso   1.00
C378   C     0.86851   0.36917   0.80342   0.00000  Uiso   1.00
C379   C     0.87326   0.37469   0.68749   0.00000  Uiso   1.00
C380   C     0.91714   0.39185   0.64809   0.00000  Uiso   1.00
C381   C     0.98094   0.41841   0.54186   0.00000  Uiso   1.00
C382   C     0.89320   0.37162   0.00075   0.00000  Uiso   1.00
C383   C     0.84797   0.40130   0.02322   0.00000  Uiso   1.00
C384   C     0.84285   0.43605   0.10663   0.00000  Uiso   1.00
C385   C     0.79861   0.45921   0.11346   0.00000  Uiso   1.00
C386   C     0.87777   0.31899   0.00834   0.00000  Uiso   1.00
C387   C     0.89770   0.28452   0.07922   0.00000  Uiso   1.00
C388   C     0.87854   0.23837   0.07352   0.00000  Uiso   1.00
C389   C     0.90624   0.38040   0.87738   0.00000  Uiso   1.00
C390   C     0.95012   0.39755   0.83815   0.00000  Uiso   1.00
C391   C     0.95494   0.40309   0.72218   0.00000  Uiso   1.00
H392   H     0.79435   0.34222   0.80700   0.00000  Uiso   1.00
H393   H     0.73680   0.40450   0.89872   0.00000  Uiso   1.00
H394   H     0.79164   0.25299   0.87131   0.00000  Uiso   1.00
H395   H     0.84405   0.36600   0.63028   0.00000  Uiso   1.00
H396   H     0.68963   0.47848   0.03306   0.00000  Uiso   1.00
H397   H     0.80528   0.15901   0.97524   0.00000  Uiso   1.00
H398   H     0.91580   0.39732   0.46697   0.00000  Uiso   1.00
H399   H     0.92257   0.38035   0.05833   0.00000  Uiso   1.00
H400   H     0.87206   0.44473   0.16385   0.00000  Uiso   1.00
H401   H     0.92690   0.29322   0.13644   0.00000  Uiso   1.00
H402   H     0.97931   0.40623   0.89540   0.00000  Uiso   1.00
H403   H     0.79941   0.51113   0.24825   0.00000  Uiso   1.00
H404   H     0.91507   0.19166   0.19042   0.00000  Uiso   1.00
H405   H     0.02558   0.42997   0.68215   0.00000  Uiso   1.00
O406   O     0.70897   0.53645   0.20556   0.00000  Uiso   1.00
O407   O     0.86071   0.11732   0.12967   0.00000  Uiso   1.00
O408   O     0.00570   0.42997   0.46284   0.00000  Uiso   1.00
N409   N     0.72240   0.47734   0.06921   0.00000  Uiso   1.00
N410   N     0.83053   0.17865   0.01516   0.00000  Uiso   1.00
N411   N     0.93385   0.40144   0.53997   0.00000  Uiso   1.00
N412   N     0.78148   0.49491   0.18500   0.00000  Uiso   1.00
N413   N     0.88960   0.19622   0.13095   0.00000  Uiso   1.00
N414   N     0.99293   0.41901   0.65576   0.00000  Uiso   1.00
C415   C     0.32372   0.85096   0.36458   0.00000  Uiso   1.00
C416   C     0.31024   0.89009   0.44926   0.00000  Uiso   1.00
C417   C     0.26599   0.91319   0.45597   0.00000  Uiso   1.00
C418   C     0.26081   0.94796   0.53937   0.00000  Uiso   1.00
C419   C     0.23412   0.00700   0.65964   0.00000  Uiso   1.00
C420   C     0.34003   0.80777   0.43438   0.00000  Uiso   1.00
C421   C     0.32084   0.76166   0.42856   0.00000  Uiso   1.00
C422   C     0.34074   0.72713   0.49942   0.00000  Uiso   1.00
C423   C     0.36033   0.65836   0.59653   0.00000  Uiso   1.00
C424   C     0.36851   0.86917   0.30342   0.00000  Uiso   1.00
C425   C     0.37326   0.87469   0.18749   0.00000  Uiso   1.00
C426   C     0.41714   0.89185   0.14809   0.00000  Uiso   1.00
C427   C     0.48094   0.91841   0.04186   0.00000  Uiso   1.00
C428   C     0.39320   0.87162   0.50075   0.00000  Uiso   1.00
C429   C     0.34797   0.90130   0.52322   0.00000  Uiso   1.00
C430   C     0.34285   0.93605   0.60663   0.00000  Uiso   1.00
C431   C     0.29861   0.95921   0.61346   0.00000  Uiso   1.00
C432   C     0.37777   0.81899   0.50834   0.00000  Uiso   1.00
C433   C     0.39770   0.78452   0.57922   0.00000  Uiso   1.00
C434   C     0.37854   0.73837   0.57352   0.00000  Uiso   1.00
C435   C     0.40624   0.88040   0.37738   0.00000  Uiso   1.00
C436   C     0.45012   0.89755   0.33815   0.00000  Uiso   1.00
C437   C     0.45494   0.90309   0.22218   0.00000  Uiso   1.00
H438   H     0.29435   0.84222   0.30700   0.00000  Uiso   1.00
H439   H     0.23680   0.90450   0.39872   0.00000  Uiso   1.00
H440   H     0.29164   0.75299   0.37131   0.00000  Uiso   1.00
H441   H     0.34405   0.86600   0.13028   0.00000  Uiso   1.00
H442   H     0.18963   0.97848   0.53306   0.00000  Uiso   1.00
H443   H     0.30528   0.65901   0.47524   0.00000  Uiso   1.00
H444   H     0.41580   0.89732   0.96697   0.00000  Uiso   1.00
H445   H     0.42257   0.88035   0.55833   0.00000  Uiso   1.00
H446   H     0.37206   0.94473   0.66385   0.00000  Uiso   1.00
H447   H     0.42690   0.79322   0.63644   0.00000  Uiso   1.00
H448   H     0.47931   0.90623   0.39540   0.00000  Uiso   1.00
H449   H     0.29941   0.01113   0.74825   0.00000  Uiso   1.00
H450   H     0.41507   0.69166   0.69042   0.00000  Uiso   1.00
H451   H     0.52558   0.92997   0.18215   0.00000  Uiso   1.00
O452   O     0.20897   0.03645   0.70556   0.00000  Uiso   1.00
O453   O     0.36071   0.61732   0.62967   0.00000  Uiso   1.00
O454   O     0.50570   0.92997   0.96284   0.00000  Uiso   1.00
N455   N     0.22240   0.97734   0.56921   0.00000  Uiso   1.00
N456   N     0.33053   0.67865   0.51516   0.00000  Uiso   1.00
N457   N     0.43385   0.90144   0.03997   0.00000  Uiso   1.00
N458   N     0.28148   0.99491   0.68500   0.00000  Uiso   1.00
N459   N     0.38960   0.69622   0.63095   0.00000  Uiso   1.00
N460   N     0.49293   0.91901   0.15576   0.00000  Uiso   1.00
C461   C     0.67628   0.14904   0.36458   0.00000  Uiso   1.00
C462   C     0.68976   0.10991   0.44926   0.00000  Uiso   1.00
C463   C     0.73401   0.08681   0.45597   0.00000  Uiso   1.00
C464   C     0.73919   0.05204   0.53937   0.00000  Uiso   1.00
C465   C     0.76588   0.99300   0.65964   0.00000  Uiso   1.00
C466   C     0.65997   0.19223   0.43438   0.00000  Uiso   1.00
C467   C     0.67916   0.23834   0.42856   0.00000  Uiso   1.00
C468   C     0.65926   0.27287   0.49942   0.00000  Uiso   1.00
C469   C     0.63967   0.34164   0.59653   0.00000  Uiso   1.00
C470   C     0.63149   0.13083   0.30342   0.00000  Uiso   1.00
C471   C     0.62674   0.12531   0.18749   0.00000  Uiso   1.00
C472   C     0.58286   0.10815   0.14809   0.00000  Uiso   1.00
C473   C     0.51906   0.08159   0.04186   0.00000  Uiso   1.00
C474   C     0.60680   0.12838   0.50075   0.00000  Uiso   1.00
C475   C     0.65203   0.09870   0.52322   0.00000  Uiso   1.00
C476   C     0.65715   0.06395   0.60663   0.00000  Uiso   1.00
C477   C     0.70139   0.04079   0.61346   0.00000  Uiso   1.00
C478   C     0.62223   0.18101   0.50834   0.00000  Uiso   1.00
C479   C     0.60230   0.21548   0.57922   0.00000  Uiso   1.00
C480   C     0.62146   0.26163   0.57352   0.00000  Uiso   1.00
C481   C     0.59376   0.11960   0.37738   0.00000  Uiso   1.00
C482   C     0.54988   0.10245   0.33815   0.00000  Uiso   1.00
C483   C     0.54506   0.09691   0.22218   0.00000  Uiso   1.00
H484   H     0.70565   0.15778   0.30700   0.00000  Uiso   1.00
H485   H     0.76320   0.09550   0.39872   0.00000  Uiso   1.00
H486   H     0.70836   0.24701   0.37131   0.00000  Uiso   1.00
H487   H     0.65595   0.13400   0.13028   0.00000  Uiso   1.00
H488   H     0.81037   0.02152   0.53306   0.00000  Uiso   1.00
H489   H     0.69472   0.34099   0.47524   0.00000  Uiso   1.00
H490   H     0.58420   0.10268   0.96697   0.00000  Uiso   1.00
H491   H     0.57743   0.11965   0.55833   0.00000  Uiso   1.00
H492   H     0.62794   0.05527   0.66385   0.00000  Uiso   1.00
H493   H     0.57310   0.20678   0.63644   0.00000  Uiso   1.00
H494   H     0.52069   0.09377   0.39540   0.00000  Uiso   1.00
H495   H     0.70059   0.98887   0.74825   0.00000  Uiso   1.00
H496   H     0.58493   0.30834   0.69042   0.00000  Uiso   1.00
H497   H     0.47442   0.07003   0.18215   0.00000  Uiso   1.00
O498   O     0.79103   0.96355   0.70556   0.00000  Uiso   1.00
O499   O     0.63929   0.38268   0.62967   0.00000  Uiso   1.00
O500   O     0.49430   0.07003   0.96284   0.00000  Uiso   1.00
N501   N     0.77760   0.02266   0.56921   0.00000  Uiso   1.00
N502   N     0.66947   0.32135   0.51516   0.00000  Uiso   1.00
N503   N     0.56615   0.09856   0.03997   0.00000  Uiso   1.00
N504   N     0.71852   0.00509   0.68500   0.00000  Uiso   1.00
N505   N     0.61040   0.30378   0.63095   0.00000  Uiso   1.00
N506   N     0.50707   0.08099   0.15576   0.00000  Uiso   1.00
C507   C     0.17628   0.64904   0.86458   0.00000  Uiso   1.00
C508   C     0.18976   0.60991   0.94926   0.00000  Uiso   1.00
C509   C     0.23401   0.58681   0.95597   0.00000  Uiso   1.00
C510   C     0.23919   0.55204   0.03937   0.00000  Uiso   1.00
C511   C     0.26588   0.49300   0.15964   0.00000  Uiso   1.00
C512   C     0.15997   0.69223   0.93438   0.00000  Uiso   1.00
C513   C     0.17916   0.73834   0.92856   0.00000  Uiso   1.00
C514   C     0.15926   0.77287   0.99942   0.00000  Uiso   1.00
C515   C     0.13967   0.84164   0.09653   0.00000  Uiso   1.00
C516   C     0.13149   0.63083   0.80342   0.00000  Uiso   1.00
C517   C     0.12674   0.62531   0.68749   0.00000  Uiso   1.00
C518   C     0.08286   0.60815   0.64809   0.00000  Uiso   1.00
C519   C     0.01906   0.58159   0.54186   0.00000  Uiso   1.00
C520   C     0.10680   0.62838   0.00075   0.00000  Uiso   1.00
C521   C     0.15203   0.59870   0.02322   0.00000  Uiso   1.00
C522   C     0.15715   0.56395   0.10663   0.00000  Uiso   1.00
C523   C     0.20139   0.54079   0.11346   0.00000  Uiso   1.00
C524   C     0.12223   0.68101   0.00834   0.00000  Uiso   1.00
C525   C     0.10230   0.71548   0.07922   0.00000  Uiso   1.00
C526   C     0.12146   0.76163   0.07352   0.00000  Uiso   1.00
C527   C     0.09376   0.61960   0.87738   0.00000  Uiso   1.00
C528   C     0.04988   0.60245   0.83815   0.00000  Uiso   1.00
C529   C     0.04506   0.59691   0.72218   0.00000  Uiso   1.00
H530   H     0.20565   0.65778   0.80700   0.00000  Uiso   1.00
H531   H     0.26320   0.59550   0.89872   0.00000  Uiso   1.00
H532   H     0.20836   0.74701   0.87131   0.00000  Uiso   1.00
H533   H     0.15595   0.63400   0.63028   0.00000  Uiso   1.00
H534   H     0.31037   0.52152   0.03306   0.00000  Uiso   1.00
H535   H     0.19472   0.84099   0.97524   0.00000  Uiso   1.00
H536   H     0.08420   0.60268   0.46697   0.00000  Uiso   1.00
H537   H     0.07743   0.61965   0.05833   0.00000  Uiso   1.00
H538   H     0.12794   0.55527   0.16385   0.00000  Uiso   1.00
H539   H     0.07310   0.70678   0.13644   0.00000  Uiso   1.00
H540   H     0.02069   0.59377   0.89540   0.00000  Uiso   1.00
H541   H     0.20059   0.48887   0.24825   0.00000  Uiso   1.00
H542   H     0.08493   0.80834   0.19042   0.00000  Uiso   1.00
H543   H     0.97442   0.57003   0.68215   0.00000  Uiso   1.00
O544   O     0.29103   0.46355   0.20556   0.00000  Uiso   1.00
O545   O     0.13929   0.88268   0.12967   0.00000  Uiso   1.00
O546   O     0.99430   0.57003   0.46284   0.00000  Uiso   1.00
N547   N     0.27760   0.52266   0.06921   0.00000  Uiso   1.00
N548   N     0.16947   0.82135   0.01516   0.00000  Uiso   1.00
N549   N     0.06615   0.59856   0.53997   0.00000  Uiso   1.00
N550   N     0.21852   0.50509   0.18500   0.00000  Uiso   1.00
N551   N     0.11040   0.80378   0.13095   0.00000  Uiso   1.00
N552   N     0.00707   0.58099   0.65576   0.00000  Uiso   1.00
C553   C     0.14904   0.82372   0.61458   0.00000  Uiso   1.00
C554   C     0.10991   0.81024   0.69926   0.00000  Uiso   1.00
C555   C     0.08681   0.76599   0.70597   0.00000  Uiso   1.00
C556   C     0.05204   0.76081   0.78937   0.00000  Uiso   1.00
C557   C     0.99300   0.73412   0.90964   0.00000  Uiso   1.00
C558   C     0.19223   0.84003   0.68438   0.00000  Uiso   1.00
C559   C     0.23834   0.82084   0.67856   0.00000  Uiso   1.00
C560   C     0.27287   0.84074   0.74942   0.00000  Uiso   1.00
C561   C     0.34164   0.86033   0.84653   0.00000  Uiso   1.00
C562   C     0.13083   0.86851   0.55342   0.00000  Uiso   1.00
C563   C     0.12531   0.87326   0.43749   0.00000  Uiso   1.00
C564   C     0.10815   0.91714   0.39809   0.00000  Uiso   1.00
C565   C     0.08159   0.98094   0.29186   0.00000  Uiso   1.00
C566   C     0.12838   0.89320   0.75075   0.00000  Uiso   1.00
C567   C     0.09870   0.84797   0.77322   0.00000  Uiso   1.00
C568   C     0.06395   0.84285   0.85663   0.00000  Uiso   1.00
C569   C     0.04079   0.79861   0.86346   0.00000  Uiso   1.00
C570   C     0.18101   0.87777   0.75834   0.00000  Uiso   1.00
C571   C     0.21548   0.89770   0.82922   0.00000  Uiso   1.00
C572   C     0.26163   0.87854   0.82352   0.00000  Uiso   1.00
C573   C     0.11960   0.90624   0.62738   0.00000  Uiso   1.00
C574   C     0.10245   0.95012   0.58815   0.00000  Uiso   1.00
C575   C     0.09691   0.95494   0.47218   0.00000  Uiso   1.00
H576   H     0.15778   0.79435   0.55700   0.00000  Uiso   1.00
H577   H     0.09550   0.73680   0.64872   0.00000  Uiso   1.00
H578   H     0.24701   0.79164   0.62131   0.00000  Uiso   1.00
H579   H     0.13400   0.84405   0.38028   0.00000  Uiso   1.00
H580   H     0.02152   0.68963   0.78306   0.00000  Uiso   1.00
H581   H     0.34099   0.80528   0.72524   0.00000  Uiso   1.00
H582   H     0.10268   0.91580   0.21697   0.00000  Uiso   1.00
H583   H     0.11965   0.92257   0.80833   0.00000  Uiso   1.00
H584   H     0.05527   0.87206   0.91385   0.00000  Uiso   1.00
H585   H     0.20678   0.92690   0.88644   0.00000  Uiso   1.00
H586   H     0.09377   0.97931   0.64540   0.00000  Uiso   1.00
H587   H     0.98887   0.79941   0.99825   0.00000  Uiso   1.00
H588   H     0.30834   0.91507   0.94042   0.00000  Uiso   1.00
H589   H     0.07003   0.02558   0.43215   0.00000  Uiso   1.00
O590   O     0.96355   0.70897   0.95556   0.00000  Uiso   1.00
O591   O     0.38268   0.86071   0.87967   0.00000  Uiso   1.00
O592   O     0.07003   0.00570   0.21284   0.00000  Uiso   1.00
N593   N     0.02266   0.72240   0.81921   0.00000  Uiso   1.00
N594   N     0.32135   0.83053   0.76516   0.00000  Uiso   1.00
N595   N     0.09856   0.93385   0.28997   0.00000  Uiso   1.00
N596   N     0.00509   0.78148   0.93500   0.00000  Uiso   1.00
N597   N     0.30378   0.88960   0.88095   0.00000  Uiso   1.00
N598   N     0.08099   0.99293   0.40576   0.00000  Uiso   1.00
C599   C     0.64904   0.32372   0.11458   0.00000  Uiso   1.00
C600   C     0.60991   0.31024   0.19926   0.00000  Uiso   1.00
C601   C     0.58681   0.26599   0.20597   0.00000  Uiso   1.00
C602   C     0.55204   0.26081   0.28937   0.00000  Uiso   1.00
C603   C     0.49300   0.23412   0.40964   0.00000  Uiso   1.00
C604   C     0.69223   0.34003   0.18438   0.00000  Uiso   1.00
C605   C     0.73834   0.32084   0.17856   0.00000  Uiso   1.00
C606   C     0.77287   0.34074   0.24942   0.00000  Uiso   1.00
C607   C     0.84164   0.36033   0.34653   0.00000  Uiso   1.00
C608   C     0.63083   0.36851   0.05342   0.00000  Uiso   1.00
C609   C     0.62531   0.37326   0.93749   0.00000  Uiso   1.00
C610   C     0.60815   0.41714   0.89809   0.00000  Uiso   1.00
C611   C     0.58159   0.48094   0.79186   0.00000  Uiso   1.00
C612   C     0.62838   0.39320   0.25075   0.00000  Uiso   1.00
C613   C     0.59870   0.34797   0.27322   0.00000  Uiso   1.00
C614   C     0.56395   0.34285   0.35663   0.00000  Uiso   1.00
C615   C     0.54079   0.29861   0.36346   0.00000  Uiso   1.00
C616   C     0.68101   0.37777   0.25834   0.00000  Uiso   1.00
C617   C     0.71548   0.39770   0.32922   0.00000  Uiso   1.00
C618   C     0.76163   0.37854   0.32352   0.00000  Uiso   1.00
C619   C     0.61960   0.40624   0.12738   0.00000  Uiso   1.00
C620   C     0.60245   0.45012   0.08815   0.00000  Uiso   1.00
C621   C     0.59691   0.45494   0.97218   0.00000  Uiso   1.00
H622   H     0.65778   0.29435   0.05700   0.00000  Uiso   1.00
H623   H     0.59550   0.23680   0.14872   0.00000  Uiso   1.00
H624   H     0.74701   0.29164   0.12131   0.00000  Uiso   1.00
H625   H     0.63400   0.34405   0.88028   0.00000  Uiso   1.00
H626   H     0.52152   0.18963   0.28306   0.00000  Uiso   1.00
H627   H     0.84099   0.30528   0.22524   0.00000  Uiso   1.00
H628   H     0.60268   0.41580   0.71697   0.00000  Uiso   1.00
H629   H     0.61965   0.42257   0.30833   0.00000  Uiso   1.00
H630   H     0.55527   0.37206   0.41385   0.00000  Uiso   1.00
H631   H     0.70678   0.42690   0.38644   0.00000  Uiso   1.00
H632   H     0.59377   0.47931   0.14540   0.00000  Uiso   1.00
H633   H     0.48887   0.29941   0.49825   0.00000  Uiso   1.00
H634   H     0.80834   0.41507   0.44042   0.00000  Uiso   1.00
H635   H     0.57003   0.52558   0.93215   0.00000  Uiso   1.00
O636   O     0.46355   0.20897   0.45556   0.00000  Uiso   1.00
O637   O     0.88268   0.36071   0.37967   0.00000  Uiso   1.00
O638   O     0.57003   0.50570   0.71284   0.00000  Uiso   1.00
N639   N     0.52266   0.22240   0.31921   0.00000  Uiso   1.00
N640   N     0.82135   0.33053   0.26516   0.00000  Uiso   1.00
N641   N     0.59856   0.43385   0.78997   0.00000  Uiso   1.00
N642   N     0.50509   0.28148   0.43500   0.00000  Uiso   1.00
N643   N     0.80378   0.38960   0.38095   0.00000  Uiso   1.00
N644   N     0.58099   0.49293   0.90576   0.00000  Uiso   1.00
C645   C     0.35096   0.67628   0.11458   0.00000  Uiso   1.00
C646   C     0.39009   0.68976   0.19926   0.00000  Uiso   1.00
C647   C     0.41319   0.73401   0.20597   0.00000  Uiso   1.00
C648   C     0.44796   0.73919   0.28937   0.00000  Uiso   1.00
C649   C     0.50700   0.76588   0.40964   0.00000  Uiso   1.00
C650   C     0.30777   0.65997   0.18438   0.00000  Uiso   1.00
C651   C     0.26166   0.67916   0.17856   0.00000  Uiso   1.00
C652   C     0.22713   0.65926   0.24942   0.00000  Uiso   1.00
C653   C     0.15836   0.63967   0.34653   0.00000  Uiso   1.00
C654   C     0.36917   0.63149   0.05342   0.00000  Uiso   1.00
C655   C     0.37469   0.62674   0.93749   0.00000  Uiso   1.00
C656   C     0.39185   0.58286   0.89809   0.00000  Uiso   1.00
C657   C     0.41841   0.51906   0.79186   0.00000  Uiso   1.00
C658   C     0.37162   0.60680   0.25075   0.00000  Uiso   1.00
C659   C     0.40130   0.65203   0.27322   0.00000  Uiso   1.00
C660   C     0.43605   0.65715   0.35663   0.00000  Uiso   1.00
C661   C     0.45921   0.70139   0.36346   0.00000  Uiso   1.00
C662   C     0.31899   0.62223   0.25834   0.00000  Uiso   1.00
C663   C     0.28452   0.60230   0.32922   0.00000  Uiso   1.00
C664   C     0.23837   0.62146   0.32352   0.00000  Uiso   1.00
C665   C     0.38040   0.59376   0.12738   0.00000  Uiso   1.00
C666   C     0.39755   0.54988   0.08815   0.00000  Uiso   1.00
C667   C     0.40309   0.54506   0.97218   0.00000  Uiso   1.00
H668   H     0.34222   0.70565   0.05700   0.00000  Uiso   1.00
H669   H     0.40450   0.76320   0.14872   0.00000  Uiso   1.00
H670   H     0.25299   0.70836   0.12131   0.00000  Uiso   1.00
H671   H     0.36600   0.65595   0.88028   0.00000  Uiso   1.00
H672   H     0.47848   0.81037   0.28306   0.00000  Uiso   1.00
H673   H     0.15901   0.69472   0.22524   0.00000  Uiso   1.00
H674   H     0.39732   0.58420   0.71697   0.00000  Uiso   1.00
H675   H     0.38035   0.57743   0.30833   0.00000  Uiso   1.00
H676   H     0.44473   0.62794   0.41385   0.00000  Uiso   1.00
H677   H     0.29322   0.57310   0.38644   0.00000  Uiso   1.00
H678   H     0.40623   0.52069   0.14540   0.00000  Uiso   1.00
H679   H     0.51113   0.70059   0.49825   0.00000  Uiso   1.00
H680   H     0.19166   0.58493   0.44042   0.00000  Uiso   1.00
H681   H     0.42997   0.47442   0.93215   0.00000  Uiso   1.00
O682   O     0.53645   0.79103   0.45556   0.00000  Uiso   1.00
O683   O     0.11732   0.63929   0.37967   0.00000  Uiso   1.00
O684   O     0.42997   0.49430   0.71284   0.00000  Uiso   1.00
N685   N     0.47734   0.77760   0.31921   0.00000  Uiso   1.00
N686   N     0.17865   0.66947   0.26516   0.00000  Uiso   1.00
N687   N     0.40144   0.56615   0.78997   0.00000  Uiso   1.00
N688   N     0.49491   0.71852   0.43500   0.00000  Uiso   1.00
N689   N     0.19622   0.61040   0.38095   0.00000  Uiso   1.00
N690   N     0.41901   0.50707   0.90576   0.00000  Uiso   1.00
C691   C     0.85096   0.17628   0.61458   0.00000  Uiso   1.00
C692   C     0.89009   0.18976   0.69926   0.00000  Uiso   1.00
C693   C     0.91319   0.23401   0.70597   0.00000  Uiso   1.00
C694   C     0.94796   0.23919   0.78937   0.00000  Uiso   1.00
C695   C     0.00700   0.26588   0.90964   0.00000  Uiso   1.00
C696   C     0.80777   0.15997   0.68438   0.00000  Uiso   1.00
C697   C     0.76166   0.17916   0.67856   0.00000  Uiso   1.00
C698   C     0.72713   0.15926   0.74942   0.00000  Uiso   1.00
C699   C     0.65836   0.13967   0.84653   0.00000  Uiso   1.00
C700   C     0.86917   0.13149   0.55342   0.00000  Uiso   1.00
C701   C     0.87469   0.12674   0.43749   0.00000  Uiso   1.00
C702   C     0.89185   0.08286   0.39809   0.00000  Uiso   1.00
C703   C     0.91841   0.01906   0.29186   0.00000  Uiso   1.00
C704   C     0.87162   0.10680   0.75075   0.00000  Uiso   1.00
C705   C     0.90130   0.15203   0.77322   0.00000  Uiso   1.00
C706   C     0.93605   0.15715   0.85663   0.00000  Uiso   1.00
C707   C     0.95921   0.20139   0.86346   0.00000  Uiso   1.00
C708   C     0.81899   0.12223   0.75834   0.00000  Uiso   1.00
C709   C     0.78452   0.10230   0.82922   0.00000  Uiso   1.00
C710   C     0.73837   0.12146   0.82352   0.00000  Uiso   1.00
C711   C     0.88040   0.09376   0.62738   0.00000  Uiso   1.00
C712   C     0.89755   0.04988   0.58815   0.00000  Uiso   1.00
C713   C     0.90309   0.04506   0.47218   0.00000  Uiso   1.00
H714   H     0.84222   0.20565   0.55700   0.00000  Uiso   1.00
H715   H     0.90450   0.26320   0.64872   0.00000  Uiso   1.00
H716   H     0.75299   0.20836   0.62131   0.00000  Uiso   1.00
H717   H     0.86600   0.15595   0.38028   0.00000  Uiso   1.00
H718   H     0.97848   0.31037   0.78306   0.00000  Uiso   1.00
H719   H     0.65901   0.19472   0.72524   0.00000  Uiso   1.00
H720   H     0.89732   0.08420   0.21697   0.00000  Uiso   1.00
H721   H     0.88035   0.07743   0.80833   0.00000  Uiso   1.00
H722   H     0.94473   0.12794   0.91385   0.00000  Uiso   1.00
H723   H     0.79322   0.07310   0.88644   0.00000  Uiso   1.00
H724   H     0.90623   0.02069   0.64540   0.00000  Uiso   1.00
H725   H     0.01113   0.20059   0.99825   0.00000  Uiso   1.00
H726   H     0.69166   0.08493   0.94042   0.00000  Uiso   1.00
H727   H     0.92997   0.97442   0.43215   0.00000  Uiso   1.00
O728   O     0.03645   0.29103   0.95556   0.00000  Uiso   1.00
O729   O     0.61732   0.13929   0.87967   0.00000  Uiso   1.00
O730   O     0.92997   0.99430   0.21284   0.00000  Uiso   1.00
N731   N     0.97734   0.27760   0.81921   0.00000  Uiso   1.00
N732   N     0.67865   0.16947   0.76516   0.00000  Uiso   1.00
N733   N     0.90144   0.06615   0.28997   0.00000  Uiso   1.00
N734   N     0.99491   0.21852   0.93500   0.00000  Uiso   1.00
N735   N     0.69622   0.11040   0.88095   0.00000  Uiso   1.00
N736   N     0.91901   0.00707   0.40576   0.00000  Uiso   1.00
