data_job_04738
_audit_creation_date              2018-12-19
_audit_creation_method            'Materials Studio'
_symmetry_space_group_name_H-M    'P1'
_symmetry_Int_Tables_number       1
_symmetry_cell_setting            triclinic
loop_
_symmetry_equiv_pos_as_xyz
  x,y,z
_cell_length_a                    17.4508
_cell_length_b                    17.4508
_cell_length_c                    34.1980
_cell_angle_alpha                 90.0000
_cell_angle_beta                  90.0000
_cell_angle_gamma                 90.0000
loop_
_atom_site_label
_atom_site_type_symbol
_atom_site_fract_x
_atom_site_fract_y
_atom_site_fract_z
_atom_site_U_iso_or_equiv
_atom_site_adp_type
_atom_site_occupancy
C1     C     0.80312   0.13503   0.26830   0.00000  Uiso   1.00
C2     C     0.73752   0.12170   0.23963   0.00000  Uiso   1.00
C3     C     0.66118   0.14011   0.24603   0.00000  Uiso   1.00
C4     C     0.60992   0.12333   0.21618   0.00000  Uiso   1.00
C5     C     0.50437   0.10777   0.17700   0.00000  Uiso   1.00
C6     C     0.84050   0.05702   0.27462   0.00000  Uiso   1.00
C7     C     0.85075   0.02105   0.31044   0.00000  Uiso   1.00
C8     C     0.88620   0.94982   0.31004   0.00000  Uiso   1.00
C9     C     0.94058   0.83387   0.32518   0.00000  Uiso   1.00
C10    C     0.86198   0.18350   0.24652   0.00000  Uiso   1.00
C11    C     0.89031   0.25386   0.25872   0.00000  Uiso   1.00
C12    C     0.94386   0.28911   0.23467   0.00000  Uiso   1.00
C13    C     0.03159   0.36954   0.20619   0.00000  Uiso   1.00
C14    C     0.84785   0.07250   0.20392   0.00000  Uiso   1.00
C15    C     0.76182   0.08774   0.20466   0.00000  Uiso   1.00
C16    C     0.71067   0.07093   0.17480   0.00000  Uiso   1.00
C17    C     0.63426   0.08931   0.18115   0.00000  Uiso   1.00
C18    C     0.86480   0.02306   0.23965   0.00000  Uiso   1.00
C19    C     0.90025   0.95187   0.23921   0.00000  Uiso   1.00
C20    C     0.91054   0.91580   0.27501   0.00000  Uiso   1.00
C21    C     0.88628   0.14954   0.21155   0.00000  Uiso   1.00
C22    C     0.93980   0.18468   0.18749   0.00000  Uiso   1.00
C23    C     0.96821   0.25509   0.19964   0.00000  Uiso   1.00
H24    H     0.78420   0.16146   0.29553   0.00000  Uiso   1.00
H25    H     0.64239   0.16639   0.27310   0.00000  Uiso   1.00
H26    H     0.83195   0.04735   0.33749   0.00000  Uiso   1.00
H27    H     0.87150   0.28013   0.28578   0.00000  Uiso   1.00
H28    H     0.49588   0.15684   0.23281   0.00000  Uiso   1.00
H29    H     0.89559   0.90585   0.36860   0.00000  Uiso   1.00
H30    H     0.97899   0.39671   0.25956   0.00000  Uiso   1.00
H31    H     0.86677   0.04606   0.17669   0.00000  Uiso   1.00
H32    H     0.72949   0.04465   0.14774   0.00000  Uiso   1.00
H33    H     0.91905   0.92561   0.21214   0.00000  Uiso   1.00
H34    H     0.95859   0.15838   0.16043   0.00000  Uiso   1.00
H35    H     0.56658   0.05803   0.13107   0.00000  Uiso   1.00
H36    H     0.96629   0.80704   0.26686   0.00000  Uiso   1.00
H37    H     0.04969   0.29790   0.15782   0.00000  Uiso   1.00
O38    O     0.43943   0.10857   0.16505   0.00000  Uiso   1.00
O39    O     0.96385   0.77929   0.34319   0.00000  Uiso   1.00
O40    O     0.07326   0.42328   0.20013   0.00000  Uiso   1.00
N41    N     0.53136   0.13379   0.21284   0.00000  Uiso   1.00
N42    N     0.90506   0.89913   0.33979   0.00000  Uiso   1.00
N43    N     0.98304   0.35803   0.23785   0.00000  Uiso   1.00
N44    N     0.56940   0.08062   0.15809   0.00000  Uiso   1.00
N45    N     0.94310   0.84596   0.28504   0.00000  Uiso   1.00
N46    N     0.02108   0.30486   0.18310   0.00000  Uiso   1.00
C47    C     0.30312   0.63503   0.76830   0.00000  Uiso   1.00
C48    C     0.23752   0.62170   0.73963   0.00000  Uiso   1.00
C49    C     0.16118   0.64011   0.74603   0.00000  Uiso   1.00
C50    C     0.10992   0.62333   0.71618   0.00000  Uiso   1.00
C51    C     0.00437   0.60777   0.67700   0.00000  Uiso   1.00
C52    C     0.34050   0.55702   0.77462   0.00000  Uiso   1.00
C53    C     0.35075   0.52105   0.81044   0.00000  Uiso   1.00
C54    C     0.38620   0.44982   0.81004   0.00000  Uiso   1.00
C55    C     0.44058   0.33387   0.82518   0.00000  Uiso   1.00
C56    C     0.36198   0.68350   0.74652   0.00000  Uiso   1.00
C57    C     0.39031   0.75386   0.75872   0.00000  Uiso   1.00
C58    C     0.44386   0.78911   0.73467   0.00000  Uiso   1.00
C59    C     0.53159   0.86954   0.70619   0.00000  Uiso   1.00
C60    C     0.34785   0.57250   0.70392   0.00000  Uiso   1.00
C61    C     0.26182   0.58774   0.70466   0.00000  Uiso   1.00
C62    C     0.21067   0.57093   0.67480   0.00000  Uiso   1.00
C63    C     0.13426   0.58931   0.68115   0.00000  Uiso   1.00
C64    C     0.36480   0.52306   0.73965   0.00000  Uiso   1.00
C65    C     0.40025   0.45187   0.73921   0.00000  Uiso   1.00
C66    C     0.41054   0.41580   0.77501   0.00000  Uiso   1.00
C67    C     0.38628   0.64954   0.71155   0.00000  Uiso   1.00
C68    C     0.43980   0.68468   0.68749   0.00000  Uiso   1.00
C69    C     0.46821   0.75509   0.69964   0.00000  Uiso   1.00
H70    H     0.28420   0.66146   0.79553   0.00000  Uiso   1.00
H71    H     0.14239   0.66639   0.77310   0.00000  Uiso   1.00
H72    H     0.33195   0.54735   0.83749   0.00000  Uiso   1.00
H73    H     0.37150   0.78013   0.78578   0.00000  Uiso   1.00
H74    H     0.99588   0.65684   0.73281   0.00000  Uiso   1.00
H75    H     0.39559   0.40585   0.86860   0.00000  Uiso   1.00
H76    H     0.47899   0.89671   0.75956   0.00000  Uiso   1.00
H77    H     0.36677   0.54606   0.67669   0.00000  Uiso   1.00
H78    H     0.22949   0.54465   0.64774   0.00000  Uiso   1.00
H79    H     0.41905   0.42561   0.71214   0.00000  Uiso   1.00
H80    H     0.45859   0.65838   0.66043   0.00000  Uiso   1.00
H81    H     0.06658   0.55803   0.63107   0.00000  Uiso   1.00
H82    H     0.46629   0.30704   0.76686   0.00000  Uiso   1.00
H83    H     0.54969   0.79790   0.65782   0.00000  Uiso   1.00
O84    O     0.93943   0.60857   0.66505   0.00000  Uiso   1.00
O85    O     0.46385   0.27929   0.84319   0.00000  Uiso   1.00
O86    O     0.57326   0.92328   0.70013   0.00000  Uiso   1.00
N87    N     0.03136   0.63379   0.71284   0.00000  Uiso   1.00
N88    N     0.40506   0.39913   0.83979   0.00000  Uiso   1.00
N89    N     0.48304   0.85803   0.73785   0.00000  Uiso   1.00
N90    N     0.06940   0.58062   0.65809   0.00000  Uiso   1.00
N91    N     0.44310   0.34596   0.78504   0.00000  Uiso   1.00
N92    N     0.52108   0.80486   0.68310   0.00000  Uiso   1.00
C93    C     0.69688   0.36497   0.76830   0.00000  Uiso   1.00
C94    C     0.76248   0.37830   0.73963   0.00000  Uiso   1.00
C95    C     0.83882   0.35989   0.74603   0.00000  Uiso   1.00
C96    C     0.89008   0.37667   0.71618   0.00000  Uiso   1.00
C97    C     0.99563   0.39223   0.67700   0.00000  Uiso   1.00
C98    C     0.65950   0.44298   0.77462   0.00000  Uiso   1.00
C99    C     0.64925   0.47895   0.81044   0.00000  Uiso   1.00
C100   C     0.61380   0.55018   0.81004   0.00000  Uiso   1.00
C101   C     0.55942   0.66613   0.82518   0.00000  Uiso   1.00
C102   C     0.63802   0.31650   0.74652   0.00000  Uiso   1.00
C103   C     0.60969   0.24614   0.75872   0.00000  Uiso   1.00
C104   C     0.55614   0.21089   0.73467   0.00000  Uiso   1.00
C105   C     0.46841   0.13046   0.70619   0.00000  Uiso   1.00
C106   C     0.65215   0.42750   0.70392   0.00000  Uiso   1.00
C107   C     0.73818   0.41226   0.70466   0.00000  Uiso   1.00
C108   C     0.78933   0.42907   0.67480   0.00000  Uiso   1.00
C109   C     0.86574   0.41069   0.68115   0.00000  Uiso   1.00
C110   C     0.63520   0.47694   0.73965   0.00000  Uiso   1.00
C111   C     0.59975   0.54813   0.73921   0.00000  Uiso   1.00
C112   C     0.58946   0.58420   0.77501   0.00000  Uiso   1.00
C113   C     0.61372   0.35046   0.71155   0.00000  Uiso   1.00
C114   C     0.56020   0.31532   0.68749   0.00000  Uiso   1.00
C115   C     0.53179   0.24491   0.69964   0.00000  Uiso   1.00
H116   H     0.71580   0.33854   0.79553   0.00000  Uiso   1.00
H117   H     0.85761   0.33361   0.77310   0.00000  Uiso   1.00
H118   H     0.66805   0.45265   0.83749   0.00000  Uiso   1.00
H119   H     0.62850   0.21987   0.78578   0.00000  Uiso   1.00
H120   H     0.00412   0.34316   0.73281   0.00000  Uiso   1.00
H121   H     0.60441   0.59415   0.86860   0.00000  Uiso   1.00
H122   H     0.52101   0.10329   0.75956   0.00000  Uiso   1.00
H123   H     0.63323   0.45394   0.67669   0.00000  Uiso   1.00
H124   H     0.77051   0.45535   0.64774   0.00000  Uiso   1.00
H125   H     0.58095   0.57439   0.71214   0.00000  Uiso   1.00
H126   H     0.54141   0.34162   0.66043   0.00000  Uiso   1.00
H127   H     0.93342   0.44197   0.63107   0.00000  Uiso   1.00
H128   H     0.53371   0.69296   0.76686   0.00000  Uiso   1.00
H129   H     0.45031   0.20210   0.65782   0.00000  Uiso   1.00
O130   O     0.06057   0.39143   0.66505   0.00000  Uiso   1.00
O131   O     0.53615   0.72071   0.84319   0.00000  Uiso   1.00
O132   O     0.42674   0.07672   0.70013   0.00000  Uiso   1.00
N133   N     0.96864   0.36621   0.71284   0.00000  Uiso   1.00
N134   N     0.59494   0.60087   0.83979   0.00000  Uiso   1.00
N135   N     0.51696   0.14197   0.73785   0.00000  Uiso   1.00
N136   N     0.93060   0.41938   0.65809   0.00000  Uiso   1.00
N137   N     0.55690   0.65404   0.78504   0.00000  Uiso   1.00
N138   N     0.47892   0.19514   0.68310   0.00000  Uiso   1.00
C139   C     0.19688   0.86497   0.26830   0.00000  Uiso   1.00
C140   C     0.26248   0.87830   0.23963   0.00000  Uiso   1.00
C141   C     0.33882   0.85989   0.24603   0.00000  Uiso   1.00
C142   C     0.39008   0.87667   0.21618   0.00000  Uiso   1.00
C143   C     0.49563   0.89223   0.17700   0.00000  Uiso   1.00
C144   C     0.15950   0.94298   0.27462   0.00000  Uiso   1.00
C145   C     0.14925   0.97895   0.31044   0.00000  Uiso   1.00
C146   C     0.11380   0.05018   0.31004   0.00000  Uiso   1.00
C147   C     0.05942   0.16613   0.32518   0.00000  Uiso   1.00
C148   C     0.13802   0.81650   0.24652   0.00000  Uiso   1.00
C149   C     0.10969   0.74614   0.25872   0.00000  Uiso   1.00
C150   C     0.05614   0.71089   0.23467   0.00000  Uiso   1.00
C151   C     0.96841   0.63046   0.20619   0.00000  Uiso   1.00
C152   C     0.15215   0.92750   0.20392   0.00000  Uiso   1.00
C153   C     0.23818   0.91226   0.20466   0.00000  Uiso   1.00
C154   C     0.28933   0.92907   0.17480   0.00000  Uiso   1.00
C155   C     0.36574   0.91069   0.18115   0.00000  Uiso   1.00
C156   C     0.13520   0.97694   0.23965   0.00000  Uiso   1.00
C157   C     0.09975   0.04813   0.23921   0.00000  Uiso   1.00
C158   C     0.08946   0.08420   0.27501   0.00000  Uiso   1.00
C159   C     0.11372   0.85046   0.21155   0.00000  Uiso   1.00
C160   C     0.06020   0.81532   0.18749   0.00000  Uiso   1.00
C161   C     0.03179   0.74491   0.19964   0.00000  Uiso   1.00
H162   H     0.21580   0.83854   0.29553   0.00000  Uiso   1.00
H163   H     0.35761   0.83361   0.27310   0.00000  Uiso   1.00
H164   H     0.16805   0.95265   0.33749   0.00000  Uiso   1.00
H165   H     0.12850   0.71987   0.28578   0.00000  Uiso   1.00
H166   H     0.50412   0.84316   0.23281   0.00000  Uiso   1.00
H167   H     0.10441   0.09415   0.36860   0.00000  Uiso   1.00
H168   H     0.02101   0.60329   0.25956   0.00000  Uiso   1.00
H169   H     0.13323   0.95394   0.17669   0.00000  Uiso   1.00
H170   H     0.27051   0.95535   0.14774   0.00000  Uiso   1.00
H171   H     0.08095   0.07439   0.21214   0.00000  Uiso   1.00
H172   H     0.04141   0.84162   0.16043   0.00000  Uiso   1.00
H173   H     0.43342   0.94197   0.13107   0.00000  Uiso   1.00
H174   H     0.03371   0.19296   0.26686   0.00000  Uiso   1.00
H175   H     0.95031   0.70210   0.15782   0.00000  Uiso   1.00
O176   O     0.56057   0.89143   0.16505   0.00000  Uiso   1.00
O177   O     0.03615   0.22071   0.34319   0.00000  Uiso   1.00
O178   O     0.92674   0.57672   0.20013   0.00000  Uiso   1.00
N179   N     0.46864   0.86621   0.21284   0.00000  Uiso   1.00
N180   N     0.09494   0.10087   0.33979   0.00000  Uiso   1.00
N181   N     0.01696   0.64197   0.23785   0.00000  Uiso   1.00
N182   N     0.43060   0.91938   0.15809   0.00000  Uiso   1.00
N183   N     0.05690   0.15404   0.28504   0.00000  Uiso   1.00
N184   N     0.97892   0.69514   0.18310   0.00000  Uiso   1.00
C185   C     0.86497   0.30312   0.51830   0.00000  Uiso   1.00
C186   C     0.87830   0.23752   0.48963   0.00000  Uiso   1.00
C187   C     0.85989   0.16118   0.49603   0.00000  Uiso   1.00
C188   C     0.87667   0.10992   0.46618   0.00000  Uiso   1.00
C189   C     0.89223   0.00437   0.42700   0.00000  Uiso   1.00
C190   C     0.94298   0.34050   0.52462   0.00000  Uiso   1.00
C191   C     0.97895   0.35075   0.56044   0.00000  Uiso   1.00
C192   C     0.05018   0.38620   0.56004   0.00000  Uiso   1.00
C193   C     0.16613   0.44058   0.57518   0.00000  Uiso   1.00
C194   C     0.81650   0.36198   0.49652   0.00000  Uiso   1.00
C195   C     0.74614   0.39031   0.50872   0.00000  Uiso   1.00
C196   C     0.71089   0.44386   0.48467   0.00000  Uiso   1.00
C197   C     0.63046   0.53159   0.45619   0.00000  Uiso   1.00
C198   C     0.92750   0.34785   0.45392   0.00000  Uiso   1.00
C199   C     0.91226   0.26182   0.45466   0.00000  Uiso   1.00
C200   C     0.92907   0.21067   0.42480   0.00000  Uiso   1.00
C201   C     0.91069   0.13426   0.43115   0.00000  Uiso   1.00
C202   C     0.97694   0.36480   0.48965   0.00000  Uiso   1.00
C203   C     0.04813   0.40025   0.48921   0.00000  Uiso   1.00
C204   C     0.08420   0.41054   0.52501   0.00000  Uiso   1.00
C205   C     0.85046   0.38628   0.46155   0.00000  Uiso   1.00
C206   C     0.81532   0.43980   0.43749   0.00000  Uiso   1.00
C207   C     0.74491   0.46821   0.44964   0.00000  Uiso   1.00
H208   H     0.83854   0.28420   0.54553   0.00000  Uiso   1.00
H209   H     0.83361   0.14239   0.52310   0.00000  Uiso   1.00
H210   H     0.95265   0.33195   0.58749   0.00000  Uiso   1.00
H211   H     0.71987   0.37150   0.53578   0.00000  Uiso   1.00
H212   H     0.84316   0.99588   0.48281   0.00000  Uiso   1.00
H213   H     0.09415   0.39559   0.61860   0.00000  Uiso   1.00
H214   H     0.60329   0.47899   0.50956   0.00000  Uiso   1.00
H215   H     0.95394   0.36677   0.42669   0.00000  Uiso   1.00
H216   H     0.95535   0.22949   0.39774   0.00000  Uiso   1.00
H217   H     0.07439   0.41905   0.46214   0.00000  Uiso   1.00
H218   H     0.84162   0.45859   0.41043   0.00000  Uiso   1.00
H219   H     0.94197   0.06658   0.38107   0.00000  Uiso   1.00
H220   H     0.19296   0.46629   0.51686   0.00000  Uiso   1.00
H221   H     0.70210   0.54969   0.40782   0.00000  Uiso   1.00
O222   O     0.89143   0.93943   0.41505   0.00000  Uiso   1.00
O223   O     0.22071   0.46385   0.59319   0.00000  Uiso   1.00
O224   O     0.57672   0.57326   0.45013   0.00000  Uiso   1.00
N225   N     0.86621   0.03136   0.46284   0.00000  Uiso   1.00
N226   N     0.10087   0.40506   0.58979   0.00000  Uiso   1.00
N227   N     0.64197   0.48304   0.48785   0.00000  Uiso   1.00
N228   N     0.91938   0.06940   0.40809   0.00000  Uiso   1.00
N229   N     0.15404   0.44310   0.53504   0.00000  Uiso   1.00
N230   N     0.69514   0.52108   0.43310   0.00000  Uiso   1.00
C231   C     0.36497   0.80312   0.01830   0.00000  Uiso   1.00
C232   C     0.37830   0.73752   0.98963   0.00000  Uiso   1.00
C233   C     0.35989   0.66118   0.99603   0.00000  Uiso   1.00
C234   C     0.37667   0.60992   0.96618   0.00000  Uiso   1.00
C235   C     0.39223   0.50437   0.92700   0.00000  Uiso   1.00
C236   C     0.44298   0.84050   0.02462   0.00000  Uiso   1.00
C237   C     0.47895   0.85075   0.06044   0.00000  Uiso   1.00
C238   C     0.55018   0.88620   0.06004   0.00000  Uiso   1.00
C239   C     0.66613   0.94058   0.07518   0.00000  Uiso   1.00
C240   C     0.31650   0.86198   0.99652   0.00000  Uiso   1.00
C241   C     0.24614   0.89031   0.00872   0.00000  Uiso   1.00
C242   C     0.21089   0.94386   0.98467   0.00000  Uiso   1.00
C243   C     0.13046   0.03159   0.95619   0.00000  Uiso   1.00
C244   C     0.42750   0.84785   0.95392   0.00000  Uiso   1.00
C245   C     0.41226   0.76182   0.95466   0.00000  Uiso   1.00
C246   C     0.42907   0.71067   0.92480   0.00000  Uiso   1.00
C247   C     0.41069   0.63426   0.93115   0.00000  Uiso   1.00
C248   C     0.47694   0.86480   0.98965   0.00000  Uiso   1.00
C249   C     0.54813   0.90025   0.98921   0.00000  Uiso   1.00
C250   C     0.58420   0.91054   0.02501   0.00000  Uiso   1.00
C251   C     0.35046   0.88628   0.96155   0.00000  Uiso   1.00
C252   C     0.31532   0.93980   0.93749   0.00000  Uiso   1.00
C253   C     0.24491   0.96821   0.94964   0.00000  Uiso   1.00
H254   H     0.33854   0.78420   0.04553   0.00000  Uiso   1.00
H255   H     0.33361   0.64239   0.02310   0.00000  Uiso   1.00
H256   H     0.45265   0.83195   0.08749   0.00000  Uiso   1.00
H257   H     0.21987   0.87150   0.03578   0.00000  Uiso   1.00
H258   H     0.34316   0.49588   0.98281   0.00000  Uiso   1.00
H259   H     0.59415   0.89559   0.11860   0.00000  Uiso   1.00
H260   H     0.10329   0.97899   0.00956   0.00000  Uiso   1.00
H261   H     0.45394   0.86677   0.92669   0.00000  Uiso   1.00
H262   H     0.45535   0.72949   0.89774   0.00000  Uiso   1.00
H263   H     0.57439   0.91905   0.96214   0.00000  Uiso   1.00
H264   H     0.34162   0.95859   0.91043   0.00000  Uiso   1.00
H265   H     0.44197   0.56658   0.88107   0.00000  Uiso   1.00
H266   H     0.69296   0.96629   0.01686   0.00000  Uiso   1.00
H267   H     0.20210   0.04969   0.90782   0.00000  Uiso   1.00
O268   O     0.39143   0.43943   0.91505   0.00000  Uiso   1.00
O269   O     0.72071   0.96385   0.09319   0.00000  Uiso   1.00
O270   O     0.07672   0.07326   0.95013   0.00000  Uiso   1.00
N271   N     0.36621   0.53136   0.96284   0.00000  Uiso   1.00
N272   N     0.60087   0.90506   0.08979   0.00000  Uiso   1.00
N273   N     0.14197   0.98304   0.98785   0.00000  Uiso   1.00
N274   N     0.41938   0.56940   0.90809   0.00000  Uiso   1.00
N275   N     0.65404   0.94310   0.03504   0.00000  Uiso   1.00
N276   N     0.19514   0.02108   0.93310   0.00000  Uiso   1.00
C277   C     0.63503   0.19688   0.01830   0.00000  Uiso   1.00
C278   C     0.62170   0.26248   0.98963   0.00000  Uiso   1.00
C279   C     0.64011   0.33882   0.99603   0.00000  Uiso   1.00
C280   C     0.62333   0.39008   0.96618   0.00000  Uiso   1.00
C281   C     0.60777   0.49563   0.92700   0.00000  Uiso   1.00
C282   C     0.55702   0.15950   0.02462   0.00000  Uiso   1.00
C283   C     0.52105   0.14925   0.06044   0.00000  Uiso   1.00
C284   C     0.44982   0.11380   0.06004   0.00000  Uiso   1.00
C285   C     0.33387   0.05942   0.07518   0.00000  Uiso   1.00
C286   C     0.68350   0.13802   0.99652   0.00000  Uiso   1.00
C287   C     0.75386   0.10969   0.00872   0.00000  Uiso   1.00
C288   C     0.78911   0.05614   0.98467   0.00000  Uiso   1.00
C289   C     0.86954   0.96841   0.95619   0.00000  Uiso   1.00
C290   C     0.57250   0.15215   0.95392   0.00000  Uiso   1.00
C291   C     0.58774   0.23818   0.95466   0.00000  Uiso   1.00
C292   C     0.57093   0.28933   0.92480   0.00000  Uiso   1.00
C293   C     0.58931   0.36574   0.93115   0.00000  Uiso   1.00
C294   C     0.52306   0.13520   0.98965   0.00000  Uiso   1.00
C295   C     0.45187   0.09975   0.98921   0.00000  Uiso   1.00
C296   C     0.41580   0.08946   0.02501   0.00000  Uiso   1.00
C297   C     0.64954   0.11372   0.96155   0.00000  Uiso   1.00
C298   C     0.68468   0.06020   0.93749   0.00000  Uiso   1.00
C299   C     0.75509   0.03179   0.94964   0.00000  Uiso   1.00
H300   H     0.66146   0.21580   0.04553   0.00000  Uiso   1.00
H301   H     0.66639   0.35761   0.02310   0.00000  Uiso   1.00
H302   H     0.54735   0.16805   0.08749   0.00000  Uiso   1.00
H303   H     0.78013   0.12850   0.03578   0.00000  Uiso   1.00
H304   H     0.65684   0.50412   0.98281   0.00000  Uiso   1.00
H305   H     0.40585   0.10441   0.11860   0.00000  Uiso   1.00
H306   H     0.89671   0.02101   0.00956   0.00000  Uiso   1.00
H307   H     0.54606   0.13323   0.92669   0.00000  Uiso   1.00
H308   H     0.54465   0.27051   0.89774   0.00000  Uiso   1.00
H309   H     0.42561   0.08095   0.96214   0.00000  Uiso   1.00
H310   H     0.65838   0.04141   0.91043   0.00000  Uiso   1.00
H311   H     0.55803   0.43342   0.88107   0.00000  Uiso   1.00
H312   H     0.30704   0.03371   0.01686   0.00000  Uiso   1.00
H313   H     0.79790   0.95031   0.90782   0.00000  Uiso   1.00
O314   O     0.60857   0.56057   0.91505   0.00000  Uiso   1.00
O315   O     0.27929   0.03615   0.09319   0.00000  Uiso   1.00
O316   O     0.92328   0.92674   0.95013   0.00000  Uiso   1.00
N317   N     0.63379   0.46864   0.96284   0.00000  Uiso   1.00
N318   N     0.39913   0.09494   0.08979   0.00000  Uiso   1.00
N319   N     0.85803   0.01696   0.98785   0.00000  Uiso   1.00
N320   N     0.58062   0.43060   0.90809   0.00000  Uiso   1.00
N321   N     0.34596   0.05690   0.03504   0.00000  Uiso   1.00
N322   N     0.80486   0.97892   0.93310   0.00000  Uiso   1.00
C323   C     0.13503   0.69688   0.51830   0.00000  Uiso   1.00
C324   C     0.12170   0.76248   0.48963   0.00000  Uiso   1.00
C325   C     0.14011   0.83882   0.49603   0.00000  Uiso   1.00
C326   C     0.12333   0.89008   0.46618   0.00000  Uiso   1.00
C327   C     0.10777   0.99563   0.42700   0.00000  Uiso   1.00
C328   C     0.05702   0.65950   0.52462   0.00000  Uiso   1.00
C329   C     0.02105   0.64925   0.56044   0.00000  Uiso   1.00
C330   C     0.94982   0.61380   0.56004   0.00000  Uiso   1.00
C331   C     0.83387   0.55942   0.57518   0.00000  Uiso   1.00
C332   C     0.18350   0.63802   0.49652   0.00000  Uiso   1.00
C333   C     0.25386   0.60969   0.50872   0.00000  Uiso   1.00
C334   C     0.28911   0.55614   0.48467   0.00000  Uiso   1.00
C335   C     0.36954   0.46841   0.45619   0.00000  Uiso   1.00
C336   C     0.07250   0.65215   0.45392   0.00000  Uiso   1.00
C337   C     0.08774   0.73818   0.45466   0.00000  Uiso   1.00
C338   C     0.07093   0.78933   0.42480   0.00000  Uiso   1.00
C339   C     0.08931   0.86574   0.43115   0.00000  Uiso   1.00
C340   C     0.02306   0.63520   0.48965   0.00000  Uiso   1.00
C341   C     0.95187   0.59975   0.48921   0.00000  Uiso   1.00
C342   C     0.91580   0.58946   0.52501   0.00000  Uiso   1.00
C343   C     0.14954   0.61372   0.46155   0.00000  Uiso   1.00
C344   C     0.18468   0.56020   0.43749   0.00000  Uiso   1.00
C345   C     0.25509   0.53179   0.44964   0.00000  Uiso   1.00
H346   H     0.16146   0.71580   0.54553   0.00000  Uiso   1.00
H347   H     0.16639   0.85761   0.52310   0.00000  Uiso   1.00
H348   H     0.04735   0.66805   0.58749   0.00000  Uiso   1.00
H349   H     0.28013   0.62850   0.53578   0.00000  Uiso   1.00
H350   H     0.15684   0.00412   0.48281   0.00000  Uiso   1.00
H351   H     0.90585   0.60441   0.61860   0.00000  Uiso   1.00
H352   H     0.39671   0.52101   0.50956   0.00000  Uiso   1.00
H353   H     0.04606   0.63323   0.42669   0.00000  Uiso   1.00
H354   H     0.04465   0.77051   0.39774   0.00000  Uiso   1.00
H355   H     0.92561   0.58095   0.46214   0.00000  Uiso   1.00
H356   H     0.15838   0.54141   0.41043   0.00000  Uiso   1.00
H357   H     0.05803   0.93342   0.38107   0.00000  Uiso   1.00
H358   H     0.80704   0.53371   0.51686   0.00000  Uiso   1.00
H359   H     0.29790   0.45031   0.40782   0.00000  Uiso   1.00
O360   O     0.10857   0.06057   0.41505   0.00000  Uiso   1.00
O361   O     0.77929   0.53615   0.59319   0.00000  Uiso   1.00
O362   O     0.42328   0.42674   0.45013   0.00000  Uiso   1.00
N363   N     0.13379   0.96864   0.46284   0.00000  Uiso   1.00
N364   N     0.89913   0.59494   0.58979   0.00000  Uiso   1.00
N365   N     0.35803   0.51696   0.48785   0.00000  Uiso   1.00
N366   N     0.08062   0.93060   0.40809   0.00000  Uiso   1.00
N367   N     0.84596   0.55690   0.53504   0.00000  Uiso   1.00
N368   N     0.30486   0.47892   0.43310   0.00000  Uiso   1.00
C369   C     0.19688   0.36497   0.98170   0.00000  Uiso   1.00
C370   C     0.26248   0.37830   0.01037   0.00000  Uiso   1.00
C371   C     0.33882   0.35989   0.00397   0.00000  Uiso   1.00
C372   C     0.39008   0.37667   0.03382   0.00000  Uiso   1.00
C373   C     0.49563   0.39223   0.07300   0.00000  Uiso   1.00
C374   C     0.15950   0.44298   0.97538   0.00000  Uiso   1.00
C375   C     0.14925   0.47895   0.93956   0.00000  Uiso   1.00
C376   C     0.11380   0.55018   0.93996   0.00000  Uiso   1.00
C377   C     0.05942   0.66613   0.92482   0.00000  Uiso   1.00
C378   C     0.13802   0.31650   0.00348   0.00000  Uiso   1.00
C379   C     0.10969   0.24614   0.99128   0.00000  Uiso   1.00
C380   C     0.05614   0.21089   0.01533   0.00000  Uiso   1.00
C381   C     0.96841   0.13046   0.04381   0.00000  Uiso   1.00
C382   C     0.15215   0.42750   0.04608   0.00000  Uiso   1.00
C383   C     0.23818   0.41226   0.04534   0.00000  Uiso   1.00
C384   C     0.28933   0.42907   0.07520   0.00000  Uiso   1.00
C385   C     0.36574   0.41069   0.06885   0.00000  Uiso   1.00
C386   C     0.13520   0.47694   0.01035   0.00000  Uiso   1.00
C387   C     0.09975   0.54813   0.01079   0.00000  Uiso   1.00
C388   C     0.08946   0.58420   0.97499   0.00000  Uiso   1.00
C389   C     0.11372   0.35046   0.03845   0.00000  Uiso   1.00
C390   C     0.06020   0.31532   0.06251   0.00000  Uiso   1.00
C391   C     0.03179   0.24491   0.05036   0.00000  Uiso   1.00
H392   H     0.21580   0.33854   0.95447   0.00000  Uiso   1.00
H393   H     0.35761   0.33361   0.97690   0.00000  Uiso   1.00
H394   H     0.16805   0.45265   0.91251   0.00000  Uiso   1.00
H395   H     0.12850   0.21987   0.96422   0.00000  Uiso   1.00
H396   H     0.50412   0.34316   0.01719   0.00000  Uiso   1.00
H397   H     0.10441   0.59415   0.88140   0.00000  Uiso   1.00
H398   H     0.02101   0.10329   0.99044   0.00000  Uiso   1.00
H399   H     0.13323   0.45394   0.07331   0.00000  Uiso   1.00
H400   H     0.27051   0.45535   0.10226   0.00000  Uiso   1.00
H401   H     0.08095   0.57439   0.03786   0.00000  Uiso   1.00
H402   H     0.04141   0.34162   0.08957   0.00000  Uiso   1.00
H403   H     0.43342   0.44197   0.11893   0.00000  Uiso   1.00
H404   H     0.03371   0.69296   0.98314   0.00000  Uiso   1.00
H405   H     0.95031   0.20210   0.09218   0.00000  Uiso   1.00
O406   O     0.56057   0.39143   0.08495   0.00000  Uiso   1.00
O407   O     0.03615   0.72071   0.90681   0.00000  Uiso   1.00
O408   O     0.92674   0.07672   0.04987   0.00000  Uiso   1.00
N409   N     0.46864   0.36621   0.03716   0.00000  Uiso   1.00
N410   N     0.09494   0.60087   0.91021   0.00000  Uiso   1.00
N411   N     0.01696   0.14197   0.01215   0.00000  Uiso   1.00
N412   N     0.43060   0.41938   0.09191   0.00000  Uiso   1.00
N413   N     0.05690   0.65404   0.96496   0.00000  Uiso   1.00
N414   N     0.97892   0.19514   0.06690   0.00000  Uiso   1.00
C415   C     0.69688   0.86497   0.48170   0.00000  Uiso   1.00
C416   C     0.76248   0.87830   0.51037   0.00000  Uiso   1.00
C417   C     0.83882   0.85989   0.50397   0.00000  Uiso   1.00
C418   C     0.89008   0.87667   0.53382   0.00000  Uiso   1.00
C419   C     0.99563   0.89223   0.57300   0.00000  Uiso   1.00
C420   C     0.65950   0.94298   0.47538   0.00000  Uiso   1.00
C421   C     0.64925   0.97895   0.43956   0.00000  Uiso   1.00
C422   C     0.61380   0.05018   0.43996   0.00000  Uiso   1.00
C423   C     0.55942   0.16613   0.42482   0.00000  Uiso   1.00
C424   C     0.63802   0.81650   0.50348   0.00000  Uiso   1.00
C425   C     0.60969   0.74614   0.49128   0.00000  Uiso   1.00
C426   C     0.55614   0.71089   0.51533   0.00000  Uiso   1.00
C427   C     0.46841   0.63046   0.54381   0.00000  Uiso   1.00
C428   C     0.65215   0.92750   0.54608   0.00000  Uiso   1.00
C429   C     0.73818   0.91226   0.54534   0.00000  Uiso   1.00
C430   C     0.78933   0.92907   0.57520   0.00000  Uiso   1.00
C431   C     0.86574   0.91069   0.56885   0.00000  Uiso   1.00
C432   C     0.63520   0.97694   0.51035   0.00000  Uiso   1.00
C433   C     0.59975   0.04813   0.51079   0.00000  Uiso   1.00
C434   C     0.58946   0.08420   0.47499   0.00000  Uiso   1.00
C435   C     0.61372   0.85046   0.53845   0.00000  Uiso   1.00
C436   C     0.56020   0.81532   0.56251   0.00000  Uiso   1.00
C437   C     0.53179   0.74491   0.55036   0.00000  Uiso   1.00
H438   H     0.71580   0.83854   0.45447   0.00000  Uiso   1.00
H439   H     0.85761   0.83361   0.47690   0.00000  Uiso   1.00
H440   H     0.66805   0.95265   0.41251   0.00000  Uiso   1.00
H441   H     0.62850   0.71987   0.46422   0.00000  Uiso   1.00
H442   H     0.00412   0.84316   0.51719   0.00000  Uiso   1.00
H443   H     0.60441   0.09415   0.38140   0.00000  Uiso   1.00
H444   H     0.52101   0.60329   0.49044   0.00000  Uiso   1.00
H445   H     0.63323   0.95394   0.57331   0.00000  Uiso   1.00
H446   H     0.77051   0.95535   0.60226   0.00000  Uiso   1.00
H447   H     0.58095   0.07439   0.53786   0.00000  Uiso   1.00
H448   H     0.54141   0.84162   0.58957   0.00000  Uiso   1.00
H449   H     0.93342   0.94197   0.61893   0.00000  Uiso   1.00
H450   H     0.53371   0.19296   0.48314   0.00000  Uiso   1.00
H451   H     0.45031   0.70210   0.59218   0.00000  Uiso   1.00
O452   O     0.06057   0.89143   0.58495   0.00000  Uiso   1.00
O453   O     0.53615   0.22071   0.40681   0.00000  Uiso   1.00
O454   O     0.42674   0.57672   0.54987   0.00000  Uiso   1.00
N455   N     0.96864   0.86621   0.53716   0.00000  Uiso   1.00
N456   N     0.59494   0.10087   0.41021   0.00000  Uiso   1.00
N457   N     0.51696   0.64197   0.51215   0.00000  Uiso   1.00
N458   N     0.93060   0.91938   0.59191   0.00000  Uiso   1.00
N459   N     0.55690   0.15404   0.46496   0.00000  Uiso   1.00
N460   N     0.47892   0.69514   0.56690   0.00000  Uiso   1.00
C461   C     0.30312   0.13503   0.48170   0.00000  Uiso   1.00
C462   C     0.23752   0.12170   0.51037   0.00000  Uiso   1.00
C463   C     0.16118   0.14011   0.50397   0.00000  Uiso   1.00
C464   C     0.10992   0.12333   0.53382   0.00000  Uiso   1.00
C465   C     0.00437   0.10777   0.57300   0.00000  Uiso   1.00
C466   C     0.34050   0.05702   0.47538   0.00000  Uiso   1.00
C467   C     0.35075   0.02105   0.43956   0.00000  Uiso   1.00
C468   C     0.38620   0.94982   0.43996   0.00000  Uiso   1.00
C469   C     0.44058   0.83387   0.42482   0.00000  Uiso   1.00
C470   C     0.36198   0.18350   0.50348   0.00000  Uiso   1.00
C471   C     0.39031   0.25386   0.49128   0.00000  Uiso   1.00
C472   C     0.44386   0.28911   0.51533   0.00000  Uiso   1.00
C473   C     0.53159   0.36954   0.54381   0.00000  Uiso   1.00
C474   C     0.34785   0.07250   0.54608   0.00000  Uiso   1.00
C475   C     0.26182   0.08774   0.54534   0.00000  Uiso   1.00
C476   C     0.21067   0.07093   0.57520   0.00000  Uiso   1.00
C477   C     0.13426   0.08931   0.56885   0.00000  Uiso   1.00
C478   C     0.36480   0.02306   0.51035   0.00000  Uiso   1.00
C479   C     0.40025   0.95187   0.51079   0.00000  Uiso   1.00
C480   C     0.41054   0.91580   0.47499   0.00000  Uiso   1.00
C481   C     0.38628   0.14954   0.53845   0.00000  Uiso   1.00
C482   C     0.43980   0.18468   0.56251   0.00000  Uiso   1.00
C483   C     0.46821   0.25509   0.55036   0.00000  Uiso   1.00
H484   H     0.28420   0.16146   0.45447   0.00000  Uiso   1.00
H485   H     0.14239   0.16639   0.47690   0.00000  Uiso   1.00
H486   H     0.33195   0.04735   0.41251   0.00000  Uiso   1.00
H487   H     0.37150   0.28013   0.46422   0.00000  Uiso   1.00
H488   H     0.99588   0.15684   0.51719   0.00000  Uiso   1.00
H489   H     0.39559   0.90585   0.38140   0.00000  Uiso   1.00
H490   H     0.47899   0.39671   0.49044   0.00000  Uiso   1.00
H491   H     0.36677   0.04606   0.57331   0.00000  Uiso   1.00
H492   H     0.22949   0.04465   0.60226   0.00000  Uiso   1.00
H493   H     0.41905   0.92561   0.53786   0.00000  Uiso   1.00
H494   H     0.45859   0.15838   0.58957   0.00000  Uiso   1.00
H495   H     0.06658   0.05803   0.61893   0.00000  Uiso   1.00
H496   H     0.46629   0.80704   0.48314   0.00000  Uiso   1.00
H497   H     0.54969   0.29790   0.59218   0.00000  Uiso   1.00
O498   O     0.93943   0.10857   0.58495   0.00000  Uiso   1.00
O499   O     0.46385   0.77929   0.40681   0.00000  Uiso   1.00
O500   O     0.57326   0.42328   0.54987   0.00000  Uiso   1.00
N501   N     0.03136   0.13379   0.53716   0.00000  Uiso   1.00
N502   N     0.40506   0.89913   0.41021   0.00000  Uiso   1.00
N503   N     0.48304   0.35803   0.51215   0.00000  Uiso   1.00
N504   N     0.06940   0.08062   0.59191   0.00000  Uiso   1.00
N505   N     0.44310   0.84596   0.46496   0.00000  Uiso   1.00
N506   N     0.52108   0.30486   0.56690   0.00000  Uiso   1.00
C507   C     0.80312   0.63503   0.98170   0.00000  Uiso   1.00
C508   C     0.73752   0.62170   0.01037   0.00000  Uiso   1.00
C509   C     0.66118   0.64011   0.00397   0.00000  Uiso   1.00
C510   C     0.60992   0.62333   0.03382   0.00000  Uiso   1.00
C511   C     0.50437   0.60777   0.07300   0.00000  Uiso   1.00
C512   C     0.84050   0.55702   0.97538   0.00000  Uiso   1.00
C513   C     0.85075   0.52105   0.93956   0.00000  Uiso   1.00
C514   C     0.88620   0.44982   0.93996   0.00000  Uiso   1.00
C515   C     0.94058   0.33387   0.92482   0.00000  Uiso   1.00
C516   C     0.86198   0.68350   0.00348   0.00000  Uiso   1.00
C517   C     0.89031   0.75386   0.99128   0.00000  Uiso   1.00
C518   C     0.94386   0.78911   0.01533   0.00000  Uiso   1.00
C519   C     0.03159   0.86954   0.04381   0.00000  Uiso   1.00
C520   C     0.84785   0.57250   0.04608   0.00000  Uiso   1.00
C521   C     0.76182   0.58774   0.04534   0.00000  Uiso   1.00
C522   C     0.71067   0.57093   0.07520   0.00000  Uiso   1.00
C523   C     0.63426   0.58931   0.06885   0.00000  Uiso   1.00
C524   C     0.86480   0.52306   0.01035   0.00000  Uiso   1.00
C525   C     0.90025   0.45187   0.01079   0.00000  Uiso   1.00
C526   C     0.91054   0.41580   0.97499   0.00000  Uiso   1.00
C527   C     0.88628   0.64954   0.03845   0.00000  Uiso   1.00
C528   C     0.93980   0.68468   0.06251   0.00000  Uiso   1.00
C529   C     0.96821   0.75509   0.05036   0.00000  Uiso   1.00
H530   H     0.78420   0.66146   0.95447   0.00000  Uiso   1.00
H531   H     0.64239   0.66639   0.97690   0.00000  Uiso   1.00
H532   H     0.83195   0.54735   0.91251   0.00000  Uiso   1.00
H533   H     0.87150   0.78013   0.96422   0.00000  Uiso   1.00
H534   H     0.49588   0.65684   0.01719   0.00000  Uiso   1.00
H535   H     0.89559   0.40585   0.88140   0.00000  Uiso   1.00
H536   H     0.97899   0.89671   0.99044   0.00000  Uiso   1.00
H537   H     0.86677   0.54606   0.07331   0.00000  Uiso   1.00
H538   H     0.72949   0.54465   0.10226   0.00000  Uiso   1.00
H539   H     0.91905   0.42561   0.03786   0.00000  Uiso   1.00
H540   H     0.95859   0.65838   0.08957   0.00000  Uiso   1.00
H541   H     0.56658   0.55803   0.11893   0.00000  Uiso   1.00
H542   H     0.96629   0.30704   0.98314   0.00000  Uiso   1.00
H543   H     0.04969   0.79790   0.09218   0.00000  Uiso   1.00
O544   O     0.43943   0.60857   0.08495   0.00000  Uiso   1.00
O545   O     0.96385   0.27929   0.90681   0.00000  Uiso   1.00
O546   O     0.07326   0.92328   0.04987   0.00000  Uiso   1.00
N547   N     0.53136   0.63379   0.03716   0.00000  Uiso   1.00
N548   N     0.90506   0.39913   0.91021   0.00000  Uiso   1.00
N549   N     0.98304   0.85803   0.01215   0.00000  Uiso   1.00
N550   N     0.56940   0.58062   0.09191   0.00000  Uiso   1.00
N551   N     0.94310   0.34596   0.96496   0.00000  Uiso   1.00
N552   N     0.02108   0.80486   0.06690   0.00000  Uiso   1.00
C553   C     0.13503   0.19688   0.73170   0.00000  Uiso   1.00
C554   C     0.12170   0.26248   0.76037   0.00000  Uiso   1.00
C555   C     0.14011   0.33882   0.75397   0.00000  Uiso   1.00
C556   C     0.12333   0.39008   0.78382   0.00000  Uiso   1.00
C557   C     0.10777   0.49563   0.82300   0.00000  Uiso   1.00
C558   C     0.05702   0.15950   0.72538   0.00000  Uiso   1.00
C559   C     0.02105   0.14925   0.68956   0.00000  Uiso   1.00
C560   C     0.94982   0.11380   0.68996   0.00000  Uiso   1.00
C561   C     0.83387   0.05942   0.67482   0.00000  Uiso   1.00
C562   C     0.18350   0.13802   0.75348   0.00000  Uiso   1.00
C563   C     0.25386   0.10969   0.74128   0.00000  Uiso   1.00
C564   C     0.28911   0.05614   0.76533   0.00000  Uiso   1.00
C565   C     0.36954   0.96841   0.79381   0.00000  Uiso   1.00
C566   C     0.07250   0.15215   0.79608   0.00000  Uiso   1.00
C567   C     0.08774   0.23818   0.79534   0.00000  Uiso   1.00
C568   C     0.07093   0.28933   0.82520   0.00000  Uiso   1.00
C569   C     0.08931   0.36574   0.81885   0.00000  Uiso   1.00
C570   C     0.02306   0.13520   0.76035   0.00000  Uiso   1.00
C571   C     0.95187   0.09975   0.76079   0.00000  Uiso   1.00
C572   C     0.91580   0.08946   0.72499   0.00000  Uiso   1.00
C573   C     0.14954   0.11372   0.78845   0.00000  Uiso   1.00
C574   C     0.18468   0.06020   0.81251   0.00000  Uiso   1.00
C575   C     0.25509   0.03179   0.80036   0.00000  Uiso   1.00
H576   H     0.16146   0.21580   0.70447   0.00000  Uiso   1.00
H577   H     0.16639   0.35761   0.72690   0.00000  Uiso   1.00
H578   H     0.04735   0.16805   0.66251   0.00000  Uiso   1.00
H579   H     0.28013   0.12850   0.71422   0.00000  Uiso   1.00
H580   H     0.15684   0.50412   0.76719   0.00000  Uiso   1.00
H581   H     0.90585   0.10441   0.63140   0.00000  Uiso   1.00
H582   H     0.39671   0.02101   0.74044   0.00000  Uiso   1.00
H583   H     0.04606   0.13323   0.82331   0.00000  Uiso   1.00
H584   H     0.04465   0.27051   0.85226   0.00000  Uiso   1.00
H585   H     0.92561   0.08095   0.78786   0.00000  Uiso   1.00
H586   H     0.15838   0.04141   0.83957   0.00000  Uiso   1.00
H587   H     0.05803   0.43342   0.86893   0.00000  Uiso   1.00
H588   H     0.80704   0.03371   0.73314   0.00000  Uiso   1.00
H589   H     0.29790   0.95031   0.84218   0.00000  Uiso   1.00
O590   O     0.10857   0.56057   0.83495   0.00000  Uiso   1.00
O591   O     0.77929   0.03615   0.65681   0.00000  Uiso   1.00
O592   O     0.42328   0.92674   0.79987   0.00000  Uiso   1.00
N593   N     0.13379   0.46864   0.78716   0.00000  Uiso   1.00
N594   N     0.89913   0.09494   0.66021   0.00000  Uiso   1.00
N595   N     0.35803   0.01696   0.76215   0.00000  Uiso   1.00
N596   N     0.08062   0.43060   0.84191   0.00000  Uiso   1.00
N597   N     0.84596   0.05690   0.71496   0.00000  Uiso   1.00
N598   N     0.30486   0.97892   0.81690   0.00000  Uiso   1.00
C599   C     0.63503   0.69688   0.23170   0.00000  Uiso   1.00
C600   C     0.62170   0.76248   0.26037   0.00000  Uiso   1.00
C601   C     0.64011   0.83882   0.25397   0.00000  Uiso   1.00
C602   C     0.62333   0.89008   0.28382   0.00000  Uiso   1.00
C603   C     0.60777   0.99563   0.32300   0.00000  Uiso   1.00
C604   C     0.55702   0.65950   0.22538   0.00000  Uiso   1.00
C605   C     0.52105   0.64925   0.18956   0.00000  Uiso   1.00
C606   C     0.44982   0.61380   0.18996   0.00000  Uiso   1.00
C607   C     0.33387   0.55942   0.17482   0.00000  Uiso   1.00
C608   C     0.68350   0.63802   0.25348   0.00000  Uiso   1.00
C609   C     0.75386   0.60969   0.24128   0.00000  Uiso   1.00
C610   C     0.78911   0.55614   0.26533   0.00000  Uiso   1.00
C611   C     0.86954   0.46841   0.29381   0.00000  Uiso   1.00
C612   C     0.57250   0.65215   0.29608   0.00000  Uiso   1.00
C613   C     0.58774   0.73818   0.29534   0.00000  Uiso   1.00
C614   C     0.57093   0.78933   0.32520   0.00000  Uiso   1.00
C615   C     0.58931   0.86574   0.31885   0.00000  Uiso   1.00
C616   C     0.52306   0.63520   0.26035   0.00000  Uiso   1.00
C617   C     0.45187   0.59975   0.26079   0.00000  Uiso   1.00
C618   C     0.41580   0.58946   0.22499   0.00000  Uiso   1.00
C619   C     0.64954   0.61372   0.28845   0.00000  Uiso   1.00
C620   C     0.68468   0.56020   0.31251   0.00000  Uiso   1.00
C621   C     0.75509   0.53179   0.30036   0.00000  Uiso   1.00
H622   H     0.66146   0.71580   0.20447   0.00000  Uiso   1.00
H623   H     0.66639   0.85761   0.22690   0.00000  Uiso   1.00
H624   H     0.54735   0.66805   0.16251   0.00000  Uiso   1.00
H625   H     0.78013   0.62850   0.21422   0.00000  Uiso   1.00
H626   H     0.65684   0.00412   0.26719   0.00000  Uiso   1.00
H627   H     0.40585   0.60441   0.13140   0.00000  Uiso   1.00
H628   H     0.89671   0.52101   0.24044   0.00000  Uiso   1.00
H629   H     0.54606   0.63323   0.32331   0.00000  Uiso   1.00
H630   H     0.54465   0.77051   0.35226   0.00000  Uiso   1.00
H631   H     0.42561   0.58095   0.28786   0.00000  Uiso   1.00
H632   H     0.65838   0.54141   0.33957   0.00000  Uiso   1.00
H633   H     0.55803   0.93342   0.36893   0.00000  Uiso   1.00
H634   H     0.30704   0.53371   0.23314   0.00000  Uiso   1.00
H635   H     0.79790   0.45031   0.34218   0.00000  Uiso   1.00
O636   O     0.60857   0.06057   0.33495   0.00000  Uiso   1.00
O637   O     0.27929   0.53615   0.15681   0.00000  Uiso   1.00
O638   O     0.92328   0.42674   0.29987   0.00000  Uiso   1.00
N639   N     0.63379   0.96864   0.28716   0.00000  Uiso   1.00
N640   N     0.39913   0.59494   0.16021   0.00000  Uiso   1.00
N641   N     0.85803   0.51696   0.26215   0.00000  Uiso   1.00
N642   N     0.58062   0.93060   0.34191   0.00000  Uiso   1.00
N643   N     0.34596   0.55690   0.21496   0.00000  Uiso   1.00
N644   N     0.80486   0.47892   0.31690   0.00000  Uiso   1.00
C645   C     0.36497   0.30312   0.23170   0.00000  Uiso   1.00
C646   C     0.37830   0.23752   0.26037   0.00000  Uiso   1.00
C647   C     0.35989   0.16118   0.25397   0.00000  Uiso   1.00
C648   C     0.37667   0.10992   0.28382   0.00000  Uiso   1.00
C649   C     0.39223   0.00437   0.32300   0.00000  Uiso   1.00
C650   C     0.44298   0.34050   0.22538   0.00000  Uiso   1.00
C651   C     0.47895   0.35075   0.18956   0.00000  Uiso   1.00
C652   C     0.55018   0.38620   0.18996   0.00000  Uiso   1.00
C653   C     0.66613   0.44058   0.17482   0.00000  Uiso   1.00
C654   C     0.31650   0.36198   0.25348   0.00000  Uiso   1.00
C655   C     0.24614   0.39031   0.24128   0.00000  Uiso   1.00
C656   C     0.21089   0.44386   0.26533   0.00000  Uiso   1.00
C657   C     0.13046   0.53159   0.29381   0.00000  Uiso   1.00
C658   C     0.42750   0.34785   0.29608   0.00000  Uiso   1.00
C659   C     0.41226   0.26182   0.29534   0.00000  Uiso   1.00
C660   C     0.42907   0.21067   0.32520   0.00000  Uiso   1.00
C661   C     0.41069   0.13426   0.31885   0.00000  Uiso   1.00
C662   C     0.47694   0.36480   0.26035   0.00000  Uiso   1.00
C663   C     0.54813   0.40025   0.26079   0.00000  Uiso   1.00
C664   C     0.58420   0.41054   0.22499   0.00000  Uiso   1.00
C665   C     0.35046   0.38628   0.28845   0.00000  Uiso   1.00
C666   C     0.31532   0.43980   0.31251   0.00000  Uiso   1.00
C667   C     0.24491   0.46821   0.30036   0.00000  Uiso   1.00
H668   H     0.33854   0.28420   0.20447   0.00000  Uiso   1.00
H669   H     0.33361   0.14239   0.22690   0.00000  Uiso   1.00
H670   H     0.45265   0.33195   0.16251   0.00000  Uiso   1.00
H671   H     0.21987   0.37150   0.21422   0.00000  Uiso   1.00
H672   H     0.34316   0.99588   0.26719   0.00000  Uiso   1.00
H673   H     0.59415   0.39559   0.13140   0.00000  Uiso   1.00
H674   H     0.10329   0.47899   0.24044   0.00000  Uiso   1.00
H675   H     0.45394   0.36677   0.32331   0.00000  Uiso   1.00
H676   H     0.45535   0.22949   0.35226   0.00000  Uiso   1.00
H677   H     0.57439   0.41905   0.28786   0.00000  Uiso   1.00
H678   H     0.34162   0.45859   0.33957   0.00000  Uiso   1.00
H679   H     0.44197   0.06658   0.36893   0.00000  Uiso   1.00
H680   H     0.69296   0.46629   0.23314   0.00000  Uiso   1.00
H681   H     0.20210   0.54969   0.34218   0.00000  Uiso   1.00
O682   O     0.39143   0.93943   0.33495   0.00000  Uiso   1.00
O683   O     0.72071   0.46385   0.15681   0.00000  Uiso   1.00
O684   O     0.07672   0.57326   0.29987   0.00000  Uiso   1.00
N685   N     0.36621   0.03136   0.28716   0.00000  Uiso   1.00
N686   N     0.60087   0.40506   0.16021   0.00000  Uiso   1.00
N687   N     0.14197   0.48304   0.26215   0.00000  Uiso   1.00
N688   N     0.41938   0.06940   0.34191   0.00000  Uiso   1.00
N689   N     0.65404   0.44310   0.21496   0.00000  Uiso   1.00
N690   N     0.19514   0.52108   0.31690   0.00000  Uiso   1.00
C691   C     0.86497   0.80312   0.73170   0.00000  Uiso   1.00
C692   C     0.87830   0.73752   0.76037   0.00000  Uiso   1.00
C693   C     0.85989   0.66118   0.75397   0.00000  Uiso   1.00
C694   C     0.87667   0.60992   0.78382   0.00000  Uiso   1.00
C695   C     0.89223   0.50437   0.82300   0.00000  Uiso   1.00
C696   C     0.94298   0.84050   0.72538   0.00000  Uiso   1.00
C697   C     0.97895   0.85075   0.68956   0.00000  Uiso   1.00
C698   C     0.05018   0.88620   0.68996   0.00000  Uiso   1.00
C699   C     0.16613   0.94058   0.67482   0.00000  Uiso   1.00
C700   C     0.81650   0.86198   0.75348   0.00000  Uiso   1.00
C701   C     0.74614   0.89031   0.74128   0.00000  Uiso   1.00
C702   C     0.71089   0.94386   0.76533   0.00000  Uiso   1.00
C703   C     0.63046   0.03159   0.79381   0.00000  Uiso   1.00
C704   C     0.92750   0.84785   0.79608   0.00000  Uiso   1.00
C705   C     0.91226   0.76182   0.79534   0.00000  Uiso   1.00
C706   C     0.92907   0.71067   0.82520   0.00000  Uiso   1.00
C707   C     0.91069   0.63426   0.81885   0.00000  Uiso   1.00
C708   C     0.97694   0.86480   0.76035   0.00000  Uiso   1.00
C709   C     0.04813   0.90025   0.76079   0.00000  Uiso   1.00
C710   C     0.08420   0.91054   0.72499   0.00000  Uiso   1.00
C711   C     0.85046   0.88628   0.78845   0.00000  Uiso   1.00
C712   C     0.81532   0.93980   0.81251   0.00000  Uiso   1.00
C713   C     0.74491   0.96821   0.80036   0.00000  Uiso   1.00
H714   H     0.83854   0.78420   0.70447   0.00000  Uiso   1.00
H715   H     0.83361   0.64239   0.72690   0.00000  Uiso   1.00
H716   H     0.95265   0.83195   0.66251   0.00000  Uiso   1.00
H717   H     0.71987   0.87150   0.71422   0.00000  Uiso   1.00
H718   H     0.84316   0.49588   0.76719   0.00000  Uiso   1.00
H719   H     0.09415   0.89559   0.63140   0.00000  Uiso   1.00
H720   H     0.60329   0.97899   0.74044   0.00000  Uiso   1.00
H721   H     0.95394   0.86677   0.82331   0.00000  Uiso   1.00
H722   H     0.95535   0.72949   0.85226   0.00000  Uiso   1.00
H723   H     0.07439   0.91905   0.78786   0.00000  Uiso   1.00
H724   H     0.84162   0.95859   0.83957   0.00000  Uiso   1.00
H725   H     0.94197   0.56658   0.86893   0.00000  Uiso   1.00
H726   H     0.19296   0.96629   0.73314   0.00000  Uiso   1.00
H727   H     0.70210   0.04969   0.84218   0.00000  Uiso   1.00
O728   O     0.89143   0.43943   0.83495   0.00000  Uiso   1.00
O729   O     0.22071   0.96385   0.65681   0.00000  Uiso   1.00
O730   O     0.57672   0.07326   0.79987   0.00000  Uiso   1.00
N731   N     0.86621   0.53136   0.78716   0.00000  Uiso   1.00
N732   N     0.10087   0.90506   0.66021   0.00000  Uiso   1.00
N733   N     0.64197   0.98304   0.76215   0.00000  Uiso   1.00
N734   N     0.91938   0.56940   0.84191   0.00000  Uiso   1.00
N735   N     0.15404   0.94310   0.71496   0.00000  Uiso   1.00
N736   N     0.69514   0.02108   0.81690   0.00000  Uiso   1.00
