data_job_03451
_audit_creation_date              2018-12-19
_audit_creation_method            'Materials Studio'
_symmetry_space_group_name_H-M    'P1'
_symmetry_Int_Tables_number       1
_symmetry_cell_setting            triclinic
loop_
_symmetry_equiv_pos_as_xyz
  x,y,z
_cell_length_a                    20.1432
_cell_length_b                    20.1432
_cell_length_c                    35.8304
_cell_angle_alpha                 90.0000
_cell_angle_beta                  90.0000
_cell_angle_gamma                 90.0000
loop_
_atom_site_label
_atom_site_type_symbol
_atom_site_fract_x
_atom_site_fract_y
_atom_site_fract_z
_atom_site_U_iso_or_equiv
_atom_site_adp_type
_atom_site_occupancy
C1     C     0.33480   0.21815   0.71942   0.00000  Uiso   1.00
C2     C     0.28310   0.27337   0.72113   0.00000  Uiso   1.00
C3     C     0.29646   0.34088   0.72288   0.00000  Uiso   1.00
C4     C     0.24228   0.38341   0.72427   0.00000  Uiso   1.00
C5     C     0.17191   0.47282   0.72699   0.00000  Uiso   1.00
C6     C     0.32002   0.17243   0.75231   0.00000  Uiso   1.00
C7     C     0.36445   0.15507   0.78026   0.00000  Uiso   1.00
C8     C     0.34135   0.11261   0.80789   0.00000  Uiso   1.00
C9     C     0.32833   0.04527   0.85901   0.00000  Uiso   1.00
C10    C     0.31905   0.17815   0.68439   0.00000  Uiso   1.00
C11    C     0.36265   0.16558   0.65525   0.00000  Uiso   1.00
C12    C     0.33874   0.12794   0.62570   0.00000  Uiso   1.00
C13    C     0.32420   0.06948   0.57137   0.00000  Uiso   1.00
C14    C     0.21480   0.17362   0.71878   0.00000  Uiso   1.00
C15    C     0.21792   0.24918   0.72079   0.00000  Uiso   1.00
C16    C     0.16370   0.29161   0.72217   0.00000  Uiso   1.00
C17    C     0.17698   0.35918   0.72392   0.00000  Uiso   1.00
C18    C     0.25485   0.14824   0.75196   0.00000  Uiso   1.00
C19    C     0.23168   0.10580   0.77956   0.00000  Uiso   1.00
C20    C     0.27605   0.08838   0.80755   0.00000  Uiso   1.00
C21    C     0.25387   0.15396   0.68405   0.00000  Uiso   1.00
C22    C     0.22988   0.11632   0.65454   0.00000  Uiso   1.00
C23    C     0.27344   0.10370   0.62536   0.00000  Uiso   1.00
H24    H     0.38554   0.23698   0.71970   0.00000  Uiso   1.00
H25    H     0.34691   0.35958   0.72315   0.00000  Uiso   1.00
H26    H     0.41488   0.17379   0.78052   0.00000  Uiso   1.00
H27    H     0.41308   0.18431   0.65553   0.00000  Uiso   1.00
H28    H     0.27533   0.48484   0.72684   0.00000  Uiso   1.00
H29    H     0.41866   0.09306   0.84781   0.00000  Uiso   1.00
H30    H     0.41488   0.11525   0.58423   0.00000  Uiso   1.00
H31    H     0.16406   0.15479   0.71851   0.00000  Uiso   1.00
H32    H     0.11327   0.27288   0.72190   0.00000  Uiso   1.00
H33    H     0.18124   0.08709   0.77928   0.00000  Uiso   1.00
H34    H     0.17944   0.09761   0.65428   0.00000  Uiso   1.00
H35    H     0.08570   0.41447   0.72583   0.00000  Uiso   1.00
H36    H     0.22903   0.02269   0.84680   0.00000  Uiso   1.00
H37    H     0.22524   0.04488   0.58322   0.00000  Uiso   1.00
O38    O     0.15110   0.52882   0.72859   0.00000  Uiso   1.00
O39    O     0.33915   0.01482   0.88730   0.00000  Uiso   1.00
O40    O     0.33418   0.04393   0.54149   0.00000  Uiso   1.00
N41    N     0.23767   0.45207   0.72613   0.00000  Uiso   1.00
N42    N     0.37168   0.08579   0.83923   0.00000  Uiso   1.00
N43    N     0.36814   0.10652   0.59281   0.00000  Uiso   1.00
N44    N     0.13563   0.41421   0.72558   0.00000  Uiso   1.00
N45    N     0.26964   0.04793   0.83869   0.00000  Uiso   1.00
N46    N     0.26610   0.06866   0.59227   0.00000  Uiso   1.00
C47    C     0.83480   0.71815   0.21942   0.00000  Uiso   1.00
C48    C     0.78310   0.77337   0.22113   0.00000  Uiso   1.00
C49    C     0.79646   0.84088   0.22288   0.00000  Uiso   1.00
C50    C     0.74228   0.88341   0.22427   0.00000  Uiso   1.00
C51    C     0.67191   0.97282   0.22699   0.00000  Uiso   1.00
C52    C     0.82002   0.67243   0.25231   0.00000  Uiso   1.00
C53    C     0.86445   0.65507   0.28026   0.00000  Uiso   1.00
C54    C     0.84135   0.61261   0.30789   0.00000  Uiso   1.00
C55    C     0.82833   0.54527   0.35901   0.00000  Uiso   1.00
C56    C     0.81905   0.67815   0.18439   0.00000  Uiso   1.00
C57    C     0.86265   0.66558   0.15525   0.00000  Uiso   1.00
C58    C     0.83874   0.62794   0.12570   0.00000  Uiso   1.00
C59    C     0.82420   0.56948   0.07137   0.00000  Uiso   1.00
C60    C     0.71480   0.67362   0.21878   0.00000  Uiso   1.00
C61    C     0.71792   0.74918   0.22079   0.00000  Uiso   1.00
C62    C     0.66370   0.79161   0.22217   0.00000  Uiso   1.00
C63    C     0.67698   0.85918   0.22392   0.00000  Uiso   1.00
C64    C     0.75485   0.64824   0.25196   0.00000  Uiso   1.00
C65    C     0.73168   0.60580   0.27956   0.00000  Uiso   1.00
C66    C     0.77605   0.58838   0.30755   0.00000  Uiso   1.00
C67    C     0.75387   0.65396   0.18405   0.00000  Uiso   1.00
C68    C     0.72988   0.61632   0.15454   0.00000  Uiso   1.00
C69    C     0.77344   0.60370   0.12536   0.00000  Uiso   1.00
H70    H     0.88554   0.73698   0.21970   0.00000  Uiso   1.00
H71    H     0.84691   0.85958   0.22315   0.00000  Uiso   1.00
H72    H     0.91488   0.67379   0.28052   0.00000  Uiso   1.00
H73    H     0.91308   0.68431   0.15553   0.00000  Uiso   1.00
H74    H     0.77533   0.98484   0.22684   0.00000  Uiso   1.00
H75    H     0.91866   0.59306   0.34781   0.00000  Uiso   1.00
H76    H     0.91488   0.61525   0.08423   0.00000  Uiso   1.00
H77    H     0.66406   0.65479   0.21851   0.00000  Uiso   1.00
H78    H     0.61327   0.77288   0.22190   0.00000  Uiso   1.00
H79    H     0.68124   0.58709   0.27928   0.00000  Uiso   1.00
H80    H     0.67944   0.59761   0.15428   0.00000  Uiso   1.00
H81    H     0.58570   0.91447   0.22583   0.00000  Uiso   1.00
H82    H     0.72903   0.52269   0.34680   0.00000  Uiso   1.00
H83    H     0.72524   0.54488   0.08322   0.00000  Uiso   1.00
O84    O     0.65110   0.02882   0.22859   0.00000  Uiso   1.00
O85    O     0.83915   0.51482   0.38730   0.00000  Uiso   1.00
O86    O     0.83418   0.54393   0.04149   0.00000  Uiso   1.00
N87    N     0.73767   0.95207   0.22613   0.00000  Uiso   1.00
N88    N     0.87168   0.58579   0.33923   0.00000  Uiso   1.00
N89    N     0.86814   0.60652   0.09281   0.00000  Uiso   1.00
N90    N     0.63563   0.91421   0.22558   0.00000  Uiso   1.00
N91    N     0.76964   0.54793   0.33869   0.00000  Uiso   1.00
N92    N     0.76610   0.56866   0.09227   0.00000  Uiso   1.00
C93    C     0.16520   0.28185   0.21942   0.00000  Uiso   1.00
C94    C     0.21690   0.22663   0.22113   0.00000  Uiso   1.00
C95    C     0.20354   0.15912   0.22288   0.00000  Uiso   1.00
C96    C     0.25772   0.11659   0.22427   0.00000  Uiso   1.00
C97    C     0.32809   0.02718   0.22699   0.00000  Uiso   1.00
C98    C     0.17998   0.32757   0.25231   0.00000  Uiso   1.00
C99    C     0.13555   0.34493   0.28026   0.00000  Uiso   1.00
C100   C     0.15865   0.38739   0.30789   0.00000  Uiso   1.00
C101   C     0.17167   0.45473   0.35901   0.00000  Uiso   1.00
C102   C     0.18095   0.32185   0.18439   0.00000  Uiso   1.00
C103   C     0.13735   0.33442   0.15525   0.00000  Uiso   1.00
C104   C     0.16126   0.37206   0.12570   0.00000  Uiso   1.00
C105   C     0.17580   0.43052   0.07137   0.00000  Uiso   1.00
C106   C     0.28520   0.32638   0.21878   0.00000  Uiso   1.00
C107   C     0.28208   0.25082   0.22079   0.00000  Uiso   1.00
C108   C     0.33630   0.20839   0.22217   0.00000  Uiso   1.00
C109   C     0.32302   0.14082   0.22392   0.00000  Uiso   1.00
C110   C     0.24515   0.35176   0.25196   0.00000  Uiso   1.00
C111   C     0.26832   0.39420   0.27956   0.00000  Uiso   1.00
C112   C     0.22395   0.41162   0.30755   0.00000  Uiso   1.00
C113   C     0.24613   0.34604   0.18405   0.00000  Uiso   1.00
C114   C     0.27012   0.38368   0.15454   0.00000  Uiso   1.00
C115   C     0.22656   0.39630   0.12536   0.00000  Uiso   1.00
H116   H     0.11446   0.26302   0.21970   0.00000  Uiso   1.00
H117   H     0.15309   0.14042   0.22315   0.00000  Uiso   1.00
H118   H     0.08512   0.32621   0.28052   0.00000  Uiso   1.00
H119   H     0.08692   0.31569   0.15553   0.00000  Uiso   1.00
H120   H     0.22467   0.01516   0.22684   0.00000  Uiso   1.00
H121   H     0.08134   0.40694   0.34781   0.00000  Uiso   1.00
H122   H     0.08512   0.38475   0.08423   0.00000  Uiso   1.00
H123   H     0.33594   0.34521   0.21851   0.00000  Uiso   1.00
H124   H     0.38673   0.22712   0.22190   0.00000  Uiso   1.00
H125   H     0.31876   0.41291   0.27928   0.00000  Uiso   1.00
H126   H     0.32056   0.40239   0.15428   0.00000  Uiso   1.00
H127   H     0.41430   0.08553   0.22583   0.00000  Uiso   1.00
H128   H     0.27097   0.47731   0.34680   0.00000  Uiso   1.00
H129   H     0.27476   0.45512   0.08322   0.00000  Uiso   1.00
O130   O     0.34890   0.97118   0.22859   0.00000  Uiso   1.00
O131   O     0.16085   0.48518   0.38730   0.00000  Uiso   1.00
O132   O     0.16582   0.45607   0.04149   0.00000  Uiso   1.00
N133   N     0.26233   0.04793   0.22613   0.00000  Uiso   1.00
N134   N     0.12832   0.41421   0.33923   0.00000  Uiso   1.00
N135   N     0.13186   0.39348   0.09281   0.00000  Uiso   1.00
N136   N     0.36437   0.08579   0.22558   0.00000  Uiso   1.00
N137   N     0.23036   0.45207   0.33869   0.00000  Uiso   1.00
N138   N     0.23390   0.43134   0.09227   0.00000  Uiso   1.00
C139   C     0.66520   0.78185   0.71942   0.00000  Uiso   1.00
C140   C     0.71690   0.72663   0.72113   0.00000  Uiso   1.00
C141   C     0.70354   0.65912   0.72288   0.00000  Uiso   1.00
C142   C     0.75772   0.61659   0.72427   0.00000  Uiso   1.00
C143   C     0.82809   0.52718   0.72699   0.00000  Uiso   1.00
C144   C     0.67998   0.82757   0.75231   0.00000  Uiso   1.00
C145   C     0.63555   0.84493   0.78026   0.00000  Uiso   1.00
C146   C     0.65865   0.88739   0.80789   0.00000  Uiso   1.00
C147   C     0.67167   0.95473   0.85901   0.00000  Uiso   1.00
C148   C     0.68095   0.82185   0.68439   0.00000  Uiso   1.00
C149   C     0.63735   0.83442   0.65525   0.00000  Uiso   1.00
C150   C     0.66126   0.87206   0.62570   0.00000  Uiso   1.00
C151   C     0.67580   0.93052   0.57137   0.00000  Uiso   1.00
C152   C     0.78520   0.82638   0.71878   0.00000  Uiso   1.00
C153   C     0.78208   0.75082   0.72079   0.00000  Uiso   1.00
C154   C     0.83630   0.70839   0.72217   0.00000  Uiso   1.00
C155   C     0.82302   0.64082   0.72392   0.00000  Uiso   1.00
C156   C     0.74515   0.85176   0.75196   0.00000  Uiso   1.00
C157   C     0.76832   0.89420   0.77956   0.00000  Uiso   1.00
C158   C     0.72395   0.91162   0.80755   0.00000  Uiso   1.00
C159   C     0.74613   0.84604   0.68405   0.00000  Uiso   1.00
C160   C     0.77012   0.88368   0.65454   0.00000  Uiso   1.00
C161   C     0.72656   0.89630   0.62536   0.00000  Uiso   1.00
H162   H     0.61446   0.76302   0.71970   0.00000  Uiso   1.00
H163   H     0.65309   0.64042   0.72315   0.00000  Uiso   1.00
H164   H     0.58512   0.82621   0.78052   0.00000  Uiso   1.00
H165   H     0.58692   0.81569   0.65553   0.00000  Uiso   1.00
H166   H     0.72467   0.51516   0.72684   0.00000  Uiso   1.00
H167   H     0.58134   0.90694   0.84781   0.00000  Uiso   1.00
H168   H     0.58512   0.88475   0.58423   0.00000  Uiso   1.00
H169   H     0.83594   0.84521   0.71851   0.00000  Uiso   1.00
H170   H     0.88673   0.72712   0.72190   0.00000  Uiso   1.00
H171   H     0.81876   0.91291   0.77928   0.00000  Uiso   1.00
H172   H     0.82056   0.90239   0.65428   0.00000  Uiso   1.00
H173   H     0.91430   0.58553   0.72583   0.00000  Uiso   1.00
H174   H     0.77097   0.97731   0.84680   0.00000  Uiso   1.00
H175   H     0.77476   0.95512   0.58322   0.00000  Uiso   1.00
O176   O     0.84890   0.47118   0.72859   0.00000  Uiso   1.00
O177   O     0.66085   0.98518   0.88730   0.00000  Uiso   1.00
O178   O     0.66582   0.95607   0.54149   0.00000  Uiso   1.00
N179   N     0.76233   0.54793   0.72613   0.00000  Uiso   1.00
N180   N     0.62832   0.91421   0.83923   0.00000  Uiso   1.00
N181   N     0.63186   0.89348   0.59281   0.00000  Uiso   1.00
N182   N     0.86437   0.58579   0.72558   0.00000  Uiso   1.00
N183   N     0.73036   0.95207   0.83869   0.00000  Uiso   1.00
N184   N     0.73390   0.93134   0.59227   0.00000  Uiso   1.00
C185   C     0.78185   0.83480   0.96942   0.00000  Uiso   1.00
C186   C     0.72663   0.78310   0.97113   0.00000  Uiso   1.00
C187   C     0.65912   0.79646   0.97288   0.00000  Uiso   1.00
C188   C     0.61659   0.74228   0.97427   0.00000  Uiso   1.00
C189   C     0.52718   0.67191   0.97699   0.00000  Uiso   1.00
C190   C     0.82757   0.82002   0.00231   0.00000  Uiso   1.00
C191   C     0.84493   0.86445   0.03026   0.00000  Uiso   1.00
C192   C     0.88739   0.84135   0.05789   0.00000  Uiso   1.00
C193   C     0.95473   0.82833   0.10901   0.00000  Uiso   1.00
C194   C     0.82185   0.81905   0.93439   0.00000  Uiso   1.00
C195   C     0.83442   0.86265   0.90525   0.00000  Uiso   1.00
C196   C     0.87206   0.83874   0.87570   0.00000  Uiso   1.00
C197   C     0.93052   0.82420   0.82137   0.00000  Uiso   1.00
C198   C     0.82638   0.71480   0.96878   0.00000  Uiso   1.00
C199   C     0.75082   0.71792   0.97079   0.00000  Uiso   1.00
C200   C     0.70839   0.66370   0.97217   0.00000  Uiso   1.00
C201   C     0.64082   0.67698   0.97392   0.00000  Uiso   1.00
C202   C     0.85176   0.75485   0.00196   0.00000  Uiso   1.00
C203   C     0.89420   0.73168   0.02956   0.00000  Uiso   1.00
C204   C     0.91162   0.77605   0.05755   0.00000  Uiso   1.00
C205   C     0.84604   0.75387   0.93405   0.00000  Uiso   1.00
C206   C     0.88368   0.72988   0.90454   0.00000  Uiso   1.00
C207   C     0.89630   0.77344   0.87536   0.00000  Uiso   1.00
H208   H     0.76302   0.88554   0.96970   0.00000  Uiso   1.00
H209   H     0.64042   0.84691   0.97315   0.00000  Uiso   1.00
H210   H     0.82621   0.91488   0.03052   0.00000  Uiso   1.00
H211   H     0.81569   0.91308   0.90553   0.00000  Uiso   1.00
H212   H     0.51516   0.77533   0.97684   0.00000  Uiso   1.00
H213   H     0.90694   0.91866   0.09781   0.00000  Uiso   1.00
H214   H     0.88475   0.91488   0.83423   0.00000  Uiso   1.00
H215   H     0.84521   0.66406   0.96851   0.00000  Uiso   1.00
H216   H     0.72712   0.61327   0.97190   0.00000  Uiso   1.00
H217   H     0.91291   0.68124   0.02928   0.00000  Uiso   1.00
H218   H     0.90239   0.67944   0.90428   0.00000  Uiso   1.00
H219   H     0.58553   0.58570   0.97583   0.00000  Uiso   1.00
H220   H     0.97731   0.72903   0.09680   0.00000  Uiso   1.00
H221   H     0.95512   0.72524   0.83322   0.00000  Uiso   1.00
O222   O     0.47118   0.65110   0.97859   0.00000  Uiso   1.00
O223   O     0.98518   0.83915   0.13730   0.00000  Uiso   1.00
O224   O     0.95607   0.83418   0.79149   0.00000  Uiso   1.00
N225   N     0.54793   0.73767   0.97613   0.00000  Uiso   1.00
N226   N     0.91421   0.87168   0.08923   0.00000  Uiso   1.00
N227   N     0.89348   0.86814   0.84281   0.00000  Uiso   1.00
N228   N     0.58579   0.63563   0.97558   0.00000  Uiso   1.00
N229   N     0.95207   0.76964   0.08869   0.00000  Uiso   1.00
N230   N     0.93134   0.76610   0.84227   0.00000  Uiso   1.00
C231   C     0.28185   0.33480   0.46942   0.00000  Uiso   1.00
C232   C     0.22663   0.28310   0.47113   0.00000  Uiso   1.00
C233   C     0.15912   0.29646   0.47288   0.00000  Uiso   1.00
C234   C     0.11659   0.24228   0.47427   0.00000  Uiso   1.00
C235   C     0.02718   0.17191   0.47699   0.00000  Uiso   1.00
C236   C     0.32757   0.32002   0.50231   0.00000  Uiso   1.00
C237   C     0.34493   0.36445   0.53026   0.00000  Uiso   1.00
C238   C     0.38739   0.34135   0.55789   0.00000  Uiso   1.00
C239   C     0.45473   0.32833   0.60901   0.00000  Uiso   1.00
C240   C     0.32185   0.31905   0.43439   0.00000  Uiso   1.00
C241   C     0.33442   0.36265   0.40525   0.00000  Uiso   1.00
C242   C     0.37206   0.33874   0.37570   0.00000  Uiso   1.00
C243   C     0.43052   0.32420   0.32137   0.00000  Uiso   1.00
C244   C     0.32638   0.21480   0.46878   0.00000  Uiso   1.00
C245   C     0.25082   0.21792   0.47079   0.00000  Uiso   1.00
C246   C     0.20839   0.16370   0.47217   0.00000  Uiso   1.00
C247   C     0.14082   0.17698   0.47392   0.00000  Uiso   1.00
C248   C     0.35176   0.25485   0.50196   0.00000  Uiso   1.00
C249   C     0.39420   0.23168   0.52956   0.00000  Uiso   1.00
C250   C     0.41162   0.27605   0.55755   0.00000  Uiso   1.00
C251   C     0.34604   0.25387   0.43405   0.00000  Uiso   1.00
C252   C     0.38368   0.22988   0.40454   0.00000  Uiso   1.00
C253   C     0.39630   0.27344   0.37536   0.00000  Uiso   1.00
H254   H     0.26302   0.38554   0.46970   0.00000  Uiso   1.00
H255   H     0.14042   0.34691   0.47315   0.00000  Uiso   1.00
H256   H     0.32621   0.41488   0.53052   0.00000  Uiso   1.00
H257   H     0.31569   0.41308   0.40553   0.00000  Uiso   1.00
H258   H     0.01516   0.27533   0.47684   0.00000  Uiso   1.00
H259   H     0.40694   0.41866   0.59781   0.00000  Uiso   1.00
H260   H     0.38475   0.41488   0.33423   0.00000  Uiso   1.00
H261   H     0.34521   0.16406   0.46851   0.00000  Uiso   1.00
H262   H     0.22712   0.11327   0.47190   0.00000  Uiso   1.00
H263   H     0.41291   0.18124   0.52928   0.00000  Uiso   1.00
H264   H     0.40239   0.17944   0.40428   0.00000  Uiso   1.00
H265   H     0.08553   0.08570   0.47583   0.00000  Uiso   1.00
H266   H     0.47731   0.22903   0.59680   0.00000  Uiso   1.00
H267   H     0.45512   0.22524   0.33322   0.00000  Uiso   1.00
O268   O     0.97118   0.15110   0.47859   0.00000  Uiso   1.00
O269   O     0.48518   0.33915   0.63730   0.00000  Uiso   1.00
O270   O     0.45607   0.33418   0.29149   0.00000  Uiso   1.00
N271   N     0.04793   0.23767   0.47613   0.00000  Uiso   1.00
N272   N     0.41421   0.37168   0.58923   0.00000  Uiso   1.00
N273   N     0.39348   0.36814   0.34281   0.00000  Uiso   1.00
N274   N     0.08579   0.13563   0.47558   0.00000  Uiso   1.00
N275   N     0.45207   0.26964   0.58869   0.00000  Uiso   1.00
N276   N     0.43134   0.26610   0.34227   0.00000  Uiso   1.00
C277   C     0.71815   0.66520   0.46942   0.00000  Uiso   1.00
C278   C     0.77337   0.71690   0.47113   0.00000  Uiso   1.00
C279   C     0.84088   0.70354   0.47288   0.00000  Uiso   1.00
C280   C     0.88341   0.75772   0.47427   0.00000  Uiso   1.00
C281   C     0.97282   0.82809   0.47699   0.00000  Uiso   1.00
C282   C     0.67243   0.67998   0.50231   0.00000  Uiso   1.00
C283   C     0.65507   0.63555   0.53026   0.00000  Uiso   1.00
C284   C     0.61261   0.65865   0.55789   0.00000  Uiso   1.00
C285   C     0.54527   0.67167   0.60901   0.00000  Uiso   1.00
C286   C     0.67815   0.68095   0.43439   0.00000  Uiso   1.00
C287   C     0.66558   0.63735   0.40525   0.00000  Uiso   1.00
C288   C     0.62794   0.66126   0.37570   0.00000  Uiso   1.00
C289   C     0.56948   0.67580   0.32137   0.00000  Uiso   1.00
C290   C     0.67362   0.78520   0.46878   0.00000  Uiso   1.00
C291   C     0.74918   0.78208   0.47079   0.00000  Uiso   1.00
C292   C     0.79161   0.83630   0.47217   0.00000  Uiso   1.00
C293   C     0.85918   0.82302   0.47392   0.00000  Uiso   1.00
C294   C     0.64824   0.74515   0.50196   0.00000  Uiso   1.00
C295   C     0.60580   0.76832   0.52956   0.00000  Uiso   1.00
C296   C     0.58838   0.72395   0.55755   0.00000  Uiso   1.00
C297   C     0.65396   0.74613   0.43405   0.00000  Uiso   1.00
C298   C     0.61632   0.77012   0.40454   0.00000  Uiso   1.00
C299   C     0.60370   0.72656   0.37536   0.00000  Uiso   1.00
H300   H     0.73698   0.61446   0.46970   0.00000  Uiso   1.00
H301   H     0.85958   0.65309   0.47315   0.00000  Uiso   1.00
H302   H     0.67379   0.58512   0.53052   0.00000  Uiso   1.00
H303   H     0.68431   0.58692   0.40553   0.00000  Uiso   1.00
H304   H     0.98484   0.72467   0.47684   0.00000  Uiso   1.00
H305   H     0.59306   0.58134   0.59781   0.00000  Uiso   1.00
H306   H     0.61525   0.58512   0.33423   0.00000  Uiso   1.00
H307   H     0.65479   0.83594   0.46851   0.00000  Uiso   1.00
H308   H     0.77288   0.88673   0.47190   0.00000  Uiso   1.00
H309   H     0.58709   0.81876   0.52928   0.00000  Uiso   1.00
H310   H     0.59761   0.82056   0.40428   0.00000  Uiso   1.00
H311   H     0.91447   0.91430   0.47583   0.00000  Uiso   1.00
H312   H     0.52269   0.77097   0.59680   0.00000  Uiso   1.00
H313   H     0.54488   0.77476   0.33322   0.00000  Uiso   1.00
O314   O     0.02882   0.84890   0.47859   0.00000  Uiso   1.00
O315   O     0.51482   0.66085   0.63730   0.00000  Uiso   1.00
O316   O     0.54393   0.66582   0.29149   0.00000  Uiso   1.00
N317   N     0.95207   0.76233   0.47613   0.00000  Uiso   1.00
N318   N     0.58579   0.62832   0.58923   0.00000  Uiso   1.00
N319   N     0.60652   0.63186   0.34281   0.00000  Uiso   1.00
N320   N     0.91421   0.86437   0.47558   0.00000  Uiso   1.00
N321   N     0.54793   0.73036   0.58869   0.00000  Uiso   1.00
N322   N     0.56866   0.73390   0.34227   0.00000  Uiso   1.00
C323   C     0.21815   0.16520   0.96942   0.00000  Uiso   1.00
C324   C     0.27337   0.21690   0.97113   0.00000  Uiso   1.00
C325   C     0.34088   0.20354   0.97288   0.00000  Uiso   1.00
C326   C     0.38341   0.25772   0.97427   0.00000  Uiso   1.00
C327   C     0.47282   0.32809   0.97699   0.00000  Uiso   1.00
C328   C     0.17243   0.17998   0.00231   0.00000  Uiso   1.00
C329   C     0.15507   0.13555   0.03026   0.00000  Uiso   1.00
C330   C     0.11261   0.15865   0.05789   0.00000  Uiso   1.00
C331   C     0.04527   0.17167   0.10901   0.00000  Uiso   1.00
C332   C     0.17815   0.18095   0.93439   0.00000  Uiso   1.00
C333   C     0.16558   0.13735   0.90525   0.00000  Uiso   1.00
C334   C     0.12794   0.16126   0.87570   0.00000  Uiso   1.00
C335   C     0.06948   0.17580   0.82137   0.00000  Uiso   1.00
C336   C     0.17362   0.28520   0.96878   0.00000  Uiso   1.00
C337   C     0.24918   0.28208   0.97079   0.00000  Uiso   1.00
C338   C     0.29161   0.33630   0.97217   0.00000  Uiso   1.00
C339   C     0.35918   0.32302   0.97392   0.00000  Uiso   1.00
C340   C     0.14824   0.24515   0.00196   0.00000  Uiso   1.00
C341   C     0.10580   0.26832   0.02956   0.00000  Uiso   1.00
C342   C     0.08838   0.22395   0.05755   0.00000  Uiso   1.00
C343   C     0.15396   0.24613   0.93405   0.00000  Uiso   1.00
C344   C     0.11632   0.27012   0.90454   0.00000  Uiso   1.00
C345   C     0.10370   0.22656   0.87536   0.00000  Uiso   1.00
H346   H     0.23698   0.11446   0.96970   0.00000  Uiso   1.00
H347   H     0.35958   0.15309   0.97315   0.00000  Uiso   1.00
H348   H     0.17379   0.08512   0.03052   0.00000  Uiso   1.00
H349   H     0.18431   0.08692   0.90553   0.00000  Uiso   1.00
H350   H     0.48484   0.22467   0.97684   0.00000  Uiso   1.00
H351   H     0.09306   0.08134   0.09781   0.00000  Uiso   1.00
H352   H     0.11525   0.08512   0.83423   0.00000  Uiso   1.00
H353   H     0.15479   0.33594   0.96851   0.00000  Uiso   1.00
H354   H     0.27288   0.38673   0.97190   0.00000  Uiso   1.00
H355   H     0.08709   0.31876   0.02928   0.00000  Uiso   1.00
H356   H     0.09761   0.32056   0.90428   0.00000  Uiso   1.00
H357   H     0.41447   0.41430   0.97583   0.00000  Uiso   1.00
H358   H     0.02269   0.27097   0.09680   0.00000  Uiso   1.00
H359   H     0.04488   0.27476   0.83322   0.00000  Uiso   1.00
O360   O     0.52882   0.34890   0.97859   0.00000  Uiso   1.00
O361   O     0.01482   0.16085   0.13730   0.00000  Uiso   1.00
O362   O     0.04393   0.16582   0.79149   0.00000  Uiso   1.00
N363   N     0.45207   0.26233   0.97613   0.00000  Uiso   1.00
N364   N     0.08579   0.12832   0.08923   0.00000  Uiso   1.00
N365   N     0.10652   0.13186   0.84281   0.00000  Uiso   1.00
N366   N     0.41421   0.36437   0.97558   0.00000  Uiso   1.00
N367   N     0.04793   0.23036   0.08869   0.00000  Uiso   1.00
N368   N     0.06866   0.23390   0.84227   0.00000  Uiso   1.00
C369   C     0.66520   0.28185   0.53058   0.00000  Uiso   1.00
C370   C     0.71690   0.22663   0.52887   0.00000  Uiso   1.00
C371   C     0.70354   0.15912   0.52712   0.00000  Uiso   1.00
C372   C     0.75772   0.11659   0.52573   0.00000  Uiso   1.00
C373   C     0.82809   0.02718   0.52301   0.00000  Uiso   1.00
C374   C     0.67998   0.32757   0.49769   0.00000  Uiso   1.00
C375   C     0.63555   0.34493   0.46974   0.00000  Uiso   1.00
C376   C     0.65865   0.38739   0.44211   0.00000  Uiso   1.00
C377   C     0.67167   0.45473   0.39099   0.00000  Uiso   1.00
C378   C     0.68095   0.32185   0.56561   0.00000  Uiso   1.00
C379   C     0.63735   0.33442   0.59475   0.00000  Uiso   1.00
C380   C     0.66126   0.37206   0.62430   0.00000  Uiso   1.00
C381   C     0.67580   0.43052   0.67863   0.00000  Uiso   1.00
C382   C     0.78520   0.32638   0.53122   0.00000  Uiso   1.00
C383   C     0.78208   0.25082   0.52921   0.00000  Uiso   1.00
C384   C     0.83630   0.20839   0.52783   0.00000  Uiso   1.00
C385   C     0.82302   0.14082   0.52608   0.00000  Uiso   1.00
C386   C     0.74515   0.35176   0.49804   0.00000  Uiso   1.00
C387   C     0.76832   0.39420   0.47044   0.00000  Uiso   1.00
C388   C     0.72395   0.41162   0.44245   0.00000  Uiso   1.00
C389   C     0.74613   0.34604   0.56595   0.00000  Uiso   1.00
C390   C     0.77012   0.38368   0.59546   0.00000  Uiso   1.00
C391   C     0.72656   0.39630   0.62464   0.00000  Uiso   1.00
H392   H     0.61446   0.26302   0.53030   0.00000  Uiso   1.00
H393   H     0.65309   0.14042   0.52685   0.00000  Uiso   1.00
H394   H     0.58512   0.32621   0.46948   0.00000  Uiso   1.00
H395   H     0.58692   0.31569   0.59447   0.00000  Uiso   1.00
H396   H     0.72467   0.01516   0.52316   0.00000  Uiso   1.00
H397   H     0.58134   0.40694   0.40219   0.00000  Uiso   1.00
H398   H     0.58512   0.38475   0.66577   0.00000  Uiso   1.00
H399   H     0.83594   0.34521   0.53149   0.00000  Uiso   1.00
H400   H     0.88673   0.22712   0.52810   0.00000  Uiso   1.00
H401   H     0.81876   0.41291   0.47072   0.00000  Uiso   1.00
H402   H     0.82056   0.40239   0.59572   0.00000  Uiso   1.00
H403   H     0.91430   0.08553   0.52417   0.00000  Uiso   1.00
H404   H     0.77097   0.47731   0.40320   0.00000  Uiso   1.00
H405   H     0.77476   0.45512   0.66678   0.00000  Uiso   1.00
O406   O     0.84890   0.97118   0.52141   0.00000  Uiso   1.00
O407   O     0.66085   0.48518   0.36270   0.00000  Uiso   1.00
O408   O     0.66582   0.45607   0.70851   0.00000  Uiso   1.00
N409   N     0.76233   0.04793   0.52387   0.00000  Uiso   1.00
N410   N     0.62832   0.41421   0.41077   0.00000  Uiso   1.00
N411   N     0.63186   0.39348   0.65719   0.00000  Uiso   1.00
N412   N     0.86437   0.08579   0.52442   0.00000  Uiso   1.00
N413   N     0.73036   0.45207   0.41131   0.00000  Uiso   1.00
N414   N     0.73390   0.43134   0.65773   0.00000  Uiso   1.00
C415   C     0.16520   0.78185   0.03058   0.00000  Uiso   1.00
C416   C     0.21690   0.72663   0.02887   0.00000  Uiso   1.00
C417   C     0.20354   0.65912   0.02712   0.00000  Uiso   1.00
C418   C     0.25772   0.61659   0.02573   0.00000  Uiso   1.00
C419   C     0.32809   0.52718   0.02301   0.00000  Uiso   1.00
C420   C     0.17998   0.82757   0.99769   0.00000  Uiso   1.00
C421   C     0.13555   0.84493   0.96974   0.00000  Uiso   1.00
C422   C     0.15865   0.88739   0.94211   0.00000  Uiso   1.00
C423   C     0.17167   0.95473   0.89099   0.00000  Uiso   1.00
C424   C     0.18095   0.82185   0.06561   0.00000  Uiso   1.00
C425   C     0.13735   0.83442   0.09475   0.00000  Uiso   1.00
C426   C     0.16126   0.87206   0.12430   0.00000  Uiso   1.00
C427   C     0.17580   0.93052   0.17863   0.00000  Uiso   1.00
C428   C     0.28520   0.82638   0.03122   0.00000  Uiso   1.00
C429   C     0.28208   0.75082   0.02921   0.00000  Uiso   1.00
C430   C     0.33630   0.70839   0.02783   0.00000  Uiso   1.00
C431   C     0.32302   0.64082   0.02608   0.00000  Uiso   1.00
C432   C     0.24515   0.85176   0.99804   0.00000  Uiso   1.00
C433   C     0.26832   0.89420   0.97044   0.00000  Uiso   1.00
C434   C     0.22395   0.91162   0.94245   0.00000  Uiso   1.00
C435   C     0.24613   0.84604   0.06595   0.00000  Uiso   1.00
C436   C     0.27012   0.88368   0.09546   0.00000  Uiso   1.00
C437   C     0.22656   0.89630   0.12464   0.00000  Uiso   1.00
H438   H     0.11446   0.76302   0.03030   0.00000  Uiso   1.00
H439   H     0.15309   0.64042   0.02685   0.00000  Uiso   1.00
H440   H     0.08512   0.82621   0.96948   0.00000  Uiso   1.00
H441   H     0.08692   0.81569   0.09447   0.00000  Uiso   1.00
H442   H     0.22467   0.51516   0.02316   0.00000  Uiso   1.00
H443   H     0.08134   0.90694   0.90219   0.00000  Uiso   1.00
H444   H     0.08512   0.88475   0.16577   0.00000  Uiso   1.00
H445   H     0.33594   0.84521   0.03149   0.00000  Uiso   1.00
H446   H     0.38673   0.72712   0.02810   0.00000  Uiso   1.00
H447   H     0.31876   0.91291   0.97072   0.00000  Uiso   1.00
H448   H     0.32056   0.90239   0.09572   0.00000  Uiso   1.00
H449   H     0.41430   0.58553   0.02417   0.00000  Uiso   1.00
H450   H     0.27097   0.97731   0.90320   0.00000  Uiso   1.00
H451   H     0.27476   0.95512   0.16678   0.00000  Uiso   1.00
O452   O     0.34890   0.47118   0.02141   0.00000  Uiso   1.00
O453   O     0.16085   0.98518   0.86270   0.00000  Uiso   1.00
O454   O     0.16582   0.95607   0.20851   0.00000  Uiso   1.00
N455   N     0.26233   0.54793   0.02387   0.00000  Uiso   1.00
N456   N     0.12832   0.91421   0.91077   0.00000  Uiso   1.00
N457   N     0.13186   0.89348   0.15719   0.00000  Uiso   1.00
N458   N     0.36437   0.58579   0.02442   0.00000  Uiso   1.00
N459   N     0.23036   0.95207   0.91131   0.00000  Uiso   1.00
N460   N     0.23390   0.93134   0.15773   0.00000  Uiso   1.00
C461   C     0.83480   0.21815   0.03058   0.00000  Uiso   1.00
C462   C     0.78310   0.27337   0.02887   0.00000  Uiso   1.00
C463   C     0.79646   0.34088   0.02712   0.00000  Uiso   1.00
C464   C     0.74228   0.38341   0.02573   0.00000  Uiso   1.00
C465   C     0.67191   0.47282   0.02301   0.00000  Uiso   1.00
C466   C     0.82002   0.17243   0.99769   0.00000  Uiso   1.00
C467   C     0.86445   0.15507   0.96974   0.00000  Uiso   1.00
C468   C     0.84135   0.11261   0.94211   0.00000  Uiso   1.00
C469   C     0.82833   0.04527   0.89099   0.00000  Uiso   1.00
C470   C     0.81905   0.17815   0.06561   0.00000  Uiso   1.00
C471   C     0.86265   0.16558   0.09475   0.00000  Uiso   1.00
C472   C     0.83874   0.12794   0.12430   0.00000  Uiso   1.00
C473   C     0.82420   0.06948   0.17863   0.00000  Uiso   1.00
C474   C     0.71480   0.17362   0.03122   0.00000  Uiso   1.00
C475   C     0.71792   0.24918   0.02921   0.00000  Uiso   1.00
C476   C     0.66370   0.29161   0.02783   0.00000  Uiso   1.00
C477   C     0.67698   0.35918   0.02608   0.00000  Uiso   1.00
C478   C     0.75485   0.14824   0.99804   0.00000  Uiso   1.00
C479   C     0.73168   0.10580   0.97044   0.00000  Uiso   1.00
C480   C     0.77605   0.08838   0.94245   0.00000  Uiso   1.00
C481   C     0.75387   0.15396   0.06595   0.00000  Uiso   1.00
C482   C     0.72988   0.11632   0.09546   0.00000  Uiso   1.00
C483   C     0.77344   0.10370   0.12464   0.00000  Uiso   1.00
H484   H     0.88554   0.23698   0.03030   0.00000  Uiso   1.00
H485   H     0.84691   0.35958   0.02685   0.00000  Uiso   1.00
H486   H     0.91488   0.17379   0.96948   0.00000  Uiso   1.00
H487   H     0.91308   0.18431   0.09447   0.00000  Uiso   1.00
H488   H     0.77533   0.48484   0.02316   0.00000  Uiso   1.00
H489   H     0.91866   0.09306   0.90219   0.00000  Uiso   1.00
H490   H     0.91488   0.11525   0.16577   0.00000  Uiso   1.00
H491   H     0.66406   0.15479   0.03149   0.00000  Uiso   1.00
H492   H     0.61327   0.27288   0.02810   0.00000  Uiso   1.00
H493   H     0.68124   0.08709   0.97072   0.00000  Uiso   1.00
H494   H     0.67944   0.09761   0.09572   0.00000  Uiso   1.00
H495   H     0.58570   0.41447   0.02417   0.00000  Uiso   1.00
H496   H     0.72903   0.02269   0.90320   0.00000  Uiso   1.00
H497   H     0.72524   0.04488   0.16678   0.00000  Uiso   1.00
O498   O     0.65110   0.52882   0.02141   0.00000  Uiso   1.00
O499   O     0.83915   0.01482   0.86270   0.00000  Uiso   1.00
O500   O     0.83418   0.04393   0.20851   0.00000  Uiso   1.00
N501   N     0.73767   0.45207   0.02387   0.00000  Uiso   1.00
N502   N     0.87168   0.08579   0.91077   0.00000  Uiso   1.00
N503   N     0.86814   0.10652   0.15719   0.00000  Uiso   1.00
N504   N     0.63563   0.41421   0.02442   0.00000  Uiso   1.00
N505   N     0.76964   0.04793   0.91131   0.00000  Uiso   1.00
N506   N     0.76610   0.06866   0.15773   0.00000  Uiso   1.00
C507   C     0.33480   0.71815   0.53058   0.00000  Uiso   1.00
C508   C     0.28310   0.77337   0.52887   0.00000  Uiso   1.00
C509   C     0.29646   0.84088   0.52712   0.00000  Uiso   1.00
C510   C     0.24228   0.88341   0.52573   0.00000  Uiso   1.00
C511   C     0.17191   0.97282   0.52301   0.00000  Uiso   1.00
C512   C     0.32002   0.67243   0.49769   0.00000  Uiso   1.00
C513   C     0.36445   0.65507   0.46974   0.00000  Uiso   1.00
C514   C     0.34135   0.61261   0.44211   0.00000  Uiso   1.00
C515   C     0.32833   0.54527   0.39099   0.00000  Uiso   1.00
C516   C     0.31905   0.67815   0.56561   0.00000  Uiso   1.00
C517   C     0.36265   0.66558   0.59475   0.00000  Uiso   1.00
C518   C     0.33874   0.62794   0.62430   0.00000  Uiso   1.00
C519   C     0.32420   0.56948   0.67863   0.00000  Uiso   1.00
C520   C     0.21480   0.67362   0.53122   0.00000  Uiso   1.00
C521   C     0.21792   0.74918   0.52921   0.00000  Uiso   1.00
C522   C     0.16370   0.79161   0.52783   0.00000  Uiso   1.00
C523   C     0.17698   0.85918   0.52608   0.00000  Uiso   1.00
C524   C     0.25485   0.64824   0.49804   0.00000  Uiso   1.00
C525   C     0.23168   0.60580   0.47044   0.00000  Uiso   1.00
C526   C     0.27605   0.58838   0.44245   0.00000  Uiso   1.00
C527   C     0.25387   0.65396   0.56595   0.00000  Uiso   1.00
C528   C     0.22988   0.61632   0.59546   0.00000  Uiso   1.00
C529   C     0.27344   0.60370   0.62464   0.00000  Uiso   1.00
H530   H     0.38554   0.73698   0.53030   0.00000  Uiso   1.00
H531   H     0.34691   0.85958   0.52685   0.00000  Uiso   1.00
H532   H     0.41488   0.67379   0.46948   0.00000  Uiso   1.00
H533   H     0.41308   0.68431   0.59447   0.00000  Uiso   1.00
H534   H     0.27533   0.98484   0.52316   0.00000  Uiso   1.00
H535   H     0.41866   0.59306   0.40219   0.00000  Uiso   1.00
H536   H     0.41488   0.61525   0.66577   0.00000  Uiso   1.00
H537   H     0.16406   0.65479   0.53149   0.00000  Uiso   1.00
H538   H     0.11327   0.77288   0.52810   0.00000  Uiso   1.00
H539   H     0.18124   0.58709   0.47072   0.00000  Uiso   1.00
H540   H     0.17944   0.59761   0.59572   0.00000  Uiso   1.00
H541   H     0.08570   0.91447   0.52417   0.00000  Uiso   1.00
H542   H     0.22903   0.52269   0.40320   0.00000  Uiso   1.00
H543   H     0.22524   0.54488   0.66678   0.00000  Uiso   1.00
O544   O     0.15110   0.02882   0.52141   0.00000  Uiso   1.00
O545   O     0.33915   0.51482   0.36270   0.00000  Uiso   1.00
O546   O     0.33418   0.54393   0.70851   0.00000  Uiso   1.00
N547   N     0.23767   0.95207   0.52387   0.00000  Uiso   1.00
N548   N     0.37168   0.58579   0.41077   0.00000  Uiso   1.00
N549   N     0.36814   0.60652   0.65719   0.00000  Uiso   1.00
N550   N     0.13563   0.91421   0.52442   0.00000  Uiso   1.00
N551   N     0.26964   0.54793   0.41131   0.00000  Uiso   1.00
N552   N     0.26610   0.56866   0.65773   0.00000  Uiso   1.00
C553   C     0.21815   0.66520   0.28058   0.00000  Uiso   1.00
C554   C     0.27337   0.71690   0.27887   0.00000  Uiso   1.00
C555   C     0.34088   0.70354   0.27712   0.00000  Uiso   1.00
C556   C     0.38341   0.75772   0.27573   0.00000  Uiso   1.00
C557   C     0.47282   0.82809   0.27301   0.00000  Uiso   1.00
C558   C     0.17243   0.67998   0.24769   0.00000  Uiso   1.00
C559   C     0.15507   0.63555   0.21974   0.00000  Uiso   1.00
C560   C     0.11261   0.65865   0.19211   0.00000  Uiso   1.00
C561   C     0.04527   0.67167   0.14099   0.00000  Uiso   1.00
C562   C     0.17815   0.68095   0.31561   0.00000  Uiso   1.00
C563   C     0.16558   0.63735   0.34475   0.00000  Uiso   1.00
C564   C     0.12794   0.66126   0.37430   0.00000  Uiso   1.00
C565   C     0.06948   0.67580   0.42863   0.00000  Uiso   1.00
C566   C     0.17362   0.78520   0.28122   0.00000  Uiso   1.00
C567   C     0.24918   0.78208   0.27921   0.00000  Uiso   1.00
C568   C     0.29161   0.83630   0.27783   0.00000  Uiso   1.00
C569   C     0.35918   0.82302   0.27608   0.00000  Uiso   1.00
C570   C     0.14824   0.74515   0.24804   0.00000  Uiso   1.00
C571   C     0.10580   0.76832   0.22044   0.00000  Uiso   1.00
C572   C     0.08838   0.72395   0.19245   0.00000  Uiso   1.00
C573   C     0.15396   0.74613   0.31595   0.00000  Uiso   1.00
C574   C     0.11632   0.77012   0.34546   0.00000  Uiso   1.00
C575   C     0.10370   0.72656   0.37464   0.00000  Uiso   1.00
H576   H     0.23698   0.61446   0.28030   0.00000  Uiso   1.00
H577   H     0.35958   0.65309   0.27685   0.00000  Uiso   1.00
H578   H     0.17379   0.58512   0.21948   0.00000  Uiso   1.00
H579   H     0.18431   0.58692   0.34447   0.00000  Uiso   1.00
H580   H     0.48484   0.72467   0.27316   0.00000  Uiso   1.00
H581   H     0.09306   0.58134   0.15219   0.00000  Uiso   1.00
H582   H     0.11525   0.58512   0.41577   0.00000  Uiso   1.00
H583   H     0.15479   0.83594   0.28149   0.00000  Uiso   1.00
H584   H     0.27288   0.88673   0.27810   0.00000  Uiso   1.00
H585   H     0.08709   0.81876   0.22072   0.00000  Uiso   1.00
H586   H     0.09761   0.82056   0.34572   0.00000  Uiso   1.00
H587   H     0.41447   0.91430   0.27417   0.00000  Uiso   1.00
H588   H     0.02269   0.77097   0.15320   0.00000  Uiso   1.00
H589   H     0.04488   0.77476   0.41678   0.00000  Uiso   1.00
O590   O     0.52882   0.84890   0.27141   0.00000  Uiso   1.00
O591   O     0.01482   0.66085   0.11270   0.00000  Uiso   1.00
O592   O     0.04393   0.66582   0.45851   0.00000  Uiso   1.00
N593   N     0.45207   0.76233   0.27387   0.00000  Uiso   1.00
N594   N     0.08579   0.62832   0.16077   0.00000  Uiso   1.00
N595   N     0.10652   0.63186   0.40719   0.00000  Uiso   1.00
N596   N     0.41421   0.86437   0.27442   0.00000  Uiso   1.00
N597   N     0.04793   0.73036   0.16131   0.00000  Uiso   1.00
N598   N     0.06866   0.73390   0.40773   0.00000  Uiso   1.00
C599   C     0.71815   0.16520   0.78058   0.00000  Uiso   1.00
C600   C     0.77337   0.21690   0.77887   0.00000  Uiso   1.00
C601   C     0.84088   0.20354   0.77712   0.00000  Uiso   1.00
C602   C     0.88341   0.25772   0.77573   0.00000  Uiso   1.00
C603   C     0.97282   0.32809   0.77301   0.00000  Uiso   1.00
C604   C     0.67243   0.17998   0.74769   0.00000  Uiso   1.00
C605   C     0.65507   0.13555   0.71974   0.00000  Uiso   1.00
C606   C     0.61261   0.15865   0.69211   0.00000  Uiso   1.00
C607   C     0.54527   0.17167   0.64099   0.00000  Uiso   1.00
C608   C     0.67815   0.18095   0.81561   0.00000  Uiso   1.00
C609   C     0.66558   0.13735   0.84475   0.00000  Uiso   1.00
C610   C     0.62794   0.16126   0.87430   0.00000  Uiso   1.00
C611   C     0.56948   0.17580   0.92863   0.00000  Uiso   1.00
C612   C     0.67362   0.28520   0.78122   0.00000  Uiso   1.00
C613   C     0.74918   0.28208   0.77921   0.00000  Uiso   1.00
C614   C     0.79161   0.33630   0.77783   0.00000  Uiso   1.00
C615   C     0.85918   0.32302   0.77608   0.00000  Uiso   1.00
C616   C     0.64824   0.24515   0.74804   0.00000  Uiso   1.00
C617   C     0.60580   0.26832   0.72044   0.00000  Uiso   1.00
C618   C     0.58838   0.22395   0.69245   0.00000  Uiso   1.00
C619   C     0.65396   0.24613   0.81595   0.00000  Uiso   1.00
C620   C     0.61632   0.27012   0.84546   0.00000  Uiso   1.00
C621   C     0.60370   0.22656   0.87464   0.00000  Uiso   1.00
H622   H     0.73698   0.11446   0.78030   0.00000  Uiso   1.00
H623   H     0.85958   0.15309   0.77685   0.00000  Uiso   1.00
H624   H     0.67379   0.08512   0.71948   0.00000  Uiso   1.00
H625   H     0.68431   0.08692   0.84447   0.00000  Uiso   1.00
H626   H     0.98484   0.22467   0.77316   0.00000  Uiso   1.00
H627   H     0.59306   0.08134   0.65219   0.00000  Uiso   1.00
H628   H     0.61525   0.08512   0.91577   0.00000  Uiso   1.00
H629   H     0.65479   0.33594   0.78149   0.00000  Uiso   1.00
H630   H     0.77288   0.38673   0.77810   0.00000  Uiso   1.00
H631   H     0.58709   0.31876   0.72072   0.00000  Uiso   1.00
H632   H     0.59761   0.32056   0.84572   0.00000  Uiso   1.00
H633   H     0.91447   0.41430   0.77417   0.00000  Uiso   1.00
H634   H     0.52269   0.27097   0.65320   0.00000  Uiso   1.00
H635   H     0.54488   0.27476   0.91678   0.00000  Uiso   1.00
O636   O     0.02882   0.34890   0.77141   0.00000  Uiso   1.00
O637   O     0.51482   0.16085   0.61270   0.00000  Uiso   1.00
O638   O     0.54393   0.16582   0.95851   0.00000  Uiso   1.00
N639   N     0.95207   0.26233   0.77387   0.00000  Uiso   1.00
N640   N     0.58579   0.12832   0.66077   0.00000  Uiso   1.00
N641   N     0.60652   0.13186   0.90719   0.00000  Uiso   1.00
N642   N     0.91421   0.36437   0.77442   0.00000  Uiso   1.00
N643   N     0.54793   0.23036   0.66131   0.00000  Uiso   1.00
N644   N     0.56866   0.23390   0.90773   0.00000  Uiso   1.00
C645   C     0.28185   0.83480   0.78058   0.00000  Uiso   1.00
C646   C     0.22663   0.78310   0.77887   0.00000  Uiso   1.00
C647   C     0.15912   0.79646   0.77712   0.00000  Uiso   1.00
C648   C     0.11659   0.74228   0.77573   0.00000  Uiso   1.00
C649   C     0.02718   0.67191   0.77301   0.00000  Uiso   1.00
C650   C     0.32757   0.82002   0.74769   0.00000  Uiso   1.00
C651   C     0.34493   0.86445   0.71974   0.00000  Uiso   1.00
C652   C     0.38739   0.84135   0.69211   0.00000  Uiso   1.00
C653   C     0.45473   0.82833   0.64099   0.00000  Uiso   1.00
C654   C     0.32185   0.81905   0.81561   0.00000  Uiso   1.00
C655   C     0.33442   0.86265   0.84475   0.00000  Uiso   1.00
C656   C     0.37206   0.83874   0.87430   0.00000  Uiso   1.00
C657   C     0.43052   0.82420   0.92863   0.00000  Uiso   1.00
C658   C     0.32638   0.71480   0.78122   0.00000  Uiso   1.00
C659   C     0.25082   0.71792   0.77921   0.00000  Uiso   1.00
C660   C     0.20839   0.66370   0.77783   0.00000  Uiso   1.00
C661   C     0.14082   0.67698   0.77608   0.00000  Uiso   1.00
C662   C     0.35176   0.75485   0.74804   0.00000  Uiso   1.00
C663   C     0.39420   0.73168   0.72044   0.00000  Uiso   1.00
C664   C     0.41162   0.77605   0.69245   0.00000  Uiso   1.00
C665   C     0.34604   0.75387   0.81595   0.00000  Uiso   1.00
C666   C     0.38368   0.72988   0.84546   0.00000  Uiso   1.00
C667   C     0.39630   0.77344   0.87464   0.00000  Uiso   1.00
H668   H     0.26302   0.88554   0.78030   0.00000  Uiso   1.00
H669   H     0.14042   0.84691   0.77685   0.00000  Uiso   1.00
H670   H     0.32621   0.91488   0.71948   0.00000  Uiso   1.00
H671   H     0.31569   0.91308   0.84447   0.00000  Uiso   1.00
H672   H     0.01516   0.77533   0.77316   0.00000  Uiso   1.00
H673   H     0.40694   0.91866   0.65219   0.00000  Uiso   1.00
H674   H     0.38475   0.91488   0.91577   0.00000  Uiso   1.00
H675   H     0.34521   0.66406   0.78149   0.00000  Uiso   1.00
H676   H     0.22712   0.61327   0.77810   0.00000  Uiso   1.00
H677   H     0.41291   0.68124   0.72072   0.00000  Uiso   1.00
H678   H     0.40239   0.67944   0.84572   0.00000  Uiso   1.00
H679   H     0.08553   0.58570   0.77417   0.00000  Uiso   1.00
H680   H     0.47731   0.72903   0.65320   0.00000  Uiso   1.00
H681   H     0.45512   0.72524   0.91678   0.00000  Uiso   1.00
O682   O     0.97118   0.65110   0.77141   0.00000  Uiso   1.00
O683   O     0.48518   0.83915   0.61270   0.00000  Uiso   1.00
O684   O     0.45607   0.83418   0.95851   0.00000  Uiso   1.00
N685   N     0.04793   0.73767   0.77387   0.00000  Uiso   1.00
N686   N     0.41421   0.87168   0.66077   0.00000  Uiso   1.00
N687   N     0.39348   0.86814   0.90719   0.00000  Uiso   1.00
N688   N     0.08579   0.63563   0.77442   0.00000  Uiso   1.00
N689   N     0.45207   0.76964   0.66131   0.00000  Uiso   1.00
N690   N     0.43134   0.76610   0.90773   0.00000  Uiso   1.00
C691   C     0.78185   0.33480   0.28058   0.00000  Uiso   1.00
C692   C     0.72663   0.28310   0.27887   0.00000  Uiso   1.00
C693   C     0.65912   0.29646   0.27712   0.00000  Uiso   1.00
C694   C     0.61659   0.24228   0.27573   0.00000  Uiso   1.00
C695   C     0.52718   0.17191   0.27301   0.00000  Uiso   1.00
C696   C     0.82757   0.32002   0.24769   0.00000  Uiso   1.00
C697   C     0.84493   0.36445   0.21974   0.00000  Uiso   1.00
C698   C     0.88739   0.34135   0.19211   0.00000  Uiso   1.00
C699   C     0.95473   0.32833   0.14099   0.00000  Uiso   1.00
C700   C     0.82185   0.31905   0.31561   0.00000  Uiso   1.00
C701   C     0.83442   0.36265   0.34475   0.00000  Uiso   1.00
C702   C     0.87206   0.33874   0.37430   0.00000  Uiso   1.00
C703   C     0.93052   0.32420   0.42863   0.00000  Uiso   1.00
C704   C     0.82638   0.21480   0.28122   0.00000  Uiso   1.00
C705   C     0.75082   0.21792   0.27921   0.00000  Uiso   1.00
C706   C     0.70839   0.16370   0.27783   0.00000  Uiso   1.00
C707   C     0.64082   0.17698   0.27608   0.00000  Uiso   1.00
C708   C     0.85176   0.25485   0.24804   0.00000  Uiso   1.00
C709   C     0.89420   0.23168   0.22044   0.00000  Uiso   1.00
C710   C     0.91162   0.27605   0.19245   0.00000  Uiso   1.00
C711   C     0.84604   0.25387   0.31595   0.00000  Uiso   1.00
C712   C     0.88368   0.22988   0.34546   0.00000  Uiso   1.00
C713   C     0.89630   0.27344   0.37464   0.00000  Uiso   1.00
H714   H     0.76302   0.38554   0.28030   0.00000  Uiso   1.00
H715   H     0.64042   0.34691   0.27685   0.00000  Uiso   1.00
H716   H     0.82621   0.41488   0.21948   0.00000  Uiso   1.00
H717   H     0.81569   0.41308   0.34447   0.00000  Uiso   1.00
H718   H     0.51516   0.27533   0.27316   0.00000  Uiso   1.00
H719   H     0.90694   0.41866   0.15219   0.00000  Uiso   1.00
H720   H     0.88475   0.41488   0.41577   0.00000  Uiso   1.00
H721   H     0.84521   0.16406   0.28149   0.00000  Uiso   1.00
H722   H     0.72712   0.11327   0.27810   0.00000  Uiso   1.00
H723   H     0.91291   0.18124   0.22072   0.00000  Uiso   1.00
H724   H     0.90239   0.17944   0.34572   0.00000  Uiso   1.00
H725   H     0.58553   0.08570   0.27417   0.00000  Uiso   1.00
H726   H     0.97731   0.22903   0.15320   0.00000  Uiso   1.00
H727   H     0.95512   0.22524   0.41678   0.00000  Uiso   1.00
O728   O     0.47118   0.15110   0.27141   0.00000  Uiso   1.00
O729   O     0.98518   0.33915   0.11270   0.00000  Uiso   1.00
O730   O     0.95607   0.33418   0.45851   0.00000  Uiso   1.00
N731   N     0.54793   0.23767   0.27387   0.00000  Uiso   1.00
N732   N     0.91421   0.37168   0.16077   0.00000  Uiso   1.00
N733   N     0.89348   0.36814   0.40719   0.00000  Uiso   1.00
N734   N     0.58579   0.13563   0.27442   0.00000  Uiso   1.00
N735   N     0.95207   0.26964   0.16131   0.00000  Uiso   1.00
N736   N     0.93134   0.26610   0.40773   0.00000  Uiso   1.00
