data_job_00764
_audit_creation_date              2018-12-19
_audit_creation_method            'Materials Studio'
_symmetry_space_group_name_H-M    'P1'
_symmetry_Int_Tables_number       1
_symmetry_cell_setting            triclinic
loop_
_symmetry_equiv_pos_as_xyz
  x,y,z
_cell_length_a                    32.3691
_cell_length_b                    20.6649
_cell_length_c                    18.0388
_cell_angle_alpha                 90.0000
_cell_angle_beta                  90.0000
_cell_angle_gamma                 90.0000
loop_
_atom_site_label
_atom_site_type_symbol
_atom_site_fract_x
_atom_site_fract_y
_atom_site_fract_z
_atom_site_U_iso_or_equiv
_atom_site_adp_type
_atom_site_occupancy
C1     C     0.06656   0.65202   0.63618   0.00000  Uiso   1.00
C2     C     0.08389   0.71837   0.65622   0.00000  Uiso   1.00
C3     C     0.07036   0.77715   0.62805   0.00000  Uiso   1.00
C4     C     0.09022   0.83245   0.65335   0.00000  Uiso   1.00
C5     C     0.11225   0.93599   0.67660   0.00000  Uiso   1.00
C6     C     0.10311   0.61234   0.60830   0.00000  Uiso   1.00
C7     C     0.10573   0.58196   0.53984   0.00000  Uiso   1.00
C8     C     0.14178   0.54799   0.52481   0.00000  Uiso   1.00
C9     C     0.19363   0.48688   0.47368   0.00000  Uiso   1.00
C10    C     0.05335   0.62101   0.70913   0.00000  Uiso   1.00
C11    C     0.01413   0.59792   0.72544   0.00000  Uiso   1.00
C12    C     0.00828   0.57124   0.79530   0.00000  Uiso   1.00
C13    C     0.98286   0.52360   0.90072   0.00000  Uiso   1.00
C14    C     0.12591   0.64569   0.73122   0.00000  Uiso   1.00
C15    C     0.11613   0.71493   0.70784   0.00000  Uiso   1.00
C16    C     0.13603   0.77015   0.73320   0.00000  Uiso   1.00
C17    C     0.12252   0.82900   0.70507   0.00000  Uiso   1.00
C18    C     0.13535   0.60890   0.65992   0.00000  Uiso   1.00
C19    C     0.17140   0.57496   0.64499   0.00000  Uiso   1.00
C20    C     0.17408   0.54455   0.57653   0.00000  Uiso   1.00
C21    C     0.08559   0.61757   0.76075   0.00000  Uiso   1.00
C22    C     0.07980   0.59092   0.83060   0.00000  Uiso   1.00
C23    C     0.04058   0.56779   0.84702   0.00000  Uiso   1.00
H24    H     0.04146   0.65470   0.59598   0.00000  Uiso   1.00
H25    H     0.04541   0.77979   0.58809   0.00000  Uiso   1.00
H26    H     0.08078   0.58463   0.49991   0.00000  Uiso   1.00
H27    H     0.98919   0.60059   0.68548   0.00000  Uiso   1.00
H28    H     0.06401   0.91697   0.60209   0.00000  Uiso   1.00
H29    H     0.13859   0.50544   0.41616   0.00000  Uiso   1.00
H30    H     0.94545   0.53909   0.80748   0.00000  Uiso   1.00
H31    H     0.15102   0.64301   0.77141   0.00000  Uiso   1.00
H32    H     0.16097   0.76747   0.77315   0.00000  Uiso   1.00
H33    H     0.19634   0.57230   0.68496   0.00000  Uiso   1.00
H34    H     0.10475   0.58826   0.87053   0.00000  Uiso   1.00
H35    H     0.15781   0.90697   0.75229   0.00000  Uiso   1.00
H36    H     0.23239   0.49543   0.56635   0.00000  Uiso   1.00
H37    H     0.03925   0.52909   0.95767   0.00000  Uiso   1.00
O38    O     0.11550   0.99405   0.67515   0.00000  Uiso   1.00
O39    O     0.21333   0.45413   0.43121   0.00000  Uiso   1.00
O40    O     0.95994   0.49828   0.94462   0.00000  Uiso   1.00
N41    N     0.08472   0.89754   0.63721   0.00000  Uiso   1.00
N42    N     0.15444   0.51279   0.46337   0.00000  Uiso   1.00
N43    N     0.97388   0.54423   0.82921   0.00000  Uiso   1.00
N44    N     0.13519   0.89215   0.71803   0.00000  Uiso   1.00
N45    N     0.20491   0.50740   0.54419   0.00000  Uiso   1.00
N46    N     0.02435   0.53885   0.91003   0.00000  Uiso   1.00
C47    C     0.56656   0.15202   0.13618   0.00000  Uiso   1.00
C48    C     0.58389   0.21837   0.15622   0.00000  Uiso   1.00
C49    C     0.57036   0.27715   0.12805   0.00000  Uiso   1.00
C50    C     0.59022   0.33245   0.15335   0.00000  Uiso   1.00
C51    C     0.61225   0.43599   0.17660   0.00000  Uiso   1.00
C52    C     0.60311   0.11234   0.10830   0.00000  Uiso   1.00
C53    C     0.60573   0.08196   0.03984   0.00000  Uiso   1.00
C54    C     0.64178   0.04799   0.02481   0.00000  Uiso   1.00
C55    C     0.69363   0.98688   0.97368   0.00000  Uiso   1.00
C56    C     0.55335   0.12101   0.20913   0.00000  Uiso   1.00
C57    C     0.51413   0.09792   0.22544   0.00000  Uiso   1.00
C58    C     0.50828   0.07124   0.29530   0.00000  Uiso   1.00
C59    C     0.48286   0.02360   0.40072   0.00000  Uiso   1.00
C60    C     0.62591   0.14569   0.23122   0.00000  Uiso   1.00
C61    C     0.61613   0.21493   0.20784   0.00000  Uiso   1.00
C62    C     0.63603   0.27015   0.23320   0.00000  Uiso   1.00
C63    C     0.62252   0.32900   0.20507   0.00000  Uiso   1.00
C64    C     0.63535   0.10890   0.15992   0.00000  Uiso   1.00
C65    C     0.67140   0.07496   0.14499   0.00000  Uiso   1.00
C66    C     0.67408   0.04455   0.07653   0.00000  Uiso   1.00
C67    C     0.58559   0.11757   0.26075   0.00000  Uiso   1.00
C68    C     0.57980   0.09092   0.33060   0.00000  Uiso   1.00
C69    C     0.54058   0.06779   0.34702   0.00000  Uiso   1.00
H70    H     0.54146   0.15470   0.09598   0.00000  Uiso   1.00
H71    H     0.54541   0.27979   0.08809   0.00000  Uiso   1.00
H72    H     0.58078   0.08463   0.99991   0.00000  Uiso   1.00
H73    H     0.48919   0.10059   0.18548   0.00000  Uiso   1.00
H74    H     0.56401   0.41697   0.10209   0.00000  Uiso   1.00
H75    H     0.63859   0.00544   0.91616   0.00000  Uiso   1.00
H76    H     0.44545   0.03909   0.30748   0.00000  Uiso   1.00
H77    H     0.65102   0.14301   0.27141   0.00000  Uiso   1.00
H78    H     0.66097   0.26747   0.27315   0.00000  Uiso   1.00
H79    H     0.69634   0.07230   0.18496   0.00000  Uiso   1.00
H80    H     0.60475   0.08826   0.37053   0.00000  Uiso   1.00
H81    H     0.65781   0.40697   0.25229   0.00000  Uiso   1.00
H82    H     0.73239   0.99543   0.06635   0.00000  Uiso   1.00
H83    H     0.53925   0.02909   0.45767   0.00000  Uiso   1.00
O84    O     0.61550   0.49405   0.17515   0.00000  Uiso   1.00
O85    O     0.71333   0.95413   0.93121   0.00000  Uiso   1.00
O86    O     0.45994   0.99828   0.44462   0.00000  Uiso   1.00
N87    N     0.58472   0.39754   0.13721   0.00000  Uiso   1.00
N88    N     0.65444   0.01279   0.96337   0.00000  Uiso   1.00
N89    N     0.47388   0.04423   0.32921   0.00000  Uiso   1.00
N90    N     0.63519   0.39215   0.21803   0.00000  Uiso   1.00
N91    N     0.70491   0.00740   0.04419   0.00000  Uiso   1.00
N92    N     0.52435   0.03885   0.41003   0.00000  Uiso   1.00
C93    C     0.43344   0.34798   0.13618   0.00000  Uiso   1.00
C94    C     0.41611   0.28163   0.15622   0.00000  Uiso   1.00
C95    C     0.42964   0.22285   0.12805   0.00000  Uiso   1.00
C96    C     0.40978   0.16755   0.15335   0.00000  Uiso   1.00
C97    C     0.38775   0.06401   0.17660   0.00000  Uiso   1.00
C98    C     0.39689   0.38766   0.10830   0.00000  Uiso   1.00
C99    C     0.39427   0.41804   0.03984   0.00000  Uiso   1.00
C100   C     0.35822   0.45201   0.02481   0.00000  Uiso   1.00
C101   C     0.30637   0.51312   0.97368   0.00000  Uiso   1.00
C102   C     0.44665   0.37899   0.20913   0.00000  Uiso   1.00
C103   C     0.48587   0.40208   0.22544   0.00000  Uiso   1.00
C104   C     0.49172   0.42876   0.29530   0.00000  Uiso   1.00
C105   C     0.51714   0.47640   0.40072   0.00000  Uiso   1.00
C106   C     0.37409   0.35431   0.23122   0.00000  Uiso   1.00
C107   C     0.38387   0.28507   0.20784   0.00000  Uiso   1.00
C108   C     0.36397   0.22985   0.23320   0.00000  Uiso   1.00
C109   C     0.37748   0.17100   0.20507   0.00000  Uiso   1.00
C110   C     0.36465   0.39110   0.15992   0.00000  Uiso   1.00
C111   C     0.32860   0.42504   0.14499   0.00000  Uiso   1.00
C112   C     0.32592   0.45545   0.07653   0.00000  Uiso   1.00
C113   C     0.41441   0.38243   0.26075   0.00000  Uiso   1.00
C114   C     0.42020   0.40908   0.33060   0.00000  Uiso   1.00
C115   C     0.45942   0.43221   0.34702   0.00000  Uiso   1.00
H116   H     0.45854   0.34530   0.09598   0.00000  Uiso   1.00
H117   H     0.45459   0.22021   0.08809   0.00000  Uiso   1.00
H118   H     0.41922   0.41537   0.99991   0.00000  Uiso   1.00
H119   H     0.51081   0.39941   0.18548   0.00000  Uiso   1.00
H120   H     0.43599   0.08303   0.10209   0.00000  Uiso   1.00
H121   H     0.36141   0.49456   0.91616   0.00000  Uiso   1.00
H122   H     0.55455   0.46091   0.30748   0.00000  Uiso   1.00
H123   H     0.34898   0.35699   0.27141   0.00000  Uiso   1.00
H124   H     0.33903   0.23253   0.27315   0.00000  Uiso   1.00
H125   H     0.30366   0.42770   0.18496   0.00000  Uiso   1.00
H126   H     0.39525   0.41174   0.37053   0.00000  Uiso   1.00
H127   H     0.34219   0.09303   0.25229   0.00000  Uiso   1.00
H128   H     0.26761   0.50457   0.06635   0.00000  Uiso   1.00
H129   H     0.46075   0.47091   0.45767   0.00000  Uiso   1.00
O130   O     0.38450   0.00595   0.17515   0.00000  Uiso   1.00
O131   O     0.28667   0.54587   0.93121   0.00000  Uiso   1.00
O132   O     0.54006   0.50172   0.44462   0.00000  Uiso   1.00
N133   N     0.41528   0.10246   0.13721   0.00000  Uiso   1.00
N134   N     0.34556   0.48721   0.96337   0.00000  Uiso   1.00
N135   N     0.52612   0.45577   0.32921   0.00000  Uiso   1.00
N136   N     0.36481   0.10785   0.21803   0.00000  Uiso   1.00
N137   N     0.29509   0.49260   0.04419   0.00000  Uiso   1.00
N138   N     0.47565   0.46115   0.41003   0.00000  Uiso   1.00
C139   C     0.93344   0.84798   0.63618   0.00000  Uiso   1.00
C140   C     0.91611   0.78163   0.65622   0.00000  Uiso   1.00
C141   C     0.92964   0.72285   0.62805   0.00000  Uiso   1.00
C142   C     0.90978   0.66755   0.65335   0.00000  Uiso   1.00
C143   C     0.88775   0.56401   0.67660   0.00000  Uiso   1.00
C144   C     0.89689   0.88766   0.60830   0.00000  Uiso   1.00
C145   C     0.89427   0.91804   0.53984   0.00000  Uiso   1.00
C146   C     0.85822   0.95201   0.52481   0.00000  Uiso   1.00
C147   C     0.80637   0.01312   0.47368   0.00000  Uiso   1.00
C148   C     0.94665   0.87899   0.70913   0.00000  Uiso   1.00
C149   C     0.98587   0.90208   0.72544   0.00000  Uiso   1.00
C150   C     0.99172   0.92876   0.79530   0.00000  Uiso   1.00
C151   C     0.01714   0.97640   0.90072   0.00000  Uiso   1.00
C152   C     0.87409   0.85431   0.73122   0.00000  Uiso   1.00
C153   C     0.88387   0.78507   0.70784   0.00000  Uiso   1.00
C154   C     0.86397   0.72985   0.73320   0.00000  Uiso   1.00
C155   C     0.87748   0.67100   0.70507   0.00000  Uiso   1.00
C156   C     0.86465   0.89110   0.65992   0.00000  Uiso   1.00
C157   C     0.82860   0.92504   0.64499   0.00000  Uiso   1.00
C158   C     0.82592   0.95545   0.57653   0.00000  Uiso   1.00
C159   C     0.91441   0.88243   0.76075   0.00000  Uiso   1.00
C160   C     0.92020   0.90908   0.83060   0.00000  Uiso   1.00
C161   C     0.95942   0.93221   0.84702   0.00000  Uiso   1.00
H162   H     0.95854   0.84530   0.59598   0.00000  Uiso   1.00
H163   H     0.95459   0.72021   0.58809   0.00000  Uiso   1.00
H164   H     0.91922   0.91537   0.49991   0.00000  Uiso   1.00
H165   H     0.01081   0.89941   0.68548   0.00000  Uiso   1.00
H166   H     0.93599   0.58303   0.60209   0.00000  Uiso   1.00
H167   H     0.86141   0.99456   0.41616   0.00000  Uiso   1.00
H168   H     0.05455   0.96091   0.80748   0.00000  Uiso   1.00
H169   H     0.84898   0.85699   0.77141   0.00000  Uiso   1.00
H170   H     0.83903   0.73253   0.77315   0.00000  Uiso   1.00
H171   H     0.80366   0.92770   0.68496   0.00000  Uiso   1.00
H172   H     0.89525   0.91174   0.87053   0.00000  Uiso   1.00
H173   H     0.84219   0.59303   0.75229   0.00000  Uiso   1.00
H174   H     0.76761   0.00457   0.56635   0.00000  Uiso   1.00
H175   H     0.96075   0.97091   0.95767   0.00000  Uiso   1.00
O176   O     0.88450   0.50595   0.67515   0.00000  Uiso   1.00
O177   O     0.78667   0.04587   0.43121   0.00000  Uiso   1.00
O178   O     0.04006   0.00172   0.94462   0.00000  Uiso   1.00
N179   N     0.91528   0.60246   0.63721   0.00000  Uiso   1.00
N180   N     0.84556   0.98721   0.46337   0.00000  Uiso   1.00
N181   N     0.02612   0.95577   0.82921   0.00000  Uiso   1.00
N182   N     0.86481   0.60785   0.71803   0.00000  Uiso   1.00
N183   N     0.79509   0.99260   0.54419   0.00000  Uiso   1.00
N184   N     0.97565   0.96115   0.91003   0.00000  Uiso   1.00
C185   C     0.93344   0.15202   0.86382   0.00000  Uiso   1.00
C186   C     0.91611   0.21837   0.84378   0.00000  Uiso   1.00
C187   C     0.92964   0.27715   0.87195   0.00000  Uiso   1.00
C188   C     0.90978   0.33245   0.84665   0.00000  Uiso   1.00
C189   C     0.88775   0.43599   0.82340   0.00000  Uiso   1.00
C190   C     0.89689   0.11234   0.89170   0.00000  Uiso   1.00
C191   C     0.89427   0.08196   0.96016   0.00000  Uiso   1.00
C192   C     0.85822   0.04799   0.97519   0.00000  Uiso   1.00
C193   C     0.80637   0.98688   0.02632   0.00000  Uiso   1.00
C194   C     0.94665   0.12101   0.79087   0.00000  Uiso   1.00
C195   C     0.98587   0.09792   0.77456   0.00000  Uiso   1.00
C196   C     0.99172   0.07124   0.70470   0.00000  Uiso   1.00
C197   C     0.01714   0.02360   0.59928   0.00000  Uiso   1.00
C198   C     0.87409   0.14569   0.76878   0.00000  Uiso   1.00
C199   C     0.88387   0.21493   0.79216   0.00000  Uiso   1.00
C200   C     0.86397   0.27015   0.76680   0.00000  Uiso   1.00
C201   C     0.87748   0.32900   0.79493   0.00000  Uiso   1.00
C202   C     0.86465   0.10890   0.84008   0.00000  Uiso   1.00
C203   C     0.82860   0.07496   0.85501   0.00000  Uiso   1.00
C204   C     0.82592   0.04455   0.92347   0.00000  Uiso   1.00
C205   C     0.91441   0.11757   0.73925   0.00000  Uiso   1.00
C206   C     0.92020   0.09092   0.66940   0.00000  Uiso   1.00
C207   C     0.95942   0.06779   0.65298   0.00000  Uiso   1.00
H208   H     0.95854   0.15470   0.90402   0.00000  Uiso   1.00
H209   H     0.95459   0.27979   0.91191   0.00000  Uiso   1.00
H210   H     0.91922   0.08463   0.00009   0.00000  Uiso   1.00
H211   H     0.01081   0.10059   0.81452   0.00000  Uiso   1.00
H212   H     0.93599   0.41697   0.89791   0.00000  Uiso   1.00
H213   H     0.86141   0.00544   0.08384   0.00000  Uiso   1.00
H214   H     0.05455   0.03909   0.69252   0.00000  Uiso   1.00
H215   H     0.84898   0.14301   0.72859   0.00000  Uiso   1.00
H216   H     0.83903   0.26747   0.72685   0.00000  Uiso   1.00
H217   H     0.80366   0.07230   0.81504   0.00000  Uiso   1.00
H218   H     0.89525   0.08826   0.62947   0.00000  Uiso   1.00
H219   H     0.84219   0.40697   0.74771   0.00000  Uiso   1.00
H220   H     0.76761   0.99543   0.93365   0.00000  Uiso   1.00
H221   H     0.96075   0.02909   0.54233   0.00000  Uiso   1.00
O222   O     0.88450   0.49405   0.82485   0.00000  Uiso   1.00
O223   O     0.78667   0.95413   0.06879   0.00000  Uiso   1.00
O224   O     0.04006   0.99828   0.55538   0.00000  Uiso   1.00
N225   N     0.91528   0.39754   0.86279   0.00000  Uiso   1.00
N226   N     0.84556   0.01279   0.03663   0.00000  Uiso   1.00
N227   N     0.02612   0.04423   0.67079   0.00000  Uiso   1.00
N228   N     0.86481   0.39215   0.78197   0.00000  Uiso   1.00
N229   N     0.79509   0.00740   0.95581   0.00000  Uiso   1.00
N230   N     0.97565   0.03885   0.58997   0.00000  Uiso   1.00
C231   C     0.43344   0.65202   0.36382   0.00000  Uiso   1.00
C232   C     0.41611   0.71837   0.34378   0.00000  Uiso   1.00
C233   C     0.42964   0.77715   0.37195   0.00000  Uiso   1.00
C234   C     0.40978   0.83245   0.34665   0.00000  Uiso   1.00
C235   C     0.38775   0.93599   0.32340   0.00000  Uiso   1.00
C236   C     0.39689   0.61234   0.39170   0.00000  Uiso   1.00
C237   C     0.39427   0.58196   0.46016   0.00000  Uiso   1.00
C238   C     0.35822   0.54799   0.47519   0.00000  Uiso   1.00
C239   C     0.30637   0.48688   0.52632   0.00000  Uiso   1.00
C240   C     0.44665   0.62101   0.29087   0.00000  Uiso   1.00
C241   C     0.48587   0.59792   0.27456   0.00000  Uiso   1.00
C242   C     0.49172   0.57124   0.20470   0.00000  Uiso   1.00
C243   C     0.51714   0.52360   0.09928   0.00000  Uiso   1.00
C244   C     0.37409   0.64569   0.26878   0.00000  Uiso   1.00
C245   C     0.38387   0.71493   0.29216   0.00000  Uiso   1.00
C246   C     0.36397   0.77015   0.26680   0.00000  Uiso   1.00
C247   C     0.37748   0.82900   0.29493   0.00000  Uiso   1.00
C248   C     0.36465   0.60890   0.34008   0.00000  Uiso   1.00
C249   C     0.32860   0.57496   0.35501   0.00000  Uiso   1.00
C250   C     0.32592   0.54455   0.42347   0.00000  Uiso   1.00
C251   C     0.41441   0.61757   0.23925   0.00000  Uiso   1.00
C252   C     0.42020   0.59092   0.16940   0.00000  Uiso   1.00
C253   C     0.45942   0.56779   0.15298   0.00000  Uiso   1.00
H254   H     0.45854   0.65470   0.40402   0.00000  Uiso   1.00
H255   H     0.45459   0.77979   0.41191   0.00000  Uiso   1.00
H256   H     0.41922   0.58463   0.50009   0.00000  Uiso   1.00
H257   H     0.51081   0.60059   0.31452   0.00000  Uiso   1.00
H258   H     0.43599   0.91697   0.39791   0.00000  Uiso   1.00
H259   H     0.36141   0.50544   0.58384   0.00000  Uiso   1.00
H260   H     0.55455   0.53909   0.19252   0.00000  Uiso   1.00
H261   H     0.34898   0.64301   0.22859   0.00000  Uiso   1.00
H262   H     0.33903   0.76747   0.22685   0.00000  Uiso   1.00
H263   H     0.30366   0.57230   0.31504   0.00000  Uiso   1.00
H264   H     0.39525   0.58826   0.12947   0.00000  Uiso   1.00
H265   H     0.34219   0.90697   0.24771   0.00000  Uiso   1.00
H266   H     0.26761   0.49543   0.43365   0.00000  Uiso   1.00
H267   H     0.46075   0.52909   0.04233   0.00000  Uiso   1.00
O268   O     0.38450   0.99405   0.32485   0.00000  Uiso   1.00
O269   O     0.28667   0.45413   0.56879   0.00000  Uiso   1.00
O270   O     0.54006   0.49828   0.05538   0.00000  Uiso   1.00
N271   N     0.41528   0.89754   0.36279   0.00000  Uiso   1.00
N272   N     0.34556   0.51279   0.53663   0.00000  Uiso   1.00
N273   N     0.52612   0.54423   0.17079   0.00000  Uiso   1.00
N274   N     0.36481   0.89215   0.28197   0.00000  Uiso   1.00
N275   N     0.29509   0.50740   0.45581   0.00000  Uiso   1.00
N276   N     0.47565   0.53885   0.08997   0.00000  Uiso   1.00
C277   C     0.56656   0.84798   0.36382   0.00000  Uiso   1.00
C278   C     0.58389   0.78163   0.34378   0.00000  Uiso   1.00
C279   C     0.57036   0.72285   0.37195   0.00000  Uiso   1.00
C280   C     0.59022   0.66755   0.34665   0.00000  Uiso   1.00
C281   C     0.61225   0.56401   0.32340   0.00000  Uiso   1.00
C282   C     0.60311   0.88766   0.39170   0.00000  Uiso   1.00
C283   C     0.60573   0.91804   0.46016   0.00000  Uiso   1.00
C284   C     0.64178   0.95201   0.47519   0.00000  Uiso   1.00
C285   C     0.69363   0.01312   0.52632   0.00000  Uiso   1.00
C286   C     0.55335   0.87899   0.29087   0.00000  Uiso   1.00
C287   C     0.51413   0.90208   0.27456   0.00000  Uiso   1.00
C288   C     0.50828   0.92876   0.20470   0.00000  Uiso   1.00
C289   C     0.48286   0.97640   0.09928   0.00000  Uiso   1.00
C290   C     0.62591   0.85431   0.26878   0.00000  Uiso   1.00
C291   C     0.61613   0.78507   0.29216   0.00000  Uiso   1.00
C292   C     0.63603   0.72985   0.26680   0.00000  Uiso   1.00
C293   C     0.62252   0.67100   0.29493   0.00000  Uiso   1.00
C294   C     0.63535   0.89110   0.34008   0.00000  Uiso   1.00
C295   C     0.67140   0.92504   0.35501   0.00000  Uiso   1.00
C296   C     0.67408   0.95545   0.42347   0.00000  Uiso   1.00
C297   C     0.58559   0.88243   0.23925   0.00000  Uiso   1.00
C298   C     0.57980   0.90908   0.16940   0.00000  Uiso   1.00
C299   C     0.54058   0.93221   0.15298   0.00000  Uiso   1.00
H300   H     0.54146   0.84530   0.40402   0.00000  Uiso   1.00
H301   H     0.54541   0.72021   0.41191   0.00000  Uiso   1.00
H302   H     0.58078   0.91537   0.50009   0.00000  Uiso   1.00
H303   H     0.48919   0.89941   0.31452   0.00000  Uiso   1.00
H304   H     0.56401   0.58303   0.39791   0.00000  Uiso   1.00
H305   H     0.63859   0.99456   0.58384   0.00000  Uiso   1.00
H306   H     0.44545   0.96091   0.19252   0.00000  Uiso   1.00
H307   H     0.65102   0.85699   0.22859   0.00000  Uiso   1.00
H308   H     0.66097   0.73253   0.22685   0.00000  Uiso   1.00
H309   H     0.69634   0.92770   0.31504   0.00000  Uiso   1.00
H310   H     0.60475   0.91174   0.12947   0.00000  Uiso   1.00
H311   H     0.65781   0.59303   0.24771   0.00000  Uiso   1.00
H312   H     0.73239   0.00457   0.43365   0.00000  Uiso   1.00
H313   H     0.53925   0.97091   0.04233   0.00000  Uiso   1.00
O314   O     0.61550   0.50595   0.32485   0.00000  Uiso   1.00
O315   O     0.71333   0.04587   0.56879   0.00000  Uiso   1.00
O316   O     0.45994   0.00172   0.05538   0.00000  Uiso   1.00
N317   N     0.58472   0.60246   0.36279   0.00000  Uiso   1.00
N318   N     0.65444   0.98721   0.53663   0.00000  Uiso   1.00
N319   N     0.47388   0.95577   0.17079   0.00000  Uiso   1.00
N320   N     0.63519   0.60785   0.28197   0.00000  Uiso   1.00
N321   N     0.70491   0.99260   0.45581   0.00000  Uiso   1.00
N322   N     0.52435   0.96115   0.08997   0.00000  Uiso   1.00
C323   C     0.06656   0.34798   0.86382   0.00000  Uiso   1.00
C324   C     0.08389   0.28163   0.84378   0.00000  Uiso   1.00
C325   C     0.07036   0.22285   0.87195   0.00000  Uiso   1.00
C326   C     0.09022   0.16755   0.84665   0.00000  Uiso   1.00
C327   C     0.11225   0.06401   0.82340   0.00000  Uiso   1.00
C328   C     0.10311   0.38766   0.89170   0.00000  Uiso   1.00
C329   C     0.10573   0.41804   0.96016   0.00000  Uiso   1.00
C330   C     0.14178   0.45201   0.97519   0.00000  Uiso   1.00
C331   C     0.19363   0.51312   0.02632   0.00000  Uiso   1.00
C332   C     0.05335   0.37899   0.79087   0.00000  Uiso   1.00
C333   C     0.01413   0.40208   0.77456   0.00000  Uiso   1.00
C334   C     0.00828   0.42876   0.70470   0.00000  Uiso   1.00
C335   C     0.98286   0.47640   0.59928   0.00000  Uiso   1.00
C336   C     0.12591   0.35431   0.76878   0.00000  Uiso   1.00
C337   C     0.11613   0.28507   0.79216   0.00000  Uiso   1.00
C338   C     0.13603   0.22985   0.76680   0.00000  Uiso   1.00
C339   C     0.12252   0.17100   0.79493   0.00000  Uiso   1.00
C340   C     0.13535   0.39110   0.84008   0.00000  Uiso   1.00
C341   C     0.17140   0.42504   0.85501   0.00000  Uiso   1.00
C342   C     0.17408   0.45545   0.92347   0.00000  Uiso   1.00
C343   C     0.08559   0.38243   0.73925   0.00000  Uiso   1.00
C344   C     0.07980   0.40908   0.66940   0.00000  Uiso   1.00
C345   C     0.04058   0.43221   0.65298   0.00000  Uiso   1.00
H346   H     0.04146   0.34530   0.90402   0.00000  Uiso   1.00
H347   H     0.04541   0.22021   0.91191   0.00000  Uiso   1.00
H348   H     0.08078   0.41537   0.00009   0.00000  Uiso   1.00
H349   H     0.98919   0.39941   0.81452   0.00000  Uiso   1.00
H350   H     0.06401   0.08303   0.89791   0.00000  Uiso   1.00
H351   H     0.13859   0.49456   0.08384   0.00000  Uiso   1.00
H352   H     0.94545   0.46091   0.69252   0.00000  Uiso   1.00
H353   H     0.15102   0.35699   0.72859   0.00000  Uiso   1.00
H354   H     0.16097   0.23253   0.72685   0.00000  Uiso   1.00
H355   H     0.19634   0.42770   0.81504   0.00000  Uiso   1.00
H356   H     0.10475   0.41174   0.62947   0.00000  Uiso   1.00
H357   H     0.15781   0.09303   0.74771   0.00000  Uiso   1.00
H358   H     0.23239   0.50457   0.93365   0.00000  Uiso   1.00
H359   H     0.03925   0.47091   0.54233   0.00000  Uiso   1.00
O360   O     0.11550   0.00595   0.82485   0.00000  Uiso   1.00
O361   O     0.21333   0.54587   0.06879   0.00000  Uiso   1.00
O362   O     0.95994   0.50172   0.55538   0.00000  Uiso   1.00
N363   N     0.08472   0.10246   0.86279   0.00000  Uiso   1.00
N364   N     0.15444   0.48721   0.03663   0.00000  Uiso   1.00
N365   N     0.97388   0.45577   0.67079   0.00000  Uiso   1.00
N366   N     0.13519   0.10785   0.78197   0.00000  Uiso   1.00
N367   N     0.20491   0.49260   0.95581   0.00000  Uiso   1.00
N368   N     0.02435   0.46115   0.58997   0.00000  Uiso   1.00
C369   C     0.93344   0.34798   0.36382   0.00000  Uiso   1.00
C370   C     0.91611   0.28163   0.34378   0.00000  Uiso   1.00
C371   C     0.92964   0.22285   0.37195   0.00000  Uiso   1.00
C372   C     0.90978   0.16755   0.34665   0.00000  Uiso   1.00
C373   C     0.88775   0.06401   0.32340   0.00000  Uiso   1.00
C374   C     0.89689   0.38766   0.39170   0.00000  Uiso   1.00
C375   C     0.89427   0.41804   0.46016   0.00000  Uiso   1.00
C376   C     0.85822   0.45201   0.47519   0.00000  Uiso   1.00
C377   C     0.80637   0.51312   0.52632   0.00000  Uiso   1.00
C378   C     0.94665   0.37899   0.29087   0.00000  Uiso   1.00
C379   C     0.98587   0.40208   0.27456   0.00000  Uiso   1.00
C380   C     0.99172   0.42876   0.20470   0.00000  Uiso   1.00
C381   C     0.01714   0.47640   0.09928   0.00000  Uiso   1.00
C382   C     0.87409   0.35431   0.26878   0.00000  Uiso   1.00
C383   C     0.88387   0.28507   0.29216   0.00000  Uiso   1.00
C384   C     0.86397   0.22985   0.26680   0.00000  Uiso   1.00
C385   C     0.87748   0.17100   0.29493   0.00000  Uiso   1.00
C386   C     0.86465   0.39110   0.34008   0.00000  Uiso   1.00
C387   C     0.82860   0.42504   0.35501   0.00000  Uiso   1.00
C388   C     0.82592   0.45545   0.42347   0.00000  Uiso   1.00
C389   C     0.91441   0.38243   0.23925   0.00000  Uiso   1.00
C390   C     0.92020   0.40908   0.16940   0.00000  Uiso   1.00
C391   C     0.95942   0.43221   0.15298   0.00000  Uiso   1.00
H392   H     0.95854   0.34530   0.40402   0.00000  Uiso   1.00
H393   H     0.95459   0.22021   0.41191   0.00000  Uiso   1.00
H394   H     0.91922   0.41537   0.50009   0.00000  Uiso   1.00
H395   H     0.01081   0.39941   0.31452   0.00000  Uiso   1.00
H396   H     0.93599   0.08303   0.39791   0.00000  Uiso   1.00
H397   H     0.86141   0.49456   0.58384   0.00000  Uiso   1.00
H398   H     0.05455   0.46091   0.19252   0.00000  Uiso   1.00
H399   H     0.84898   0.35699   0.22859   0.00000  Uiso   1.00
H400   H     0.83903   0.23253   0.22685   0.00000  Uiso   1.00
H401   H     0.80366   0.42770   0.31504   0.00000  Uiso   1.00
H402   H     0.89525   0.41174   0.12947   0.00000  Uiso   1.00
H403   H     0.84219   0.09303   0.24771   0.00000  Uiso   1.00
H404   H     0.76761   0.50457   0.43365   0.00000  Uiso   1.00
H405   H     0.96075   0.47091   0.04233   0.00000  Uiso   1.00
O406   O     0.88450   0.00595   0.32485   0.00000  Uiso   1.00
O407   O     0.78667   0.54587   0.56879   0.00000  Uiso   1.00
O408   O     0.04006   0.50172   0.05538   0.00000  Uiso   1.00
N409   N     0.91528   0.10246   0.36279   0.00000  Uiso   1.00
N410   N     0.84556   0.48721   0.53663   0.00000  Uiso   1.00
N411   N     0.02612   0.45577   0.17079   0.00000  Uiso   1.00
N412   N     0.86481   0.10785   0.28197   0.00000  Uiso   1.00
N413   N     0.79509   0.49260   0.45581   0.00000  Uiso   1.00
N414   N     0.97565   0.46115   0.08997   0.00000  Uiso   1.00
C415   C     0.43344   0.84798   0.86382   0.00000  Uiso   1.00
C416   C     0.41611   0.78163   0.84378   0.00000  Uiso   1.00
C417   C     0.42964   0.72285   0.87195   0.00000  Uiso   1.00
C418   C     0.40978   0.66755   0.84665   0.00000  Uiso   1.00
C419   C     0.38775   0.56401   0.82340   0.00000  Uiso   1.00
C420   C     0.39689   0.88766   0.89170   0.00000  Uiso   1.00
C421   C     0.39427   0.91804   0.96016   0.00000  Uiso   1.00
C422   C     0.35822   0.95201   0.97519   0.00000  Uiso   1.00
C423   C     0.30637   0.01312   0.02632   0.00000  Uiso   1.00
C424   C     0.44665   0.87899   0.79087   0.00000  Uiso   1.00
C425   C     0.48587   0.90208   0.77456   0.00000  Uiso   1.00
C426   C     0.49172   0.92876   0.70470   0.00000  Uiso   1.00
C427   C     0.51714   0.97640   0.59928   0.00000  Uiso   1.00
C428   C     0.37409   0.85431   0.76878   0.00000  Uiso   1.00
C429   C     0.38387   0.78507   0.79216   0.00000  Uiso   1.00
C430   C     0.36397   0.72985   0.76680   0.00000  Uiso   1.00
C431   C     0.37748   0.67100   0.79493   0.00000  Uiso   1.00
C432   C     0.36465   0.89110   0.84008   0.00000  Uiso   1.00
C433   C     0.32860   0.92504   0.85501   0.00000  Uiso   1.00
C434   C     0.32592   0.95545   0.92347   0.00000  Uiso   1.00
C435   C     0.41441   0.88243   0.73925   0.00000  Uiso   1.00
C436   C     0.42020   0.90908   0.66940   0.00000  Uiso   1.00
C437   C     0.45942   0.93221   0.65298   0.00000  Uiso   1.00
H438   H     0.45854   0.84530   0.90402   0.00000  Uiso   1.00
H439   H     0.45459   0.72021   0.91191   0.00000  Uiso   1.00
H440   H     0.41922   0.91537   0.00009   0.00000  Uiso   1.00
H441   H     0.51081   0.89941   0.81452   0.00000  Uiso   1.00
H442   H     0.43599   0.58303   0.89791   0.00000  Uiso   1.00
H443   H     0.36141   0.99456   0.08384   0.00000  Uiso   1.00
H444   H     0.55455   0.96091   0.69252   0.00000  Uiso   1.00
H445   H     0.34898   0.85699   0.72859   0.00000  Uiso   1.00
H446   H     0.33903   0.73253   0.72685   0.00000  Uiso   1.00
H447   H     0.30366   0.92770   0.81504   0.00000  Uiso   1.00
H448   H     0.39525   0.91174   0.62947   0.00000  Uiso   1.00
H449   H     0.34219   0.59303   0.74771   0.00000  Uiso   1.00
H450   H     0.26761   0.00457   0.93365   0.00000  Uiso   1.00
H451   H     0.46075   0.97091   0.54233   0.00000  Uiso   1.00
O452   O     0.38450   0.50595   0.82485   0.00000  Uiso   1.00
O453   O     0.28667   0.04587   0.06879   0.00000  Uiso   1.00
O454   O     0.54006   0.00172   0.55538   0.00000  Uiso   1.00
N455   N     0.41528   0.60246   0.86279   0.00000  Uiso   1.00
N456   N     0.34556   0.98721   0.03663   0.00000  Uiso   1.00
N457   N     0.52612   0.95577   0.67079   0.00000  Uiso   1.00
N458   N     0.36481   0.60785   0.78197   0.00000  Uiso   1.00
N459   N     0.29509   0.99260   0.95581   0.00000  Uiso   1.00
N460   N     0.47565   0.96115   0.58997   0.00000  Uiso   1.00
C461   C     0.56656   0.65202   0.86382   0.00000  Uiso   1.00
C462   C     0.58389   0.71837   0.84378   0.00000  Uiso   1.00
C463   C     0.57036   0.77715   0.87195   0.00000  Uiso   1.00
C464   C     0.59022   0.83245   0.84665   0.00000  Uiso   1.00
C465   C     0.61225   0.93599   0.82340   0.00000  Uiso   1.00
C466   C     0.60311   0.61234   0.89170   0.00000  Uiso   1.00
C467   C     0.60573   0.58196   0.96016   0.00000  Uiso   1.00
C468   C     0.64178   0.54799   0.97519   0.00000  Uiso   1.00
C469   C     0.69363   0.48688   0.02632   0.00000  Uiso   1.00
C470   C     0.55335   0.62101   0.79087   0.00000  Uiso   1.00
C471   C     0.51413   0.59792   0.77456   0.00000  Uiso   1.00
C472   C     0.50828   0.57124   0.70470   0.00000  Uiso   1.00
C473   C     0.48286   0.52360   0.59928   0.00000  Uiso   1.00
C474   C     0.62591   0.64569   0.76878   0.00000  Uiso   1.00
C475   C     0.61613   0.71493   0.79216   0.00000  Uiso   1.00
C476   C     0.63603   0.77015   0.76680   0.00000  Uiso   1.00
C477   C     0.62252   0.82900   0.79493   0.00000  Uiso   1.00
C478   C     0.63535   0.60890   0.84008   0.00000  Uiso   1.00
C479   C     0.67140   0.57496   0.85501   0.00000  Uiso   1.00
C480   C     0.67408   0.54455   0.92347   0.00000  Uiso   1.00
C481   C     0.58559   0.61757   0.73925   0.00000  Uiso   1.00
C482   C     0.57980   0.59092   0.66940   0.00000  Uiso   1.00
C483   C     0.54058   0.56779   0.65298   0.00000  Uiso   1.00
H484   H     0.54146   0.65470   0.90402   0.00000  Uiso   1.00
H485   H     0.54541   0.77979   0.91191   0.00000  Uiso   1.00
H486   H     0.58078   0.58463   0.00009   0.00000  Uiso   1.00
H487   H     0.48919   0.60059   0.81452   0.00000  Uiso   1.00
H488   H     0.56401   0.91697   0.89791   0.00000  Uiso   1.00
H489   H     0.63859   0.50544   0.08384   0.00000  Uiso   1.00
H490   H     0.44545   0.53909   0.69252   0.00000  Uiso   1.00
H491   H     0.65102   0.64301   0.72859   0.00000  Uiso   1.00
H492   H     0.66097   0.76747   0.72685   0.00000  Uiso   1.00
H493   H     0.69634   0.57230   0.81504   0.00000  Uiso   1.00
H494   H     0.60475   0.58826   0.62947   0.00000  Uiso   1.00
H495   H     0.65781   0.90697   0.74771   0.00000  Uiso   1.00
H496   H     0.73239   0.49543   0.93365   0.00000  Uiso   1.00
H497   H     0.53925   0.52909   0.54233   0.00000  Uiso   1.00
O498   O     0.61550   0.99405   0.82485   0.00000  Uiso   1.00
O499   O     0.71333   0.45413   0.06879   0.00000  Uiso   1.00
O500   O     0.45994   0.49828   0.55538   0.00000  Uiso   1.00
N501   N     0.58472   0.89754   0.86279   0.00000  Uiso   1.00
N502   N     0.65444   0.51279   0.03663   0.00000  Uiso   1.00
N503   N     0.47388   0.54423   0.67079   0.00000  Uiso   1.00
N504   N     0.63519   0.89215   0.78197   0.00000  Uiso   1.00
N505   N     0.70491   0.50740   0.95581   0.00000  Uiso   1.00
N506   N     0.52435   0.53885   0.58997   0.00000  Uiso   1.00
C507   C     0.06656   0.15202   0.36382   0.00000  Uiso   1.00
C508   C     0.08389   0.21837   0.34378   0.00000  Uiso   1.00
C509   C     0.07036   0.27715   0.37195   0.00000  Uiso   1.00
C510   C     0.09022   0.33245   0.34665   0.00000  Uiso   1.00
C511   C     0.11225   0.43599   0.32340   0.00000  Uiso   1.00
C512   C     0.10311   0.11234   0.39170   0.00000  Uiso   1.00
C513   C     0.10573   0.08196   0.46016   0.00000  Uiso   1.00
C514   C     0.14178   0.04799   0.47519   0.00000  Uiso   1.00
C515   C     0.19363   0.98688   0.52632   0.00000  Uiso   1.00
C516   C     0.05335   0.12101   0.29087   0.00000  Uiso   1.00
C517   C     0.01413   0.09792   0.27456   0.00000  Uiso   1.00
C518   C     0.00828   0.07124   0.20470   0.00000  Uiso   1.00
C519   C     0.98286   0.02360   0.09928   0.00000  Uiso   1.00
C520   C     0.12591   0.14569   0.26878   0.00000  Uiso   1.00
C521   C     0.11613   0.21493   0.29216   0.00000  Uiso   1.00
C522   C     0.13603   0.27015   0.26680   0.00000  Uiso   1.00
C523   C     0.12252   0.32900   0.29493   0.00000  Uiso   1.00
C524   C     0.13535   0.10890   0.34008   0.00000  Uiso   1.00
C525   C     0.17140   0.07496   0.35501   0.00000  Uiso   1.00
C526   C     0.17408   0.04455   0.42347   0.00000  Uiso   1.00
C527   C     0.08559   0.11757   0.23925   0.00000  Uiso   1.00
C528   C     0.07980   0.09092   0.16940   0.00000  Uiso   1.00
C529   C     0.04058   0.06779   0.15298   0.00000  Uiso   1.00
H530   H     0.04146   0.15470   0.40402   0.00000  Uiso   1.00
H531   H     0.04541   0.27979   0.41191   0.00000  Uiso   1.00
H532   H     0.08078   0.08463   0.50009   0.00000  Uiso   1.00
H533   H     0.98919   0.10059   0.31452   0.00000  Uiso   1.00
H534   H     0.06401   0.41697   0.39791   0.00000  Uiso   1.00
H535   H     0.13859   0.00544   0.58384   0.00000  Uiso   1.00
H536   H     0.94545   0.03909   0.19252   0.00000  Uiso   1.00
H537   H     0.15102   0.14301   0.22859   0.00000  Uiso   1.00
H538   H     0.16097   0.26747   0.22685   0.00000  Uiso   1.00
H539   H     0.19634   0.07230   0.31504   0.00000  Uiso   1.00
H540   H     0.10475   0.08826   0.12947   0.00000  Uiso   1.00
H541   H     0.15781   0.40697   0.24771   0.00000  Uiso   1.00
H542   H     0.23239   0.99543   0.43365   0.00000  Uiso   1.00
H543   H     0.03925   0.02909   0.04233   0.00000  Uiso   1.00
O544   O     0.11550   0.49405   0.32485   0.00000  Uiso   1.00
O545   O     0.21333   0.95413   0.56879   0.00000  Uiso   1.00
O546   O     0.95994   0.99828   0.05538   0.00000  Uiso   1.00
N547   N     0.08472   0.39754   0.36279   0.00000  Uiso   1.00
N548   N     0.15444   0.01279   0.53663   0.00000  Uiso   1.00
N549   N     0.97388   0.04423   0.17079   0.00000  Uiso   1.00
N550   N     0.13519   0.39215   0.28197   0.00000  Uiso   1.00
N551   N     0.20491   0.00740   0.45581   0.00000  Uiso   1.00
N552   N     0.02435   0.03885   0.08997   0.00000  Uiso   1.00
C553   C     0.06656   0.84798   0.13618   0.00000  Uiso   1.00
C554   C     0.08389   0.78163   0.15622   0.00000  Uiso   1.00
C555   C     0.07036   0.72285   0.12805   0.00000  Uiso   1.00
C556   C     0.09022   0.66755   0.15335   0.00000  Uiso   1.00
C557   C     0.11225   0.56401   0.17660   0.00000  Uiso   1.00
C558   C     0.10311   0.88766   0.10830   0.00000  Uiso   1.00
C559   C     0.10573   0.91804   0.03984   0.00000  Uiso   1.00
C560   C     0.14178   0.95201   0.02481   0.00000  Uiso   1.00
C561   C     0.19363   0.01312   0.97368   0.00000  Uiso   1.00
C562   C     0.05335   0.87899   0.20913   0.00000  Uiso   1.00
C563   C     0.01413   0.90208   0.22544   0.00000  Uiso   1.00
C564   C     0.00828   0.92876   0.29530   0.00000  Uiso   1.00
C565   C     0.98286   0.97640   0.40072   0.00000  Uiso   1.00
C566   C     0.12591   0.85431   0.23122   0.00000  Uiso   1.00
C567   C     0.11613   0.78507   0.20784   0.00000  Uiso   1.00
C568   C     0.13603   0.72985   0.23320   0.00000  Uiso   1.00
C569   C     0.12252   0.67100   0.20507   0.00000  Uiso   1.00
C570   C     0.13535   0.89110   0.15992   0.00000  Uiso   1.00
C571   C     0.17140   0.92504   0.14499   0.00000  Uiso   1.00
C572   C     0.17408   0.95545   0.07653   0.00000  Uiso   1.00
C573   C     0.08559   0.88243   0.26075   0.00000  Uiso   1.00
C574   C     0.07980   0.90908   0.33060   0.00000  Uiso   1.00
C575   C     0.04058   0.93221   0.34702   0.00000  Uiso   1.00
H576   H     0.04146   0.84530   0.09598   0.00000  Uiso   1.00
H577   H     0.04541   0.72021   0.08809   0.00000  Uiso   1.00
H578   H     0.08078   0.91537   0.99991   0.00000  Uiso   1.00
H579   H     0.98919   0.89941   0.18548   0.00000  Uiso   1.00
H580   H     0.06401   0.58303   0.10209   0.00000  Uiso   1.00
H581   H     0.13859   0.99456   0.91616   0.00000  Uiso   1.00
H582   H     0.94545   0.96091   0.30748   0.00000  Uiso   1.00
H583   H     0.15102   0.85699   0.27141   0.00000  Uiso   1.00
H584   H     0.16097   0.73253   0.27315   0.00000  Uiso   1.00
H585   H     0.19634   0.92770   0.18496   0.00000  Uiso   1.00
H586   H     0.10475   0.91174   0.37053   0.00000  Uiso   1.00
H587   H     0.15781   0.59303   0.25229   0.00000  Uiso   1.00
H588   H     0.23239   0.00457   0.06635   0.00000  Uiso   1.00
H589   H     0.03925   0.97091   0.45767   0.00000  Uiso   1.00
O590   O     0.11550   0.50595   0.17515   0.00000  Uiso   1.00
O591   O     0.21333   0.04587   0.93121   0.00000  Uiso   1.00
O592   O     0.95994   0.00172   0.44462   0.00000  Uiso   1.00
N593   N     0.08472   0.60246   0.13721   0.00000  Uiso   1.00
N594   N     0.15444   0.98721   0.96337   0.00000  Uiso   1.00
N595   N     0.97388   0.95577   0.32921   0.00000  Uiso   1.00
N596   N     0.13519   0.60785   0.21803   0.00000  Uiso   1.00
N597   N     0.20491   0.99260   0.04419   0.00000  Uiso   1.00
N598   N     0.02435   0.96115   0.41003   0.00000  Uiso   1.00
C599   C     0.56656   0.34798   0.63618   0.00000  Uiso   1.00
C600   C     0.58389   0.28163   0.65622   0.00000  Uiso   1.00
C601   C     0.57036   0.22285   0.62805   0.00000  Uiso   1.00
C602   C     0.59022   0.16755   0.65335   0.00000  Uiso   1.00
C603   C     0.61225   0.06401   0.67660   0.00000  Uiso   1.00
C604   C     0.60311   0.38766   0.60830   0.00000  Uiso   1.00
C605   C     0.60573   0.41804   0.53984   0.00000  Uiso   1.00
C606   C     0.64178   0.45201   0.52481   0.00000  Uiso   1.00
C607   C     0.69363   0.51312   0.47368   0.00000  Uiso   1.00
C608   C     0.55335   0.37899   0.70913   0.00000  Uiso   1.00
C609   C     0.51413   0.40208   0.72544   0.00000  Uiso   1.00
C610   C     0.50828   0.42876   0.79530   0.00000  Uiso   1.00
C611   C     0.48286   0.47640   0.90072   0.00000  Uiso   1.00
C612   C     0.62591   0.35431   0.73122   0.00000  Uiso   1.00
C613   C     0.61613   0.28507   0.70784   0.00000  Uiso   1.00
C614   C     0.63603   0.22985   0.73320   0.00000  Uiso   1.00
C615   C     0.62252   0.17100   0.70507   0.00000  Uiso   1.00
C616   C     0.63535   0.39110   0.65992   0.00000  Uiso   1.00
C617   C     0.67140   0.42504   0.64499   0.00000  Uiso   1.00
C618   C     0.67408   0.45545   0.57653   0.00000  Uiso   1.00
C619   C     0.58559   0.38243   0.76075   0.00000  Uiso   1.00
C620   C     0.57980   0.40908   0.83060   0.00000  Uiso   1.00
C621   C     0.54058   0.43221   0.84702   0.00000  Uiso   1.00
H622   H     0.54146   0.34530   0.59598   0.00000  Uiso   1.00
H623   H     0.54541   0.22021   0.58809   0.00000  Uiso   1.00
H624   H     0.58078   0.41537   0.49991   0.00000  Uiso   1.00
H625   H     0.48919   0.39941   0.68548   0.00000  Uiso   1.00
H626   H     0.56401   0.08303   0.60209   0.00000  Uiso   1.00
H627   H     0.63859   0.49456   0.41616   0.00000  Uiso   1.00
H628   H     0.44545   0.46091   0.80748   0.00000  Uiso   1.00
H629   H     0.65102   0.35699   0.77141   0.00000  Uiso   1.00
H630   H     0.66097   0.23253   0.77315   0.00000  Uiso   1.00
H631   H     0.69634   0.42770   0.68496   0.00000  Uiso   1.00
H632   H     0.60475   0.41174   0.87053   0.00000  Uiso   1.00
H633   H     0.65781   0.09303   0.75229   0.00000  Uiso   1.00
H634   H     0.73239   0.50457   0.56635   0.00000  Uiso   1.00
H635   H     0.53925   0.47091   0.95767   0.00000  Uiso   1.00
O636   O     0.61550   0.00595   0.67515   0.00000  Uiso   1.00
O637   O     0.71333   0.54587   0.43121   0.00000  Uiso   1.00
O638   O     0.45994   0.50172   0.94462   0.00000  Uiso   1.00
N639   N     0.58472   0.10246   0.63721   0.00000  Uiso   1.00
N640   N     0.65444   0.48721   0.46337   0.00000  Uiso   1.00
N641   N     0.47388   0.45577   0.82921   0.00000  Uiso   1.00
N642   N     0.63519   0.10785   0.71803   0.00000  Uiso   1.00
N643   N     0.70491   0.49260   0.54419   0.00000  Uiso   1.00
N644   N     0.52435   0.46115   0.91003   0.00000  Uiso   1.00
C645   C     0.43344   0.15202   0.63618   0.00000  Uiso   1.00
C646   C     0.41611   0.21837   0.65622   0.00000  Uiso   1.00
C647   C     0.42964   0.27715   0.62805   0.00000  Uiso   1.00
C648   C     0.40978   0.33245   0.65335   0.00000  Uiso   1.00
C649   C     0.38775   0.43599   0.67660   0.00000  Uiso   1.00
C650   C     0.39689   0.11234   0.60830   0.00000  Uiso   1.00
C651   C     0.39427   0.08196   0.53984   0.00000  Uiso   1.00
C652   C     0.35822   0.04799   0.52481   0.00000  Uiso   1.00
C653   C     0.30637   0.98688   0.47368   0.00000  Uiso   1.00
C654   C     0.44665   0.12101   0.70913   0.00000  Uiso   1.00
C655   C     0.48587   0.09792   0.72544   0.00000  Uiso   1.00
C656   C     0.49172   0.07124   0.79530   0.00000  Uiso   1.00
C657   C     0.51714   0.02360   0.90072   0.00000  Uiso   1.00
C658   C     0.37409   0.14569   0.73122   0.00000  Uiso   1.00
C659   C     0.38387   0.21493   0.70784   0.00000  Uiso   1.00
C660   C     0.36397   0.27015   0.73320   0.00000  Uiso   1.00
C661   C     0.37748   0.32900   0.70507   0.00000  Uiso   1.00
C662   C     0.36465   0.10890   0.65992   0.00000  Uiso   1.00
C663   C     0.32860   0.07496   0.64499   0.00000  Uiso   1.00
C664   C     0.32592   0.04455   0.57653   0.00000  Uiso   1.00
C665   C     0.41441   0.11757   0.76075   0.00000  Uiso   1.00
C666   C     0.42020   0.09092   0.83060   0.00000  Uiso   1.00
C667   C     0.45942   0.06779   0.84702   0.00000  Uiso   1.00
H668   H     0.45854   0.15470   0.59598   0.00000  Uiso   1.00
H669   H     0.45459   0.27979   0.58809   0.00000  Uiso   1.00
H670   H     0.41922   0.08463   0.49991   0.00000  Uiso   1.00
H671   H     0.51081   0.10059   0.68548   0.00000  Uiso   1.00
H672   H     0.43599   0.41697   0.60209   0.00000  Uiso   1.00
H673   H     0.36141   0.00544   0.41616   0.00000  Uiso   1.00
H674   H     0.55455   0.03909   0.80748   0.00000  Uiso   1.00
H675   H     0.34898   0.14301   0.77141   0.00000  Uiso   1.00
H676   H     0.33903   0.26747   0.77315   0.00000  Uiso   1.00
H677   H     0.30366   0.07230   0.68496   0.00000  Uiso   1.00
H678   H     0.39525   0.08826   0.87053   0.00000  Uiso   1.00
H679   H     0.34219   0.40697   0.75229   0.00000  Uiso   1.00
H680   H     0.26761   0.99543   0.56635   0.00000  Uiso   1.00
H681   H     0.46075   0.02909   0.95767   0.00000  Uiso   1.00
O682   O     0.38450   0.49405   0.67515   0.00000  Uiso   1.00
O683   O     0.28667   0.95413   0.43121   0.00000  Uiso   1.00
O684   O     0.54006   0.99828   0.94462   0.00000  Uiso   1.00
N685   N     0.41528   0.39754   0.63721   0.00000  Uiso   1.00
N686   N     0.34556   0.01279   0.46337   0.00000  Uiso   1.00
N687   N     0.52612   0.04423   0.82921   0.00000  Uiso   1.00
N688   N     0.36481   0.39215   0.71803   0.00000  Uiso   1.00
N689   N     0.29509   0.00740   0.54419   0.00000  Uiso   1.00
N690   N     0.47565   0.03885   0.91003   0.00000  Uiso   1.00
C691   C     0.93344   0.65202   0.13618   0.00000  Uiso   1.00
C692   C     0.91611   0.71837   0.15622   0.00000  Uiso   1.00
C693   C     0.92964   0.77715   0.12805   0.00000  Uiso   1.00
C694   C     0.90978   0.83245   0.15335   0.00000  Uiso   1.00
C695   C     0.88775   0.93599   0.17660   0.00000  Uiso   1.00
C696   C     0.89689   0.61234   0.10830   0.00000  Uiso   1.00
C697   C     0.89427   0.58196   0.03984   0.00000  Uiso   1.00
C698   C     0.85822   0.54799   0.02481   0.00000  Uiso   1.00
C699   C     0.80637   0.48688   0.97368   0.00000  Uiso   1.00
C700   C     0.94665   0.62101   0.20913   0.00000  Uiso   1.00
C701   C     0.98587   0.59792   0.22544   0.00000  Uiso   1.00
C702   C     0.99172   0.57124   0.29530   0.00000  Uiso   1.00
C703   C     0.01714   0.52360   0.40072   0.00000  Uiso   1.00
C704   C     0.87409   0.64569   0.23122   0.00000  Uiso   1.00
C705   C     0.88387   0.71493   0.20784   0.00000  Uiso   1.00
C706   C     0.86397   0.77015   0.23320   0.00000  Uiso   1.00
C707   C     0.87748   0.82900   0.20507   0.00000  Uiso   1.00
C708   C     0.86465   0.60890   0.15992   0.00000  Uiso   1.00
C709   C     0.82860   0.57496   0.14499   0.00000  Uiso   1.00
C710   C     0.82592   0.54455   0.07653   0.00000  Uiso   1.00
C711   C     0.91441   0.61757   0.26075   0.00000  Uiso   1.00
C712   C     0.92020   0.59092   0.33060   0.00000  Uiso   1.00
C713   C     0.95942   0.56779   0.34702   0.00000  Uiso   1.00
H714   H     0.95854   0.65470   0.09598   0.00000  Uiso   1.00
H715   H     0.95459   0.77979   0.08809   0.00000  Uiso   1.00
H716   H     0.91922   0.58463   0.99991   0.00000  Uiso   1.00
H717   H     0.01081   0.60059   0.18548   0.00000  Uiso   1.00
H718   H     0.93599   0.91697   0.10209   0.00000  Uiso   1.00
H719   H     0.86141   0.50544   0.91616   0.00000  Uiso   1.00
H720   H     0.05455   0.53909   0.30748   0.00000  Uiso   1.00
H721   H     0.84898   0.64301   0.27141   0.00000  Uiso   1.00
H722   H     0.83903   0.76747   0.27315   0.00000  Uiso   1.00
H723   H     0.80366   0.57230   0.18496   0.00000  Uiso   1.00
H724   H     0.89525   0.58826   0.37053   0.00000  Uiso   1.00
H725   H     0.84219   0.90697   0.25229   0.00000  Uiso   1.00
H726   H     0.76761   0.49543   0.06635   0.00000  Uiso   1.00
H727   H     0.96075   0.52909   0.45767   0.00000  Uiso   1.00
O728   O     0.88450   0.99405   0.17515   0.00000  Uiso   1.00
O729   O     0.78667   0.45413   0.93121   0.00000  Uiso   1.00
O730   O     0.04006   0.49828   0.44462   0.00000  Uiso   1.00
N731   N     0.91528   0.89754   0.13721   0.00000  Uiso   1.00
N732   N     0.84556   0.51279   0.96337   0.00000  Uiso   1.00
N733   N     0.02612   0.54423   0.32921   0.00000  Uiso   1.00
N734   N     0.86481   0.89215   0.21803   0.00000  Uiso   1.00
N735   N     0.79509   0.50740   0.04419   0.00000  Uiso   1.00
N736   N     0.97565   0.53885   0.41003   0.00000  Uiso   1.00
