data_job_06797
_audit_creation_date              2018-12-19
_audit_creation_method            'Materials Studio'
_symmetry_space_group_name_H-M    'P1'
_symmetry_Int_Tables_number       1
_symmetry_cell_setting            triclinic
loop_
_symmetry_equiv_pos_as_xyz
  x,y,z
_cell_length_a                    26.7831
_cell_length_b                    15.3628
_cell_length_c                    37.4235
_cell_angle_alpha                 90.0000
_cell_angle_beta                  113.3986
_cell_angle_gamma                 90.0000
loop_
_atom_site_label
_atom_site_type_symbol
_atom_site_fract_x
_atom_site_fract_y
_atom_site_fract_z
_atom_site_U_iso_or_equiv
_atom_site_adp_type
_atom_site_occupancy
C1     C     0.29365   0.66321   0.61956   0.00000  Uiso   1.00
C2     C     0.33165   0.70060   0.60204   0.00000  Uiso   1.00
C3     C     0.83404   0.17486   0.56721   0.00000  Uiso   1.00
C4     C     0.87158   0.21705   0.55624   0.00000  Uiso   1.00
C5     C     0.92545   0.26512   0.52554   0.00000  Uiso   1.00
C6     C     0.33015   0.63145   0.66019   0.00000  Uiso   1.00
C7     C     0.83128   0.04756   0.67425   0.00000  Uiso   1.00
C8     C     0.86755   0.03155   0.71223   0.00000  Uiso   1.00
C9     C     0.91906   0.97227   0.77183   0.00000  Uiso   1.00
C10    C     0.26192   0.74028   0.62553   0.00000  Uiso   1.00
C11    C     0.20567   0.74790   0.61046   0.00000  Uiso   1.00
C12    C     0.18450   0.82351   0.61926   0.00000  Uiso   1.00
C13    C     0.13007   0.93321   0.62503   0.00000  Uiso   1.00
C14    C     0.35605   0.78393   0.66200   0.00000  Uiso   1.00
C15    C     0.36554   0.76617   0.62510   0.00000  Uiso   1.00
C16    C     0.40309   0.80842   0.61417   0.00000  Uiso   1.00
C17    C     0.40554   0.78275   0.57933   0.00000  Uiso   1.00
C18    C     0.36404   0.69702   0.68325   0.00000  Uiso   1.00
C19    C     0.40032   0.68113   0.72121   0.00000  Uiso   1.00
C20    C     0.90151   0.09724   0.73533   0.00000  Uiso   1.00
C21    C     0.29581   0.80586   0.64858   0.00000  Uiso   1.00
C22    C     0.27472   0.88147   0.65741   0.00000  Uiso   1.00
C23    C     0.21846   0.88920   0.64236   0.00000  Uiso   1.00
H24    H     0.76726   0.11215   0.60161   0.00000  Uiso   1.00
H25    H     0.80781   0.12411   0.54938   0.00000  Uiso   1.00
H26    H     0.80504   0.99683   0.65641   0.00000  Uiso   1.00
H27    H     0.17946   0.69714   0.59262   0.00000  Uiso   1.00
H28    H     0.86773   0.16625   0.50165   0.00000  Uiso   1.00
H29    H     0.86187   0.89790   0.72732   0.00000  Uiso   1.00
H30    H     0.09706   0.82029   0.59281   0.00000  Uiso   1.00
H31    H     0.38244   0.83498   0.67995   0.00000  Uiso   1.00
H32    H     0.42931   0.85916   0.63202   0.00000  Uiso   1.00
H33    H     0.42654   0.73189   0.73905   0.00000  Uiso   1.00
H34    H     0.30096   0.93220   0.67526   0.00000  Uiso   1.00
H35    H     0.46634   0.85703   0.56872   0.00000  Uiso   1.00
H36    H     0.96049   0.08868   0.79440   0.00000  Uiso   1.00
H37    H     0.19568   0.01107   0.65988   0.00000  Uiso   1.00
O38    O     0.94580   0.27351   0.50225   0.00000  Uiso   1.00
O39    O     0.93811   0.92145   0.79833   0.00000  Uiso   1.00
O40    O     0.09069   0.97561   0.62184   0.00000  Uiso   1.00
N41    N     0.88450   0.20785   0.52401   0.00000  Uiso   1.00
N42    N     0.87903   0.95695   0.73500   0.00000  Uiso   1.00
N43    N     0.13145   0.85184   0.60925   0.00000  Uiso   1.00
N44    N     0.93756   0.31050   0.56010   0.00000  Uiso   1.00
N45    N     0.93209   0.05960   0.77109   0.00000  Uiso   1.00
N46    N     0.18452   0.95449   0.64534   0.00000  Uiso   1.00
C47    C     0.11423   0.49387   0.60048   0.00000  Uiso   1.00
C48    C     0.05818   0.53488   0.58918   0.00000  Uiso   1.00
C49    C     0.03672   0.60141   0.56233   0.00000  Uiso   1.00
C50    C     0.98473   0.62994   0.55608   0.00000  Uiso   1.00
C51    C     0.90218   0.69924   0.53553   0.00000  Uiso   1.00
C52    C     0.14292   0.50382   0.64453   0.00000  Uiso   1.00
C53    C     0.19272   0.54422   0.66421   0.00000  Uiso   1.00
C54    C     0.21206   0.54659   0.70455   0.00000  Uiso   1.00
C55    C     0.26109   0.56760   0.76993   0.00000  Uiso   1.00
C56    C     0.10447   0.39657   0.59284   0.00000  Uiso   1.00
C57    C     0.12194   0.34678   0.56907   0.00000  Uiso   1.00
C58    C     0.10891   0.25885   0.56590   0.00000  Uiso   1.00
C59    C     0.09824   0.11335   0.55101   0.00000  Uiso   1.00
C60    C     0.56005   0.92624   0.63712   0.00000  Uiso   1.00
C61    C     0.52875   0.99815   0.60909   0.00000  Uiso   1.00
C62    C     0.47677   0.02658   0.60287   0.00000  Uiso   1.00
C63    C     0.95524   0.59314   0.57602   0.00000  Uiso   1.00
C64    C     0.61349   0.96709   0.66443   0.00000  Uiso   1.00
C65    C     0.63277   0.96939   0.70476   0.00000  Uiso   1.00
C66    C     0.18257   0.50979   0.72449   0.00000  Uiso   1.00
C67    C     0.07503   0.35983   0.61274   0.00000  Uiso   1.00
C68    C     0.06198   0.27196   0.60961   0.00000  Uiso   1.00
C69    C     0.07943   0.22205   0.58584   0.00000  Uiso   1.00
H70    H     0.13715   0.52247   0.58498   0.00000  Uiso   1.00
H71    H     0.05952   0.62983   0.54693   0.00000  Uiso   1.00
H72    H     0.21549   0.57263   0.64880   0.00000  Uiso   1.00
H73    H     0.64471   0.87523   0.55367   0.00000  Uiso   1.00
H74    H     0.96047   0.73267   0.51354   0.00000  Uiso   1.00
H75    H     0.28935   0.61205   0.72833   0.00000  Uiso   1.00
H76    H     0.14012   0.19579   0.52773   0.00000  Uiso   1.00
H77    H     0.53713   0.89764   0.65262   0.00000  Uiso   1.00
H78    H     0.45400   0.99814   0.61828   0.00000  Uiso   1.00
H79    H     0.60998   0.94095   0.72015   0.00000  Uiso   1.00
H80    H     0.03921   0.24355   0.62502   0.00000  Uiso   1.00
H81    H     0.37483   0.12579   0.57145   0.00000  Uiso   1.00
H82    H     0.70372   0.00517   0.78624   0.00000  Uiso   1.00
H83    H     0.05448   0.08892   0.58564   0.00000  Uiso   1.00
O84    O     0.86478   0.74762   0.51870   0.00000  Uiso   1.00
O85    O     0.29627   0.58935   0.80049   0.00000  Uiso   1.00
O86    O     0.10047   0.04324   0.53730   0.00000  Uiso   1.00
N87    N     0.95172   0.69371   0.53188   0.00000  Uiso   1.00
N88    N     0.25920   0.58095   0.73269   0.00000  Uiso   1.00
N89    N     0.11969   0.19178   0.54515   0.00000  Uiso   1.00
N90    N     0.90564   0.63620   0.56304   0.00000  Uiso   1.00
N91    N     0.21312   0.52344   0.76385   0.00000  Uiso   1.00
N92    N     0.07361   0.13427   0.57631   0.00000  Uiso   1.00
C93    C     0.31326   0.25544   0.64810   0.00000  Uiso   1.00
C94    C     0.30316   0.16844   0.62677   0.00000  Uiso   1.00
C95    C     0.25316   0.13804   0.60070   0.00000  Uiso   1.00
C96    C     0.25244   0.05676   0.58427   0.00000  Uiso   1.00
C97    C     0.22952   0.92910   0.54975   0.00000  Uiso   1.00
C98    C     0.34051   0.23391   0.69136   0.00000  Uiso   1.00
C99    C     0.32192   0.25857   0.71960   0.00000  Uiso   1.00
C100   C     0.35265   0.23242   0.75755   0.00000  Uiso   1.00
C101   C     0.38775   0.20647   0.82332   0.00000  Uiso   1.00
C102   C     0.85615   0.80212   0.63794   0.00000  Uiso   1.00
C103   C     0.85072   0.88414   0.62127   0.00000  Uiso   1.00
C104   C     0.89462   0.91543   0.61426   0.00000  Uiso   1.00
C105   C     0.95400   0.99538   0.59709   0.00000  Uiso   1.00
C106   C     0.40090   0.16518   0.66529   0.00000  Uiso   1.00
C107   C     0.35077   0.11941   0.63611   0.00000  Uiso   1.00
C108   C     0.35012   0.03816   0.61972   0.00000  Uiso   1.00
C109   C     0.30013   0.00764   0.59363   0.00000  Uiso   1.00
C110   C     0.38812   0.18488   0.70071   0.00000  Uiso   1.00
C111   C     0.41889   0.15870   0.73863   0.00000  Uiso   1.00
C112   C     0.40034   0.18331   0.76691   0.00000  Uiso   1.00
C113   C     0.90376   0.75309   0.64728   0.00000  Uiso   1.00
C114   C     0.94768   0.78426   0.64030   0.00000  Uiso   1.00
C115   C     0.94231   0.86631   0.62362   0.00000  Uiso   1.00
H116   H     0.27620   0.29362   0.64083   0.00000  Uiso   1.00
H117   H     0.21632   0.17600   0.59348   0.00000  Uiso   1.00
H118   H     0.28508   0.29652   0.71236   0.00000  Uiso   1.00
H119   H     0.81387   0.92207   0.61405   0.00000  Uiso   1.00
H120   H     0.17094   0.02395   0.54511   0.00000  Uiso   1.00
H121   H     0.31593   0.27811   0.79579   0.00000  Uiso   1.00
H122   H     0.87664   0.04285   0.58848   0.00000  Uiso   1.00
H123   H     0.43796   0.12700   0.67257   0.00000  Uiso   1.00
H124   H     0.38697   0.00023   0.62696   0.00000  Uiso   1.00
H125   H     0.45573   0.12076   0.74585   0.00000  Uiso   1.00
H126   H     0.98452   0.74630   0.64753   0.00000  Uiso   1.00
H127   H     0.30944   0.88130   0.57229   0.00000  Uiso   1.00
H128   H     0.45443   0.13546   0.82297   0.00000  Uiso   1.00
H129   H     0.01514   0.90020   0.61566   0.00000  Uiso   1.00
O130   O     0.20372   0.87223   0.52814   0.00000  Uiso   1.00
O131   O     0.39395   0.20569   0.85702   0.00000  Uiso   1.00
O132   O     0.97359   0.05302   0.58503   0.00000  Uiso   1.00
N133   N     0.21054   0.00778   0.55776   0.00000  Uiso   1.00
N134   N     0.34609   0.24540   0.79213   0.00000  Uiso   1.00
N135   N     0.90285   0.99292   0.59832   0.00000  Uiso   1.00
N136   N     0.28506   0.93102   0.57238   0.00000  Uiso   1.00
N137   N     0.42061   0.16863   0.80675   0.00000  Uiso   1.00
N138   N     0.97737   0.91615   0.61295   0.00000  Uiso   1.00
C139   C     0.79365   0.16321   0.61956   0.00000  Uiso   1.00
C140   C     0.83165   0.20060   0.60204   0.00000  Uiso   1.00
C141   C     0.33404   0.67486   0.56721   0.00000  Uiso   1.00
C142   C     0.37158   0.71705   0.55624   0.00000  Uiso   1.00
C143   C     0.42545   0.76512   0.52554   0.00000  Uiso   1.00
C144   C     0.83015   0.13145   0.66019   0.00000  Uiso   1.00
C145   C     0.33128   0.54756   0.67425   0.00000  Uiso   1.00
C146   C     0.36755   0.53155   0.71223   0.00000  Uiso   1.00
C147   C     0.41906   0.47227   0.77183   0.00000  Uiso   1.00
C148   C     0.76192   0.24028   0.62553   0.00000  Uiso   1.00
C149   C     0.70567   0.24790   0.61046   0.00000  Uiso   1.00
C150   C     0.68450   0.32351   0.61926   0.00000  Uiso   1.00
C151   C     0.63007   0.43321   0.62503   0.00000  Uiso   1.00
C152   C     0.85605   0.28393   0.66200   0.00000  Uiso   1.00
C153   C     0.86554   0.26617   0.62510   0.00000  Uiso   1.00
C154   C     0.90309   0.30842   0.61417   0.00000  Uiso   1.00
C155   C     0.90554   0.28275   0.57933   0.00000  Uiso   1.00
C156   C     0.86404   0.19702   0.68325   0.00000  Uiso   1.00
C157   C     0.90032   0.18113   0.72121   0.00000  Uiso   1.00
C158   C     0.40151   0.59724   0.73533   0.00000  Uiso   1.00
C159   C     0.79581   0.30586   0.64858   0.00000  Uiso   1.00
C160   C     0.77472   0.38147   0.65741   0.00000  Uiso   1.00
C161   C     0.71846   0.38920   0.64236   0.00000  Uiso   1.00
H162   H     0.26726   0.61215   0.60161   0.00000  Uiso   1.00
H163   H     0.30781   0.62411   0.54938   0.00000  Uiso   1.00
H164   H     0.30504   0.49683   0.65641   0.00000  Uiso   1.00
H165   H     0.67946   0.19714   0.59262   0.00000  Uiso   1.00
H166   H     0.36773   0.66625   0.50165   0.00000  Uiso   1.00
H167   H     0.36187   0.39790   0.72732   0.00000  Uiso   1.00
H168   H     0.59706   0.32029   0.59281   0.00000  Uiso   1.00
H169   H     0.88244   0.33498   0.67995   0.00000  Uiso   1.00
H170   H     0.92931   0.35916   0.63202   0.00000  Uiso   1.00
H171   H     0.92654   0.23189   0.73905   0.00000  Uiso   1.00
H172   H     0.80096   0.43220   0.67526   0.00000  Uiso   1.00
H173   H     0.96634   0.35703   0.56872   0.00000  Uiso   1.00
H174   H     0.46049   0.58868   0.79440   0.00000  Uiso   1.00
H175   H     0.69568   0.51107   0.65988   0.00000  Uiso   1.00
O176   O     0.44580   0.77351   0.50225   0.00000  Uiso   1.00
O177   O     0.43811   0.42145   0.79833   0.00000  Uiso   1.00
O178   O     0.59069   0.47561   0.62184   0.00000  Uiso   1.00
N179   N     0.38450   0.70785   0.52401   0.00000  Uiso   1.00
N180   N     0.37903   0.45695   0.73500   0.00000  Uiso   1.00
N181   N     0.63145   0.35184   0.60925   0.00000  Uiso   1.00
N182   N     0.43756   0.81050   0.56010   0.00000  Uiso   1.00
N183   N     0.43209   0.55960   0.77109   0.00000  Uiso   1.00
N184   N     0.68452   0.45449   0.64534   0.00000  Uiso   1.00
C185   C     0.61423   0.99387   0.60048   0.00000  Uiso   1.00
C186   C     0.55818   0.03488   0.58918   0.00000  Uiso   1.00
C187   C     0.53672   0.10141   0.56233   0.00000  Uiso   1.00
C188   C     0.48473   0.12994   0.55608   0.00000  Uiso   1.00
C189   C     0.40218   0.19924   0.53553   0.00000  Uiso   1.00
C190   C     0.64292   0.00382   0.64453   0.00000  Uiso   1.00
C191   C     0.69272   0.04422   0.66421   0.00000  Uiso   1.00
C192   C     0.71206   0.04659   0.70455   0.00000  Uiso   1.00
C193   C     0.76109   0.06760   0.76993   0.00000  Uiso   1.00
C194   C     0.60447   0.89657   0.59284   0.00000  Uiso   1.00
C195   C     0.62194   0.84678   0.56907   0.00000  Uiso   1.00
C196   C     0.60891   0.75885   0.56590   0.00000  Uiso   1.00
C197   C     0.59824   0.61335   0.55101   0.00000  Uiso   1.00
C198   C     0.06005   0.42624   0.63712   0.00000  Uiso   1.00
C199   C     0.02875   0.49815   0.60909   0.00000  Uiso   1.00
C200   C     0.97677   0.52658   0.60287   0.00000  Uiso   1.00
C201   C     0.45524   0.09314   0.57602   0.00000  Uiso   1.00
C202   C     0.11349   0.46709   0.66443   0.00000  Uiso   1.00
C203   C     0.13277   0.46939   0.70476   0.00000  Uiso   1.00
C204   C     0.68257   0.00979   0.72449   0.00000  Uiso   1.00
C205   C     0.57503   0.85983   0.61274   0.00000  Uiso   1.00
C206   C     0.56198   0.77196   0.60961   0.00000  Uiso   1.00
C207   C     0.57943   0.72205   0.58584   0.00000  Uiso   1.00
H208   H     0.63715   0.02247   0.58498   0.00000  Uiso   1.00
H209   H     0.55952   0.12983   0.54693   0.00000  Uiso   1.00
H210   H     0.71549   0.07263   0.64880   0.00000  Uiso   1.00
H211   H     0.14471   0.37523   0.55367   0.00000  Uiso   1.00
H212   H     0.46047   0.23267   0.51354   0.00000  Uiso   1.00
H213   H     0.78935   0.11205   0.72833   0.00000  Uiso   1.00
H214   H     0.64012   0.69579   0.52773   0.00000  Uiso   1.00
H215   H     0.03713   0.39764   0.65262   0.00000  Uiso   1.00
H216   H     0.95400   0.49814   0.61828   0.00000  Uiso   1.00
H217   H     0.10998   0.44095   0.72015   0.00000  Uiso   1.00
H218   H     0.53921   0.74355   0.62502   0.00000  Uiso   1.00
H219   H     0.87483   0.62579   0.57145   0.00000  Uiso   1.00
H220   H     0.20372   0.50517   0.78624   0.00000  Uiso   1.00
H221   H     0.55448   0.58892   0.58564   0.00000  Uiso   1.00
O222   O     0.36478   0.24762   0.51870   0.00000  Uiso   1.00
O223   O     0.79627   0.08935   0.80049   0.00000  Uiso   1.00
O224   O     0.60047   0.54324   0.53730   0.00000  Uiso   1.00
N225   N     0.45172   0.19371   0.53188   0.00000  Uiso   1.00
N226   N     0.75920   0.08095   0.73269   0.00000  Uiso   1.00
N227   N     0.61969   0.69178   0.54515   0.00000  Uiso   1.00
N228   N     0.40564   0.13620   0.56304   0.00000  Uiso   1.00
N229   N     0.71312   0.02344   0.76385   0.00000  Uiso   1.00
N230   N     0.57361   0.63427   0.57631   0.00000  Uiso   1.00
C231   C     0.81326   0.75544   0.64810   0.00000  Uiso   1.00
C232   C     0.80316   0.66844   0.62677   0.00000  Uiso   1.00
C233   C     0.75316   0.63804   0.60070   0.00000  Uiso   1.00
C234   C     0.75244   0.55676   0.58427   0.00000  Uiso   1.00
C235   C     0.72952   0.42910   0.54975   0.00000  Uiso   1.00
C236   C     0.84051   0.73391   0.69136   0.00000  Uiso   1.00
C237   C     0.82192   0.75857   0.71960   0.00000  Uiso   1.00
C238   C     0.85265   0.73242   0.75755   0.00000  Uiso   1.00
C239   C     0.88775   0.70647   0.82332   0.00000  Uiso   1.00
C240   C     0.35615   0.30212   0.63794   0.00000  Uiso   1.00
C241   C     0.35072   0.38414   0.62127   0.00000  Uiso   1.00
C242   C     0.39462   0.41543   0.61426   0.00000  Uiso   1.00
C243   C     0.45400   0.49538   0.59709   0.00000  Uiso   1.00
C244   C     0.90090   0.66518   0.66529   0.00000  Uiso   1.00
C245   C     0.85077   0.61941   0.63611   0.00000  Uiso   1.00
C246   C     0.85012   0.53816   0.61972   0.00000  Uiso   1.00
C247   C     0.80013   0.50764   0.59363   0.00000  Uiso   1.00
C248   C     0.88812   0.68488   0.70071   0.00000  Uiso   1.00
C249   C     0.91889   0.65870   0.73863   0.00000  Uiso   1.00
C250   C     0.90034   0.68331   0.76691   0.00000  Uiso   1.00
C251   C     0.40376   0.25309   0.64728   0.00000  Uiso   1.00
C252   C     0.44768   0.28426   0.64030   0.00000  Uiso   1.00
C253   C     0.44231   0.36631   0.62362   0.00000  Uiso   1.00
H254   H     0.77620   0.79362   0.64083   0.00000  Uiso   1.00
H255   H     0.71632   0.67600   0.59348   0.00000  Uiso   1.00
H256   H     0.78508   0.79652   0.71236   0.00000  Uiso   1.00
H257   H     0.31387   0.42207   0.61405   0.00000  Uiso   1.00
H258   H     0.67094   0.52395   0.54511   0.00000  Uiso   1.00
H259   H     0.81593   0.77811   0.79579   0.00000  Uiso   1.00
H260   H     0.37664   0.54285   0.58848   0.00000  Uiso   1.00
H261   H     0.93796   0.62700   0.67257   0.00000  Uiso   1.00
H262   H     0.88697   0.50023   0.62696   0.00000  Uiso   1.00
H263   H     0.95573   0.62076   0.74585   0.00000  Uiso   1.00
H264   H     0.48452   0.24630   0.64753   0.00000  Uiso   1.00
H265   H     0.80944   0.38130   0.57229   0.00000  Uiso   1.00
H266   H     0.95443   0.63546   0.82297   0.00000  Uiso   1.00
H267   H     0.51514   0.40020   0.61566   0.00000  Uiso   1.00
O268   O     0.70372   0.37223   0.52814   0.00000  Uiso   1.00
O269   O     0.89395   0.70569   0.85702   0.00000  Uiso   1.00
O270   O     0.47359   0.55302   0.58503   0.00000  Uiso   1.00
N271   N     0.71054   0.50778   0.55776   0.00000  Uiso   1.00
N272   N     0.84609   0.74540   0.79213   0.00000  Uiso   1.00
N273   N     0.40285   0.49292   0.59832   0.00000  Uiso   1.00
N274   N     0.78506   0.43102   0.57238   0.00000  Uiso   1.00
N275   N     0.92061   0.66863   0.80675   0.00000  Uiso   1.00
N276   N     0.47737   0.41615   0.61295   0.00000  Uiso   1.00
C277   C     0.70635   0.66321   0.88044   0.00000  Uiso   1.00
C278   C     0.66835   0.70060   0.89796   0.00000  Uiso   1.00
C279   C     0.16596   0.17486   0.93279   0.00000  Uiso   1.00
C280   C     0.12842   0.21705   0.94376   0.00000  Uiso   1.00
C281   C     0.07455   0.26512   0.97446   0.00000  Uiso   1.00
C282   C     0.66985   0.63145   0.83981   0.00000  Uiso   1.00
C283   C     0.16872   0.04756   0.82575   0.00000  Uiso   1.00
C284   C     0.13245   0.03155   0.78777   0.00000  Uiso   1.00
C285   C     0.08094   0.97227   0.72817   0.00000  Uiso   1.00
C286   C     0.73808   0.74028   0.87447   0.00000  Uiso   1.00
C287   C     0.79433   0.74790   0.88954   0.00000  Uiso   1.00
C288   C     0.81550   0.82351   0.88074   0.00000  Uiso   1.00
C289   C     0.86993   0.93321   0.87497   0.00000  Uiso   1.00
C290   C     0.64395   0.78393   0.83800   0.00000  Uiso   1.00
C291   C     0.63446   0.76617   0.87490   0.00000  Uiso   1.00
C292   C     0.59691   0.80842   0.88583   0.00000  Uiso   1.00
C293   C     0.59446   0.78275   0.92067   0.00000  Uiso   1.00
C294   C     0.63596   0.69702   0.81675   0.00000  Uiso   1.00
C295   C     0.59968   0.68113   0.77879   0.00000  Uiso   1.00
C296   C     0.09849   0.09724   0.76467   0.00000  Uiso   1.00
C297   C     0.70419   0.80586   0.85142   0.00000  Uiso   1.00
C298   C     0.72528   0.88147   0.84259   0.00000  Uiso   1.00
C299   C     0.78154   0.88920   0.85764   0.00000  Uiso   1.00
H300   H     0.23274   0.11215   0.89839   0.00000  Uiso   1.00
H301   H     0.19219   0.12411   0.95062   0.00000  Uiso   1.00
H302   H     0.19496   0.99683   0.84359   0.00000  Uiso   1.00
H303   H     0.82054   0.69714   0.90738   0.00000  Uiso   1.00
H304   H     0.13227   0.16625   0.99835   0.00000  Uiso   1.00
H305   H     0.13813   0.89790   0.77268   0.00000  Uiso   1.00
H306   H     0.90294   0.82029   0.90719   0.00000  Uiso   1.00
H307   H     0.61756   0.83498   0.82005   0.00000  Uiso   1.00
H308   H     0.57069   0.85916   0.86798   0.00000  Uiso   1.00
H309   H     0.57346   0.73189   0.76095   0.00000  Uiso   1.00
H310   H     0.69904   0.93220   0.82474   0.00000  Uiso   1.00
H311   H     0.53366   0.85703   0.93128   0.00000  Uiso   1.00
H312   H     0.03951   0.08868   0.70560   0.00000  Uiso   1.00
H313   H     0.80432   0.01107   0.84012   0.00000  Uiso   1.00
O314   O     0.05420   0.27351   0.99775   0.00000  Uiso   1.00
O315   O     0.06189   0.92145   0.70167   0.00000  Uiso   1.00
O316   O     0.90931   0.97561   0.87816   0.00000  Uiso   1.00
N317   N     0.11550   0.20785   0.97599   0.00000  Uiso   1.00
N318   N     0.12097   0.95695   0.76500   0.00000  Uiso   1.00
N319   N     0.86855   0.85184   0.89075   0.00000  Uiso   1.00
N320   N     0.06244   0.31050   0.93990   0.00000  Uiso   1.00
N321   N     0.06791   0.05960   0.72891   0.00000  Uiso   1.00
N322   N     0.81548   0.95449   0.85466   0.00000  Uiso   1.00
C323   C     0.88577   0.49387   0.89952   0.00000  Uiso   1.00
C324   C     0.94182   0.53488   0.91082   0.00000  Uiso   1.00
C325   C     0.96328   0.60141   0.93767   0.00000  Uiso   1.00
C326   C     0.01527   0.62994   0.94392   0.00000  Uiso   1.00
C327   C     0.09782   0.69924   0.96447   0.00000  Uiso   1.00
C328   C     0.85708   0.50382   0.85547   0.00000  Uiso   1.00
C329   C     0.80728   0.54422   0.83579   0.00000  Uiso   1.00
C330   C     0.78794   0.54659   0.79545   0.00000  Uiso   1.00
C331   C     0.73891   0.56760   0.73007   0.00000  Uiso   1.00
C332   C     0.89553   0.39657   0.90716   0.00000  Uiso   1.00
C333   C     0.87806   0.34678   0.93093   0.00000  Uiso   1.00
C334   C     0.89109   0.25885   0.93410   0.00000  Uiso   1.00
C335   C     0.90176   0.11335   0.94899   0.00000  Uiso   1.00
C336   C     0.43995   0.92624   0.86288   0.00000  Uiso   1.00
C337   C     0.47125   0.99815   0.89091   0.00000  Uiso   1.00
C338   C     0.52323   0.02658   0.89713   0.00000  Uiso   1.00
C339   C     0.04476   0.59314   0.92398   0.00000  Uiso   1.00
C340   C     0.38651   0.96709   0.83557   0.00000  Uiso   1.00
C341   C     0.36723   0.96939   0.79524   0.00000  Uiso   1.00
C342   C     0.81743   0.50979   0.77551   0.00000  Uiso   1.00
C343   C     0.92497   0.35983   0.88726   0.00000  Uiso   1.00
C344   C     0.93802   0.27196   0.89039   0.00000  Uiso   1.00
C345   C     0.92057   0.22205   0.91416   0.00000  Uiso   1.00
H346   H     0.86285   0.52247   0.91502   0.00000  Uiso   1.00
H347   H     0.94048   0.62983   0.95307   0.00000  Uiso   1.00
H348   H     0.78451   0.57263   0.85120   0.00000  Uiso   1.00
H349   H     0.35529   0.87523   0.94633   0.00000  Uiso   1.00
H350   H     0.03953   0.73267   0.98646   0.00000  Uiso   1.00
H351   H     0.71065   0.61205   0.77167   0.00000  Uiso   1.00
H352   H     0.85988   0.19579   0.97227   0.00000  Uiso   1.00
H353   H     0.46287   0.89764   0.84738   0.00000  Uiso   1.00
H354   H     0.54600   0.99814   0.88172   0.00000  Uiso   1.00
H355   H     0.39002   0.94095   0.77985   0.00000  Uiso   1.00
H356   H     0.96079   0.24355   0.87498   0.00000  Uiso   1.00
H357   H     0.62517   0.12579   0.92855   0.00000  Uiso   1.00
H358   H     0.29628   0.00517   0.71376   0.00000  Uiso   1.00
H359   H     0.94552   0.08892   0.91436   0.00000  Uiso   1.00
O360   O     0.13522   0.74762   0.98130   0.00000  Uiso   1.00
O361   O     0.70373   0.58935   0.69951   0.00000  Uiso   1.00
O362   O     0.89953   0.04324   0.96270   0.00000  Uiso   1.00
N363   N     0.04828   0.69371   0.96812   0.00000  Uiso   1.00
N364   N     0.74080   0.58095   0.76731   0.00000  Uiso   1.00
N365   N     0.88031   0.19178   0.95485   0.00000  Uiso   1.00
N366   N     0.09436   0.63620   0.93696   0.00000  Uiso   1.00
N367   N     0.78688   0.52344   0.73615   0.00000  Uiso   1.00
N368   N     0.92639   0.13427   0.92369   0.00000  Uiso   1.00
C369   C     0.68674   0.25544   0.85190   0.00000  Uiso   1.00
C370   C     0.69684   0.16844   0.87323   0.00000  Uiso   1.00
C371   C     0.74684   0.13804   0.89930   0.00000  Uiso   1.00
C372   C     0.74756   0.05676   0.91573   0.00000  Uiso   1.00
C373   C     0.77048   0.92910   0.95025   0.00000  Uiso   1.00
C374   C     0.65949   0.23391   0.80864   0.00000  Uiso   1.00
C375   C     0.67808   0.25857   0.78040   0.00000  Uiso   1.00
C376   C     0.64735   0.23242   0.74245   0.00000  Uiso   1.00
C377   C     0.61225   0.20647   0.67668   0.00000  Uiso   1.00
C378   C     0.14385   0.80212   0.86206   0.00000  Uiso   1.00
C379   C     0.14928   0.88414   0.87873   0.00000  Uiso   1.00
C380   C     0.10538   0.91543   0.88574   0.00000  Uiso   1.00
C381   C     0.04600   0.99538   0.90291   0.00000  Uiso   1.00
C382   C     0.59910   0.16518   0.83471   0.00000  Uiso   1.00
C383   C     0.64923   0.11941   0.86389   0.00000  Uiso   1.00
C384   C     0.64988   0.03816   0.88028   0.00000  Uiso   1.00
C385   C     0.69987   0.00764   0.90637   0.00000  Uiso   1.00
C386   C     0.61188   0.18488   0.79929   0.00000  Uiso   1.00
C387   C     0.58111   0.15870   0.76137   0.00000  Uiso   1.00
C388   C     0.59966   0.18331   0.73309   0.00000  Uiso   1.00
C389   C     0.09624   0.75309   0.85272   0.00000  Uiso   1.00
C390   C     0.05232   0.78426   0.85970   0.00000  Uiso   1.00
C391   C     0.05769   0.86631   0.87638   0.00000  Uiso   1.00
H392   H     0.72380   0.29362   0.85917   0.00000  Uiso   1.00
H393   H     0.78368   0.17600   0.90652   0.00000  Uiso   1.00
H394   H     0.71492   0.29652   0.78764   0.00000  Uiso   1.00
H395   H     0.18613   0.92207   0.88595   0.00000  Uiso   1.00
H396   H     0.82906   0.02395   0.95489   0.00000  Uiso   1.00
H397   H     0.68407   0.27811   0.70421   0.00000  Uiso   1.00
H398   H     0.12336   0.04285   0.91152   0.00000  Uiso   1.00
H399   H     0.56204   0.12700   0.82743   0.00000  Uiso   1.00
H400   H     0.61303   0.00023   0.87304   0.00000  Uiso   1.00
H401   H     0.54427   0.12076   0.75415   0.00000  Uiso   1.00
H402   H     0.01548   0.74630   0.85247   0.00000  Uiso   1.00
H403   H     0.69056   0.88130   0.92771   0.00000  Uiso   1.00
H404   H     0.54557   0.13546   0.67703   0.00000  Uiso   1.00
H405   H     0.98486   0.90020   0.88434   0.00000  Uiso   1.00
O406   O     0.79628   0.87223   0.97186   0.00000  Uiso   1.00
O407   O     0.60605   0.20569   0.64298   0.00000  Uiso   1.00
O408   O     0.02641   0.05302   0.91497   0.00000  Uiso   1.00
N409   N     0.78946   0.00778   0.94224   0.00000  Uiso   1.00
N410   N     0.65391   0.24540   0.70787   0.00000  Uiso   1.00
N411   N     0.09715   0.99292   0.90168   0.00000  Uiso   1.00
N412   N     0.71494   0.93102   0.92762   0.00000  Uiso   1.00
N413   N     0.57939   0.16863   0.69325   0.00000  Uiso   1.00
N414   N     0.02263   0.91615   0.88705   0.00000  Uiso   1.00
C415   C     0.20635   0.16321   0.88044   0.00000  Uiso   1.00
C416   C     0.16835   0.20060   0.89796   0.00000  Uiso   1.00
C417   C     0.66596   0.67486   0.93279   0.00000  Uiso   1.00
C418   C     0.62842   0.71705   0.94376   0.00000  Uiso   1.00
C419   C     0.57455   0.76512   0.97446   0.00000  Uiso   1.00
C420   C     0.16985   0.13145   0.83981   0.00000  Uiso   1.00
C421   C     0.66872   0.54756   0.82575   0.00000  Uiso   1.00
C422   C     0.63245   0.53155   0.78777   0.00000  Uiso   1.00
C423   C     0.58094   0.47227   0.72817   0.00000  Uiso   1.00
C424   C     0.23808   0.24028   0.87447   0.00000  Uiso   1.00
C425   C     0.29433   0.24790   0.88954   0.00000  Uiso   1.00
C426   C     0.31550   0.32351   0.88074   0.00000  Uiso   1.00
C427   C     0.36993   0.43321   0.87497   0.00000  Uiso   1.00
C428   C     0.14395   0.28393   0.83800   0.00000  Uiso   1.00
C429   C     0.13446   0.26617   0.87490   0.00000  Uiso   1.00
C430   C     0.09691   0.30842   0.88583   0.00000  Uiso   1.00
C431   C     0.09446   0.28275   0.92067   0.00000  Uiso   1.00
C432   C     0.13596   0.19702   0.81675   0.00000  Uiso   1.00
C433   C     0.09968   0.18113   0.77879   0.00000  Uiso   1.00
C434   C     0.59849   0.59724   0.76467   0.00000  Uiso   1.00
C435   C     0.20419   0.30586   0.85142   0.00000  Uiso   1.00
C436   C     0.22528   0.38147   0.84259   0.00000  Uiso   1.00
C437   C     0.28154   0.38920   0.85764   0.00000  Uiso   1.00
H438   H     0.73274   0.61215   0.89839   0.00000  Uiso   1.00
H439   H     0.69219   0.62411   0.95062   0.00000  Uiso   1.00
H440   H     0.69496   0.49683   0.84359   0.00000  Uiso   1.00
H441   H     0.32054   0.19714   0.90738   0.00000  Uiso   1.00
H442   H     0.63227   0.66625   0.99835   0.00000  Uiso   1.00
H443   H     0.63813   0.39790   0.77268   0.00000  Uiso   1.00
H444   H     0.40294   0.32029   0.90719   0.00000  Uiso   1.00
H445   H     0.11756   0.33498   0.82005   0.00000  Uiso   1.00
H446   H     0.07069   0.35916   0.86798   0.00000  Uiso   1.00
H447   H     0.07346   0.23189   0.76095   0.00000  Uiso   1.00
H448   H     0.19904   0.43220   0.82474   0.00000  Uiso   1.00
H449   H     0.03366   0.35703   0.93128   0.00000  Uiso   1.00
H450   H     0.53951   0.58868   0.70560   0.00000  Uiso   1.00
H451   H     0.30432   0.51107   0.84012   0.00000  Uiso   1.00
O452   O     0.55420   0.77351   0.99775   0.00000  Uiso   1.00
O453   O     0.56189   0.42145   0.70167   0.00000  Uiso   1.00
O454   O     0.40931   0.47561   0.87816   0.00000  Uiso   1.00
N455   N     0.61550   0.70785   0.97599   0.00000  Uiso   1.00
N456   N     0.62097   0.45695   0.76500   0.00000  Uiso   1.00
N457   N     0.36855   0.35184   0.89075   0.00000  Uiso   1.00
N458   N     0.56244   0.81050   0.93990   0.00000  Uiso   1.00
N459   N     0.56791   0.55960   0.72891   0.00000  Uiso   1.00
N460   N     0.31548   0.45449   0.85466   0.00000  Uiso   1.00
C461   C     0.38577   0.99387   0.89952   0.00000  Uiso   1.00
C462   C     0.44182   0.03488   0.91082   0.00000  Uiso   1.00
C463   C     0.46328   0.10141   0.93767   0.00000  Uiso   1.00
C464   C     0.51527   0.12994   0.94392   0.00000  Uiso   1.00
C465   C     0.59782   0.19924   0.96447   0.00000  Uiso   1.00
C466   C     0.35708   0.00382   0.85547   0.00000  Uiso   1.00
C467   C     0.30728   0.04422   0.83579   0.00000  Uiso   1.00
C468   C     0.28794   0.04659   0.79545   0.00000  Uiso   1.00
C469   C     0.23891   0.06760   0.73007   0.00000  Uiso   1.00
C470   C     0.39553   0.89657   0.90716   0.00000  Uiso   1.00
C471   C     0.37806   0.84678   0.93093   0.00000  Uiso   1.00
C472   C     0.39109   0.75885   0.93410   0.00000  Uiso   1.00
C473   C     0.40176   0.61335   0.94899   0.00000  Uiso   1.00
C474   C     0.93995   0.42624   0.86288   0.00000  Uiso   1.00
C475   C     0.97125   0.49815   0.89091   0.00000  Uiso   1.00
C476   C     0.02323   0.52658   0.89713   0.00000  Uiso   1.00
C477   C     0.54476   0.09314   0.92398   0.00000  Uiso   1.00
C478   C     0.88651   0.46709   0.83557   0.00000  Uiso   1.00
C479   C     0.86723   0.46939   0.79524   0.00000  Uiso   1.00
C480   C     0.31743   0.00979   0.77551   0.00000  Uiso   1.00
C481   C     0.42497   0.85983   0.88726   0.00000  Uiso   1.00
C482   C     0.43802   0.77196   0.89039   0.00000  Uiso   1.00
C483   C     0.42057   0.72205   0.91416   0.00000  Uiso   1.00
H484   H     0.36285   0.02247   0.91502   0.00000  Uiso   1.00
H485   H     0.44048   0.12983   0.95307   0.00000  Uiso   1.00
H486   H     0.28451   0.07263   0.85120   0.00000  Uiso   1.00
H487   H     0.85529   0.37523   0.94633   0.00000  Uiso   1.00
H488   H     0.53953   0.23267   0.98646   0.00000  Uiso   1.00
H489   H     0.21065   0.11205   0.77167   0.00000  Uiso   1.00
H490   H     0.35988   0.69579   0.97227   0.00000  Uiso   1.00
H491   H     0.96287   0.39764   0.84738   0.00000  Uiso   1.00
H492   H     0.04600   0.49814   0.88172   0.00000  Uiso   1.00
H493   H     0.89002   0.44095   0.77985   0.00000  Uiso   1.00
H494   H     0.46079   0.74355   0.87498   0.00000  Uiso   1.00
H495   H     0.12517   0.62579   0.92855   0.00000  Uiso   1.00
H496   H     0.79628   0.50517   0.71376   0.00000  Uiso   1.00
H497   H     0.44552   0.58892   0.91436   0.00000  Uiso   1.00
O498   O     0.63522   0.24762   0.98130   0.00000  Uiso   1.00
O499   O     0.20373   0.08935   0.69951   0.00000  Uiso   1.00
O500   O     0.39953   0.54324   0.96270   0.00000  Uiso   1.00
N501   N     0.54828   0.19371   0.96812   0.00000  Uiso   1.00
N502   N     0.24080   0.08095   0.76731   0.00000  Uiso   1.00
N503   N     0.38031   0.69178   0.95485   0.00000  Uiso   1.00
N504   N     0.59436   0.13620   0.93696   0.00000  Uiso   1.00
N505   N     0.28688   0.02344   0.73615   0.00000  Uiso   1.00
N506   N     0.42639   0.63427   0.92369   0.00000  Uiso   1.00
C507   C     0.18674   0.75544   0.85190   0.00000  Uiso   1.00
C508   C     0.19684   0.66844   0.87323   0.00000  Uiso   1.00
C509   C     0.24684   0.63804   0.89930   0.00000  Uiso   1.00
C510   C     0.24756   0.55676   0.91573   0.00000  Uiso   1.00
C511   C     0.27048   0.42910   0.95025   0.00000  Uiso   1.00
C512   C     0.15949   0.73391   0.80864   0.00000  Uiso   1.00
C513   C     0.17808   0.75857   0.78040   0.00000  Uiso   1.00
C514   C     0.14735   0.73242   0.74245   0.00000  Uiso   1.00
C515   C     0.11225   0.70647   0.67668   0.00000  Uiso   1.00
C516   C     0.64385   0.30212   0.86206   0.00000  Uiso   1.00
C517   C     0.64928   0.38414   0.87873   0.00000  Uiso   1.00
C518   C     0.60538   0.41543   0.88574   0.00000  Uiso   1.00
C519   C     0.54600   0.49538   0.90291   0.00000  Uiso   1.00
C520   C     0.09910   0.66518   0.83471   0.00000  Uiso   1.00
C521   C     0.14923   0.61941   0.86389   0.00000  Uiso   1.00
C522   C     0.14988   0.53816   0.88028   0.00000  Uiso   1.00
C523   C     0.19987   0.50764   0.90637   0.00000  Uiso   1.00
C524   C     0.11188   0.68488   0.79929   0.00000  Uiso   1.00
C525   C     0.08111   0.65870   0.76137   0.00000  Uiso   1.00
C526   C     0.09966   0.68331   0.73309   0.00000  Uiso   1.00
C527   C     0.59624   0.25309   0.85272   0.00000  Uiso   1.00
C528   C     0.55232   0.28426   0.85970   0.00000  Uiso   1.00
C529   C     0.55769   0.36631   0.87638   0.00000  Uiso   1.00
H530   H     0.22380   0.79362   0.85917   0.00000  Uiso   1.00
H531   H     0.28368   0.67600   0.90652   0.00000  Uiso   1.00
H532   H     0.21492   0.79652   0.78764   0.00000  Uiso   1.00
H533   H     0.68613   0.42207   0.88595   0.00000  Uiso   1.00
H534   H     0.32906   0.52395   0.95489   0.00000  Uiso   1.00
H535   H     0.18407   0.77811   0.70421   0.00000  Uiso   1.00
H536   H     0.62336   0.54285   0.91152   0.00000  Uiso   1.00
H537   H     0.06204   0.62700   0.82743   0.00000  Uiso   1.00
H538   H     0.11303   0.50023   0.87304   0.00000  Uiso   1.00
H539   H     0.04427   0.62076   0.75415   0.00000  Uiso   1.00
H540   H     0.51548   0.24630   0.85247   0.00000  Uiso   1.00
H541   H     0.19056   0.38130   0.92771   0.00000  Uiso   1.00
H542   H     0.04557   0.63546   0.67703   0.00000  Uiso   1.00
H543   H     0.48486   0.40020   0.88434   0.00000  Uiso   1.00
O544   O     0.29628   0.37223   0.97186   0.00000  Uiso   1.00
O545   O     0.10605   0.70569   0.64298   0.00000  Uiso   1.00
O546   O     0.52641   0.55302   0.91497   0.00000  Uiso   1.00
N547   N     0.28946   0.50778   0.94224   0.00000  Uiso   1.00
N548   N     0.15391   0.74540   0.70787   0.00000  Uiso   1.00
N549   N     0.59715   0.49292   0.90168   0.00000  Uiso   1.00
N550   N     0.21494   0.43102   0.92762   0.00000  Uiso   1.00
N551   N     0.07939   0.66863   0.69325   0.00000  Uiso   1.00
N552   N     0.52263   0.41615   0.88705   0.00000  Uiso   1.00
C553   C     0.70635   0.33679   0.38044   0.00000  Uiso   1.00
C554   C     0.66835   0.29940   0.39796   0.00000  Uiso   1.00
C555   C     0.16596   0.82514   0.43279   0.00000  Uiso   1.00
C556   C     0.12842   0.78295   0.44376   0.00000  Uiso   1.00
C557   C     0.07455   0.73488   0.47446   0.00000  Uiso   1.00
C558   C     0.66985   0.36855   0.33981   0.00000  Uiso   1.00
C559   C     0.16872   0.95244   0.32575   0.00000  Uiso   1.00
C560   C     0.13245   0.96845   0.28777   0.00000  Uiso   1.00
C561   C     0.08094   0.02773   0.22817   0.00000  Uiso   1.00
C562   C     0.73808   0.25972   0.37447   0.00000  Uiso   1.00
C563   C     0.79433   0.25210   0.38954   0.00000  Uiso   1.00
C564   C     0.81550   0.17649   0.38074   0.00000  Uiso   1.00
C565   C     0.86993   0.06679   0.37497   0.00000  Uiso   1.00
C566   C     0.64395   0.21607   0.33800   0.00000  Uiso   1.00
C567   C     0.63446   0.23383   0.37490   0.00000  Uiso   1.00
C568   C     0.59691   0.19158   0.38583   0.00000  Uiso   1.00
C569   C     0.59446   0.21725   0.42067   0.00000  Uiso   1.00
C570   C     0.63596   0.30298   0.31675   0.00000  Uiso   1.00
C571   C     0.59968   0.31887   0.27879   0.00000  Uiso   1.00
C572   C     0.09849   0.90276   0.26467   0.00000  Uiso   1.00
C573   C     0.70419   0.19414   0.35142   0.00000  Uiso   1.00
C574   C     0.72528   0.11853   0.34259   0.00000  Uiso   1.00
C575   C     0.78154   0.11080   0.35764   0.00000  Uiso   1.00
H576   H     0.23274   0.88785   0.39839   0.00000  Uiso   1.00
H577   H     0.19219   0.87589   0.45062   0.00000  Uiso   1.00
H578   H     0.19496   0.00317   0.34359   0.00000  Uiso   1.00
H579   H     0.82054   0.30286   0.40738   0.00000  Uiso   1.00
H580   H     0.13227   0.83375   0.49835   0.00000  Uiso   1.00
H581   H     0.13813   0.10210   0.27268   0.00000  Uiso   1.00
H582   H     0.90294   0.17971   0.40719   0.00000  Uiso   1.00
H583   H     0.61756   0.16502   0.32005   0.00000  Uiso   1.00
H584   H     0.57069   0.14084   0.36798   0.00000  Uiso   1.00
H585   H     0.57346   0.26811   0.26095   0.00000  Uiso   1.00
H586   H     0.69904   0.06780   0.32474   0.00000  Uiso   1.00
H587   H     0.53366   0.14297   0.43128   0.00000  Uiso   1.00
H588   H     0.03951   0.91132   0.20560   0.00000  Uiso   1.00
H589   H     0.80432   0.98893   0.34012   0.00000  Uiso   1.00
O590   O     0.05420   0.72649   0.49775   0.00000  Uiso   1.00
O591   O     0.06189   0.07855   0.20167   0.00000  Uiso   1.00
O592   O     0.90931   0.02439   0.37816   0.00000  Uiso   1.00
N593   N     0.11550   0.79215   0.47599   0.00000  Uiso   1.00
N594   N     0.12097   0.04305   0.26500   0.00000  Uiso   1.00
N595   N     0.86855   0.14816   0.39075   0.00000  Uiso   1.00
N596   N     0.06244   0.68950   0.43990   0.00000  Uiso   1.00
N597   N     0.06791   0.94040   0.22891   0.00000  Uiso   1.00
N598   N     0.81548   0.04551   0.35466   0.00000  Uiso   1.00
C599   C     0.88577   0.50613   0.39952   0.00000  Uiso   1.00
C600   C     0.94182   0.46512   0.41082   0.00000  Uiso   1.00
C601   C     0.96328   0.39859   0.43767   0.00000  Uiso   1.00
C602   C     0.01527   0.37006   0.44392   0.00000  Uiso   1.00
C603   C     0.09782   0.30076   0.46447   0.00000  Uiso   1.00
C604   C     0.85708   0.49618   0.35547   0.00000  Uiso   1.00
C605   C     0.80728   0.45578   0.33579   0.00000  Uiso   1.00
C606   C     0.78794   0.45341   0.29545   0.00000  Uiso   1.00
C607   C     0.73891   0.43240   0.23007   0.00000  Uiso   1.00
C608   C     0.89553   0.60343   0.40716   0.00000  Uiso   1.00
C609   C     0.87806   0.65322   0.43093   0.00000  Uiso   1.00
C610   C     0.89109   0.74115   0.43410   0.00000  Uiso   1.00
C611   C     0.90176   0.88665   0.44899   0.00000  Uiso   1.00
C612   C     0.43995   0.07376   0.36288   0.00000  Uiso   1.00
C613   C     0.47125   0.00185   0.39091   0.00000  Uiso   1.00
C614   C     0.52323   0.97342   0.39713   0.00000  Uiso   1.00
C615   C     0.04476   0.40686   0.42398   0.00000  Uiso   1.00
C616   C     0.38651   0.03291   0.33557   0.00000  Uiso   1.00
C617   C     0.36723   0.03061   0.29524   0.00000  Uiso   1.00
C618   C     0.81743   0.49021   0.27551   0.00000  Uiso   1.00
C619   C     0.92497   0.64017   0.38726   0.00000  Uiso   1.00
C620   C     0.93802   0.72804   0.39039   0.00000  Uiso   1.00
C621   C     0.92057   0.77795   0.41416   0.00000  Uiso   1.00
H622   H     0.86285   0.47753   0.41502   0.00000  Uiso   1.00
H623   H     0.94048   0.37017   0.45307   0.00000  Uiso   1.00
H624   H     0.78451   0.42737   0.35120   0.00000  Uiso   1.00
H625   H     0.35529   0.12477   0.44633   0.00000  Uiso   1.00
H626   H     0.03953   0.26733   0.48646   0.00000  Uiso   1.00
H627   H     0.71065   0.38795   0.27167   0.00000  Uiso   1.00
H628   H     0.85988   0.80421   0.47227   0.00000  Uiso   1.00
H629   H     0.46287   0.10236   0.34738   0.00000  Uiso   1.00
H630   H     0.54600   0.00186   0.38172   0.00000  Uiso   1.00
H631   H     0.39002   0.05905   0.27985   0.00000  Uiso   1.00
H632   H     0.96079   0.75645   0.37498   0.00000  Uiso   1.00
H633   H     0.62517   0.87421   0.42855   0.00000  Uiso   1.00
H634   H     0.29628   0.99483   0.21376   0.00000  Uiso   1.00
H635   H     0.94552   0.91108   0.41436   0.00000  Uiso   1.00
O636   O     0.13522   0.25238   0.48130   0.00000  Uiso   1.00
O637   O     0.70373   0.41065   0.19951   0.00000  Uiso   1.00
O638   O     0.89953   0.95676   0.46270   0.00000  Uiso   1.00
N639   N     0.04828   0.30629   0.46812   0.00000  Uiso   1.00
N640   N     0.74080   0.41905   0.26731   0.00000  Uiso   1.00
N641   N     0.88031   0.80822   0.45485   0.00000  Uiso   1.00
N642   N     0.09436   0.36380   0.43696   0.00000  Uiso   1.00
N643   N     0.78688   0.47656   0.23615   0.00000  Uiso   1.00
N644   N     0.92639   0.86573   0.42369   0.00000  Uiso   1.00
C645   C     0.68674   0.74456   0.35190   0.00000  Uiso   1.00
C646   C     0.69684   0.83156   0.37323   0.00000  Uiso   1.00
C647   C     0.74684   0.86196   0.39930   0.00000  Uiso   1.00
C648   C     0.74756   0.94324   0.41573   0.00000  Uiso   1.00
C649   C     0.77048   0.07090   0.45025   0.00000  Uiso   1.00
C650   C     0.65949   0.76609   0.30864   0.00000  Uiso   1.00
C651   C     0.67808   0.74143   0.28040   0.00000  Uiso   1.00
C652   C     0.64735   0.76758   0.24245   0.00000  Uiso   1.00
C653   C     0.61225   0.79353   0.17668   0.00000  Uiso   1.00
C654   C     0.14385   0.19788   0.36206   0.00000  Uiso   1.00
C655   C     0.14928   0.11586   0.37873   0.00000  Uiso   1.00
C656   C     0.10538   0.08457   0.38574   0.00000  Uiso   1.00
C657   C     0.04600   0.00462   0.40291   0.00000  Uiso   1.00
C658   C     0.59910   0.83482   0.33471   0.00000  Uiso   1.00
C659   C     0.64923   0.88059   0.36389   0.00000  Uiso   1.00
C660   C     0.64988   0.96184   0.38028   0.00000  Uiso   1.00
C661   C     0.69987   0.99236   0.40637   0.00000  Uiso   1.00
C662   C     0.61188   0.81512   0.29929   0.00000  Uiso   1.00
C663   C     0.58111   0.84130   0.26137   0.00000  Uiso   1.00
C664   C     0.59966   0.81669   0.23309   0.00000  Uiso   1.00
C665   C     0.09624   0.24691   0.35272   0.00000  Uiso   1.00
C666   C     0.05232   0.21574   0.35970   0.00000  Uiso   1.00
C667   C     0.05769   0.13369   0.37638   0.00000  Uiso   1.00
H668   H     0.72380   0.70638   0.35917   0.00000  Uiso   1.00
H669   H     0.78368   0.82400   0.40652   0.00000  Uiso   1.00
H670   H     0.71492   0.70348   0.28764   0.00000  Uiso   1.00
H671   H     0.18613   0.07793   0.38595   0.00000  Uiso   1.00
H672   H     0.82906   0.97605   0.45489   0.00000  Uiso   1.00
H673   H     0.68407   0.72189   0.20421   0.00000  Uiso   1.00
H674   H     0.12336   0.95715   0.41152   0.00000  Uiso   1.00
H675   H     0.56204   0.87300   0.32743   0.00000  Uiso   1.00
H676   H     0.61303   0.99977   0.37304   0.00000  Uiso   1.00
H677   H     0.54427   0.87924   0.25415   0.00000  Uiso   1.00
H678   H     0.01548   0.25370   0.35247   0.00000  Uiso   1.00
H679   H     0.69056   0.11870   0.42771   0.00000  Uiso   1.00
H680   H     0.54557   0.86454   0.17703   0.00000  Uiso   1.00
H681   H     0.98486   0.09980   0.38434   0.00000  Uiso   1.00
O682   O     0.79628   0.12777   0.47186   0.00000  Uiso   1.00
O683   O     0.60605   0.79431   0.14298   0.00000  Uiso   1.00
O684   O     0.02641   0.94698   0.41497   0.00000  Uiso   1.00
N685   N     0.78946   0.99222   0.44224   0.00000  Uiso   1.00
N686   N     0.65391   0.75460   0.20787   0.00000  Uiso   1.00
N687   N     0.09715   0.00708   0.40168   0.00000  Uiso   1.00
N688   N     0.71494   0.06898   0.42762   0.00000  Uiso   1.00
N689   N     0.57939   0.83137   0.19325   0.00000  Uiso   1.00
N690   N     0.02263   0.08385   0.38705   0.00000  Uiso   1.00
C691   C     0.20635   0.83679   0.38044   0.00000  Uiso   1.00
C692   C     0.16835   0.79940   0.39796   0.00000  Uiso   1.00
C693   C     0.66596   0.32514   0.43279   0.00000  Uiso   1.00
C694   C     0.62842   0.28295   0.44376   0.00000  Uiso   1.00
C695   C     0.57455   0.23488   0.47446   0.00000  Uiso   1.00
C696   C     0.16985   0.86855   0.33981   0.00000  Uiso   1.00
C697   C     0.66872   0.45244   0.32575   0.00000  Uiso   1.00
C698   C     0.63245   0.46845   0.28777   0.00000  Uiso   1.00
C699   C     0.58094   0.52773   0.22817   0.00000  Uiso   1.00
C700   C     0.23808   0.75972   0.37447   0.00000  Uiso   1.00
C701   C     0.29433   0.75210   0.38954   0.00000  Uiso   1.00
C702   C     0.31550   0.67649   0.38074   0.00000  Uiso   1.00
C703   C     0.36993   0.56679   0.37497   0.00000  Uiso   1.00
C704   C     0.14395   0.71607   0.33800   0.00000  Uiso   1.00
C705   C     0.13446   0.73383   0.37490   0.00000  Uiso   1.00
C706   C     0.09691   0.69158   0.38583   0.00000  Uiso   1.00
C707   C     0.09446   0.71725   0.42067   0.00000  Uiso   1.00
C708   C     0.13596   0.80298   0.31675   0.00000  Uiso   1.00
C709   C     0.09968   0.81887   0.27879   0.00000  Uiso   1.00
C710   C     0.59849   0.40276   0.26467   0.00000  Uiso   1.00
C711   C     0.20419   0.69414   0.35142   0.00000  Uiso   1.00
C712   C     0.22528   0.61853   0.34259   0.00000  Uiso   1.00
C713   C     0.28154   0.61080   0.35764   0.00000  Uiso   1.00
H714   H     0.73274   0.38785   0.39839   0.00000  Uiso   1.00
H715   H     0.69219   0.37589   0.45062   0.00000  Uiso   1.00
H716   H     0.69496   0.50317   0.34359   0.00000  Uiso   1.00
H717   H     0.32054   0.80286   0.40738   0.00000  Uiso   1.00
H718   H     0.63227   0.33375   0.49835   0.00000  Uiso   1.00
H719   H     0.63813   0.60210   0.27268   0.00000  Uiso   1.00
H720   H     0.40294   0.67971   0.40719   0.00000  Uiso   1.00
H721   H     0.11756   0.66502   0.32005   0.00000  Uiso   1.00
H722   H     0.07069   0.64084   0.36798   0.00000  Uiso   1.00
H723   H     0.07346   0.76811   0.26095   0.00000  Uiso   1.00
H724   H     0.19904   0.56780   0.32474   0.00000  Uiso   1.00
H725   H     0.03366   0.64297   0.43128   0.00000  Uiso   1.00
H726   H     0.53951   0.41132   0.20560   0.00000  Uiso   1.00
H727   H     0.30432   0.48893   0.34012   0.00000  Uiso   1.00
O728   O     0.55420   0.22649   0.49775   0.00000  Uiso   1.00
O729   O     0.56189   0.57855   0.20167   0.00000  Uiso   1.00
O730   O     0.40931   0.52439   0.37816   0.00000  Uiso   1.00
N731   N     0.61550   0.29215   0.47599   0.00000  Uiso   1.00
N732   N     0.62097   0.54305   0.26500   0.00000  Uiso   1.00
N733   N     0.36855   0.64816   0.39075   0.00000  Uiso   1.00
N734   N     0.56244   0.18950   0.43990   0.00000  Uiso   1.00
N735   N     0.56791   0.44040   0.22891   0.00000  Uiso   1.00
N736   N     0.31548   0.54551   0.35466   0.00000  Uiso   1.00
C737   C     0.38577   0.00613   0.39952   0.00000  Uiso   1.00
C738   C     0.44182   0.96512   0.41082   0.00000  Uiso   1.00
C739   C     0.46328   0.89859   0.43767   0.00000  Uiso   1.00
C740   C     0.51527   0.87006   0.44392   0.00000  Uiso   1.00
C741   C     0.59782   0.80076   0.46447   0.00000  Uiso   1.00
C742   C     0.35708   0.99618   0.35547   0.00000  Uiso   1.00
C743   C     0.30728   0.95578   0.33579   0.00000  Uiso   1.00
C744   C     0.28794   0.95341   0.29545   0.00000  Uiso   1.00
C745   C     0.23891   0.93240   0.23007   0.00000  Uiso   1.00
C746   C     0.39553   0.10343   0.40716   0.00000  Uiso   1.00
C747   C     0.37806   0.15322   0.43093   0.00000  Uiso   1.00
C748   C     0.39109   0.24115   0.43410   0.00000  Uiso   1.00
C749   C     0.40176   0.38665   0.44899   0.00000  Uiso   1.00
C750   C     0.93995   0.57376   0.36288   0.00000  Uiso   1.00
C751   C     0.97125   0.50185   0.39091   0.00000  Uiso   1.00
C752   C     0.02323   0.47342   0.39713   0.00000  Uiso   1.00
C753   C     0.54476   0.90686   0.42398   0.00000  Uiso   1.00
C754   C     0.88651   0.53291   0.33557   0.00000  Uiso   1.00
C755   C     0.86723   0.53061   0.29524   0.00000  Uiso   1.00
C756   C     0.31743   0.99021   0.27551   0.00000  Uiso   1.00
C757   C     0.42497   0.14017   0.38726   0.00000  Uiso   1.00
C758   C     0.43802   0.22804   0.39039   0.00000  Uiso   1.00
C759   C     0.42057   0.27795   0.41416   0.00000  Uiso   1.00
H760   H     0.36285   0.97753   0.41502   0.00000  Uiso   1.00
H761   H     0.44048   0.87017   0.45307   0.00000  Uiso   1.00
H762   H     0.28451   0.92737   0.35120   0.00000  Uiso   1.00
H763   H     0.85529   0.62477   0.44633   0.00000  Uiso   1.00
H764   H     0.53953   0.76733   0.48646   0.00000  Uiso   1.00
H765   H     0.21065   0.88795   0.27167   0.00000  Uiso   1.00
H766   H     0.35988   0.30421   0.47227   0.00000  Uiso   1.00
H767   H     0.96287   0.60236   0.34738   0.00000  Uiso   1.00
H768   H     0.04600   0.50186   0.38172   0.00000  Uiso   1.00
H769   H     0.89002   0.55905   0.27985   0.00000  Uiso   1.00
H770   H     0.46079   0.25645   0.37498   0.00000  Uiso   1.00
H771   H     0.12517   0.37421   0.42855   0.00000  Uiso   1.00
H772   H     0.79628   0.49483   0.21376   0.00000  Uiso   1.00
H773   H     0.44552   0.41108   0.41436   0.00000  Uiso   1.00
O774   O     0.63522   0.75238   0.48130   0.00000  Uiso   1.00
O775   O     0.20373   0.91065   0.19951   0.00000  Uiso   1.00
O776   O     0.39953   0.45676   0.46270   0.00000  Uiso   1.00
N777   N     0.54828   0.80629   0.46812   0.00000  Uiso   1.00
N778   N     0.24080   0.91905   0.26731   0.00000  Uiso   1.00
N779   N     0.38031   0.30822   0.45485   0.00000  Uiso   1.00
N780   N     0.59436   0.86380   0.43696   0.00000  Uiso   1.00
N781   N     0.28688   0.97656   0.23615   0.00000  Uiso   1.00
N782   N     0.42639   0.36573   0.42369   0.00000  Uiso   1.00
C783   C     0.18674   0.24456   0.35190   0.00000  Uiso   1.00
C784   C     0.19684   0.33156   0.37323   0.00000  Uiso   1.00
C785   C     0.24684   0.36196   0.39930   0.00000  Uiso   1.00
C786   C     0.24756   0.44324   0.41573   0.00000  Uiso   1.00
C787   C     0.27048   0.57090   0.45025   0.00000  Uiso   1.00
C788   C     0.15949   0.26609   0.30864   0.00000  Uiso   1.00
C789   C     0.17808   0.24143   0.28040   0.00000  Uiso   1.00
C790   C     0.14735   0.26758   0.24245   0.00000  Uiso   1.00
C791   C     0.11225   0.29353   0.17668   0.00000  Uiso   1.00
C792   C     0.64385   0.69788   0.36206   0.00000  Uiso   1.00
C793   C     0.64928   0.61586   0.37873   0.00000  Uiso   1.00
C794   C     0.60538   0.58457   0.38574   0.00000  Uiso   1.00
C795   C     0.54600   0.50462   0.40291   0.00000  Uiso   1.00
C796   C     0.09910   0.33482   0.33471   0.00000  Uiso   1.00
C797   C     0.14923   0.38059   0.36389   0.00000  Uiso   1.00
C798   C     0.14988   0.46184   0.38028   0.00000  Uiso   1.00
C799   C     0.19987   0.49236   0.40637   0.00000  Uiso   1.00
C800   C     0.11188   0.31512   0.29929   0.00000  Uiso   1.00
C801   C     0.08111   0.34130   0.26137   0.00000  Uiso   1.00
C802   C     0.09966   0.31669   0.23309   0.00000  Uiso   1.00
C803   C     0.59624   0.74691   0.35272   0.00000  Uiso   1.00
C804   C     0.55232   0.71574   0.35970   0.00000  Uiso   1.00
C805   C     0.55769   0.63369   0.37638   0.00000  Uiso   1.00
H806   H     0.22380   0.20638   0.35917   0.00000  Uiso   1.00
H807   H     0.28368   0.32400   0.40652   0.00000  Uiso   1.00
H808   H     0.21492   0.20348   0.28764   0.00000  Uiso   1.00
H809   H     0.68613   0.57793   0.38595   0.00000  Uiso   1.00
H810   H     0.32906   0.47605   0.45489   0.00000  Uiso   1.00
H811   H     0.18407   0.22189   0.20421   0.00000  Uiso   1.00
H812   H     0.62336   0.45715   0.41152   0.00000  Uiso   1.00
H813   H     0.06204   0.37300   0.32743   0.00000  Uiso   1.00
H814   H     0.11303   0.49977   0.37304   0.00000  Uiso   1.00
H815   H     0.04427   0.37924   0.25415   0.00000  Uiso   1.00
H816   H     0.51548   0.75370   0.35247   0.00000  Uiso   1.00
H817   H     0.19056   0.61870   0.42771   0.00000  Uiso   1.00
H818   H     0.04557   0.36454   0.17703   0.00000  Uiso   1.00
H819   H     0.48486   0.59980   0.38434   0.00000  Uiso   1.00
O820   O     0.29628   0.62777   0.47186   0.00000  Uiso   1.00
O821   O     0.10605   0.29431   0.14298   0.00000  Uiso   1.00
O822   O     0.52641   0.44698   0.41497   0.00000  Uiso   1.00
N823   N     0.28946   0.49222   0.44224   0.00000  Uiso   1.00
N824   N     0.15391   0.25460   0.20787   0.00000  Uiso   1.00
N825   N     0.59715   0.50708   0.40168   0.00000  Uiso   1.00
N826   N     0.21494   0.56898   0.42762   0.00000  Uiso   1.00
N827   N     0.07939   0.33137   0.19325   0.00000  Uiso   1.00
N828   N     0.52263   0.58385   0.38705   0.00000  Uiso   1.00
C829   C     0.29365   0.33679   0.11956   0.00000  Uiso   1.00
C830   C     0.33165   0.29940   0.10204   0.00000  Uiso   1.00
C831   C     0.83404   0.82514   0.06721   0.00000  Uiso   1.00
C832   C     0.87158   0.78295   0.05624   0.00000  Uiso   1.00
C833   C     0.92545   0.73488   0.02554   0.00000  Uiso   1.00
C834   C     0.33015   0.36855   0.16019   0.00000  Uiso   1.00
C835   C     0.83128   0.95244   0.17425   0.00000  Uiso   1.00
C836   C     0.86755   0.96845   0.21223   0.00000  Uiso   1.00
C837   C     0.91906   0.02773   0.27183   0.00000  Uiso   1.00
C838   C     0.26192   0.25972   0.12553   0.00000  Uiso   1.00
C839   C     0.20567   0.25210   0.11046   0.00000  Uiso   1.00
C840   C     0.18450   0.17649   0.11926   0.00000  Uiso   1.00
C841   C     0.13007   0.06679   0.12503   0.00000  Uiso   1.00
C842   C     0.35605   0.21607   0.16200   0.00000  Uiso   1.00
C843   C     0.36554   0.23383   0.12510   0.00000  Uiso   1.00
C844   C     0.40309   0.19158   0.11417   0.00000  Uiso   1.00
C845   C     0.40554   0.21725   0.07933   0.00000  Uiso   1.00
C846   C     0.36404   0.30298   0.18325   0.00000  Uiso   1.00
C847   C     0.40032   0.31887   0.22121   0.00000  Uiso   1.00
C848   C     0.90151   0.90276   0.23533   0.00000  Uiso   1.00
C849   C     0.29581   0.19414   0.14858   0.00000  Uiso   1.00
C850   C     0.27472   0.11853   0.15741   0.00000  Uiso   1.00
C851   C     0.21846   0.11080   0.14236   0.00000  Uiso   1.00
H852   H     0.76726   0.88785   0.10161   0.00000  Uiso   1.00
H853   H     0.80781   0.87589   0.04938   0.00000  Uiso   1.00
H854   H     0.80504   0.00317   0.15641   0.00000  Uiso   1.00
H855   H     0.17946   0.30286   0.09262   0.00000  Uiso   1.00
H856   H     0.86773   0.83375   0.00165   0.00000  Uiso   1.00
H857   H     0.86187   0.10210   0.22732   0.00000  Uiso   1.00
H858   H     0.09706   0.17971   0.09281   0.00000  Uiso   1.00
H859   H     0.38244   0.16502   0.17995   0.00000  Uiso   1.00
H860   H     0.42931   0.14084   0.13202   0.00000  Uiso   1.00
H861   H     0.42654   0.26811   0.23905   0.00000  Uiso   1.00
H862   H     0.30096   0.06780   0.17526   0.00000  Uiso   1.00
H863   H     0.46634   0.14297   0.06872   0.00000  Uiso   1.00
H864   H     0.96049   0.91132   0.29440   0.00000  Uiso   1.00
H865   H     0.19568   0.98893   0.15988   0.00000  Uiso   1.00
O866   O     0.94580   0.72649   0.00225   0.00000  Uiso   1.00
O867   O     0.93811   0.07855   0.29833   0.00000  Uiso   1.00
O868   O     0.09069   0.02439   0.12184   0.00000  Uiso   1.00
N869   N     0.88450   0.79215   0.02401   0.00000  Uiso   1.00
N870   N     0.87903   0.04305   0.23500   0.00000  Uiso   1.00
N871   N     0.13145   0.14816   0.10925   0.00000  Uiso   1.00
N872   N     0.93756   0.68950   0.06010   0.00000  Uiso   1.00
N873   N     0.93209   0.94040   0.27109   0.00000  Uiso   1.00
N874   N     0.18452   0.04551   0.14534   0.00000  Uiso   1.00
C875   C     0.11423   0.50613   0.10048   0.00000  Uiso   1.00
C876   C     0.05818   0.46512   0.08918   0.00000  Uiso   1.00
C877   C     0.03672   0.39859   0.06233   0.00000  Uiso   1.00
C878   C     0.98473   0.37006   0.05608   0.00000  Uiso   1.00
C879   C     0.90218   0.30076   0.03553   0.00000  Uiso   1.00
C880   C     0.14292   0.49618   0.14453   0.00000  Uiso   1.00
C881   C     0.19272   0.45578   0.16421   0.00000  Uiso   1.00
C882   C     0.21206   0.45341   0.20455   0.00000  Uiso   1.00
C883   C     0.26109   0.43240   0.26993   0.00000  Uiso   1.00
C884   C     0.10447   0.60343   0.09284   0.00000  Uiso   1.00
C885   C     0.12194   0.65322   0.06907   0.00000  Uiso   1.00
C886   C     0.10891   0.74115   0.06590   0.00000  Uiso   1.00
C887   C     0.09824   0.88665   0.05101   0.00000  Uiso   1.00
C888   C     0.56005   0.07376   0.13712   0.00000  Uiso   1.00
C889   C     0.52875   0.00185   0.10909   0.00000  Uiso   1.00
C890   C     0.47677   0.97342   0.10287   0.00000  Uiso   1.00
C891   C     0.95524   0.40686   0.07602   0.00000  Uiso   1.00
C892   C     0.61349   0.03291   0.16443   0.00000  Uiso   1.00
C893   C     0.63277   0.03061   0.20476   0.00000  Uiso   1.00
C894   C     0.18257   0.49021   0.22449   0.00000  Uiso   1.00
C895   C     0.07503   0.64017   0.11274   0.00000  Uiso   1.00
C896   C     0.06198   0.72804   0.10961   0.00000  Uiso   1.00
C897   C     0.07943   0.77795   0.08584   0.00000  Uiso   1.00
H898   H     0.13715   0.47753   0.08498   0.00000  Uiso   1.00
H899   H     0.05952   0.37017   0.04693   0.00000  Uiso   1.00
H900   H     0.21549   0.42737   0.14880   0.00000  Uiso   1.00
H901   H     0.64471   0.12477   0.05367   0.00000  Uiso   1.00
H902   H     0.96047   0.26733   0.01354   0.00000  Uiso   1.00
H903   H     0.28935   0.38795   0.22833   0.00000  Uiso   1.00
H904   H     0.14012   0.80421   0.02773   0.00000  Uiso   1.00
H905   H     0.53713   0.10236   0.15262   0.00000  Uiso   1.00
H906   H     0.45400   0.00186   0.11828   0.00000  Uiso   1.00
H907   H     0.60998   0.05905   0.22015   0.00000  Uiso   1.00
H908   H     0.03921   0.75645   0.12502   0.00000  Uiso   1.00
H909   H     0.37483   0.87421   0.07145   0.00000  Uiso   1.00
H910   H     0.70372   0.99483   0.28624   0.00000  Uiso   1.00
H911   H     0.05448   0.91108   0.08564   0.00000  Uiso   1.00
O912   O     0.86478   0.25238   0.01870   0.00000  Uiso   1.00
O913   O     0.29627   0.41065   0.30049   0.00000  Uiso   1.00
O914   O     0.10047   0.95676   0.03730   0.00000  Uiso   1.00
N915   N     0.95172   0.30629   0.03188   0.00000  Uiso   1.00
N916   N     0.25920   0.41905   0.23269   0.00000  Uiso   1.00
N917   N     0.11969   0.80822   0.04515   0.00000  Uiso   1.00
N918   N     0.90564   0.36380   0.06304   0.00000  Uiso   1.00
N919   N     0.21312   0.47656   0.26385   0.00000  Uiso   1.00
N920   N     0.07361   0.86573   0.07631   0.00000  Uiso   1.00
C921   C     0.31326   0.74456   0.14810   0.00000  Uiso   1.00
C922   C     0.30316   0.83156   0.12677   0.00000  Uiso   1.00
C923   C     0.25316   0.86196   0.10070   0.00000  Uiso   1.00
C924   C     0.25244   0.94324   0.08427   0.00000  Uiso   1.00
C925   C     0.22952   0.07090   0.04975   0.00000  Uiso   1.00
C926   C     0.34051   0.76609   0.19136   0.00000  Uiso   1.00
C927   C     0.32192   0.74143   0.21960   0.00000  Uiso   1.00
C928   C     0.35265   0.76758   0.25755   0.00000  Uiso   1.00
C929   C     0.38775   0.79353   0.32332   0.00000  Uiso   1.00
C930   C     0.85615   0.19788   0.13794   0.00000  Uiso   1.00
C931   C     0.85072   0.11586   0.12127   0.00000  Uiso   1.00
C932   C     0.89462   0.08457   0.11426   0.00000  Uiso   1.00
C933   C     0.95400   0.00462   0.09709   0.00000  Uiso   1.00
C934   C     0.40090   0.83482   0.16529   0.00000  Uiso   1.00
C935   C     0.35077   0.88059   0.13611   0.00000  Uiso   1.00
C936   C     0.35012   0.96184   0.11972   0.00000  Uiso   1.00
C937   C     0.30013   0.99236   0.09363   0.00000  Uiso   1.00
C938   C     0.38812   0.81512   0.20071   0.00000  Uiso   1.00
C939   C     0.41889   0.84130   0.23863   0.00000  Uiso   1.00
C940   C     0.40034   0.81669   0.26691   0.00000  Uiso   1.00
C941   C     0.90376   0.24691   0.14728   0.00000  Uiso   1.00
C942   C     0.94768   0.21574   0.14030   0.00000  Uiso   1.00
C943   C     0.94231   0.13369   0.12362   0.00000  Uiso   1.00
H944   H     0.27620   0.70638   0.14083   0.00000  Uiso   1.00
H945   H     0.21632   0.82400   0.09348   0.00000  Uiso   1.00
H946   H     0.28508   0.70348   0.21236   0.00000  Uiso   1.00
H947   H     0.81387   0.07793   0.11405   0.00000  Uiso   1.00
H948   H     0.17094   0.97605   0.04511   0.00000  Uiso   1.00
H949   H     0.31593   0.72189   0.29579   0.00000  Uiso   1.00
H950   H     0.87664   0.95715   0.08848   0.00000  Uiso   1.00
H951   H     0.43796   0.87300   0.17257   0.00000  Uiso   1.00
H952   H     0.38697   0.99977   0.12696   0.00000  Uiso   1.00
H953   H     0.45573   0.87924   0.24585   0.00000  Uiso   1.00
H954   H     0.98452   0.25370   0.14753   0.00000  Uiso   1.00
H955   H     0.30944   0.11870   0.07229   0.00000  Uiso   1.00
H956   H     0.45443   0.86454   0.32297   0.00000  Uiso   1.00
H957   H     0.01514   0.09980   0.11566   0.00000  Uiso   1.00
O958   O     0.20372   0.12777   0.02814   0.00000  Uiso   1.00
O959   O     0.39395   0.79431   0.35702   0.00000  Uiso   1.00
O960   O     0.97359   0.94698   0.08503   0.00000  Uiso   1.00
N961   N     0.21054   0.99222   0.05776   0.00000  Uiso   1.00
N962   N     0.34609   0.75460   0.29213   0.00000  Uiso   1.00
N963   N     0.90285   0.00708   0.09832   0.00000  Uiso   1.00
N964   N     0.28506   0.06898   0.07238   0.00000  Uiso   1.00
N965   N     0.42061   0.83137   0.30675   0.00000  Uiso   1.00
N966   N     0.97737   0.08385   0.11295   0.00000  Uiso   1.00
C967   C     0.79365   0.83679   0.11956   0.00000  Uiso   1.00
C968   C     0.83165   0.79940   0.10204   0.00000  Uiso   1.00
C969   C     0.33404   0.32514   0.06721   0.00000  Uiso   1.00
C970   C     0.37158   0.28295   0.05624   0.00000  Uiso   1.00
C971   C     0.42545   0.23488   0.02554   0.00000  Uiso   1.00
C972   C     0.83015   0.86855   0.16019   0.00000  Uiso   1.00
C973   C     0.33128   0.45244   0.17425   0.00000  Uiso   1.00
C974   C     0.36755   0.46845   0.21223   0.00000  Uiso   1.00
C975   C     0.41906   0.52773   0.27183   0.00000  Uiso   1.00
C976   C     0.76192   0.75972   0.12553   0.00000  Uiso   1.00
C977   C     0.70567   0.75210   0.11046   0.00000  Uiso   1.00
C978   C     0.68450   0.67649   0.11926   0.00000  Uiso   1.00
C979   C     0.63007   0.56679   0.12503   0.00000  Uiso   1.00
C980   C     0.85605   0.71607   0.16200   0.00000  Uiso   1.00
C981   C     0.86554   0.73383   0.12510   0.00000  Uiso   1.00
C982   C     0.90309   0.69158   0.11417   0.00000  Uiso   1.00
C983   C     0.90554   0.71725   0.07933   0.00000  Uiso   1.00
C984   C     0.86404   0.80298   0.18325   0.00000  Uiso   1.00
C985   C     0.90032   0.81887   0.22121   0.00000  Uiso   1.00
C986   C     0.40151   0.40276   0.23533   0.00000  Uiso   1.00
C987   C     0.79581   0.69414   0.14858   0.00000  Uiso   1.00
C988   C     0.77472   0.61853   0.15741   0.00000  Uiso   1.00
C989   C     0.71846   0.61080   0.14236   0.00000  Uiso   1.00
H990   H     0.26726   0.38785   0.10161   0.00000  Uiso   1.00
H991   H     0.30781   0.37589   0.04938   0.00000  Uiso   1.00
H992   H     0.30504   0.50317   0.15641   0.00000  Uiso   1.00
H993   H     0.67946   0.80286   0.09262   0.00000  Uiso   1.00
H994   H     0.36773   0.33375   0.00165   0.00000  Uiso   1.00
H995   H     0.36187   0.60210   0.22732   0.00000  Uiso   1.00
H996   H     0.59706   0.67971   0.09281   0.00000  Uiso   1.00
H997   H     0.88244   0.66502   0.17995   0.00000  Uiso   1.00
H998   H     0.92931   0.64084   0.13202   0.00000  Uiso   1.00
H999   H     0.92654   0.76811   0.23905   0.00000  Uiso   1.00
H1000  H     0.80096   0.56780   0.17526   0.00000  Uiso   1.00
H1001  H     0.96634   0.64297   0.06872   0.00000  Uiso   1.00
H1002  H     0.46049   0.41132   0.29440   0.00000  Uiso   1.00
H1003  H     0.69568   0.48893   0.15988   0.00000  Uiso   1.00
O1004  O     0.44580   0.22649   0.00225   0.00000  Uiso   1.00
O1005  O     0.43811   0.57855   0.29833   0.00000  Uiso   1.00
O1006  O     0.59069   0.52439   0.12184   0.00000  Uiso   1.00
N1007  N     0.38450   0.29215   0.02401   0.00000  Uiso   1.00
N1008  N     0.37903   0.54305   0.23500   0.00000  Uiso   1.00
N1009  N     0.63145   0.64816   0.10925   0.00000  Uiso   1.00
N1010  N     0.43756   0.18950   0.06010   0.00000  Uiso   1.00
N1011  N     0.43209   0.44040   0.27109   0.00000  Uiso   1.00
N1012  N     0.68452   0.54551   0.14534   0.00000  Uiso   1.00
C1013  C     0.61423   0.00613   0.10048   0.00000  Uiso   1.00
C1014  C     0.55818   0.96512   0.08918   0.00000  Uiso   1.00
C1015  C     0.53672   0.89859   0.06233   0.00000  Uiso   1.00
C1016  C     0.48473   0.87006   0.05608   0.00000  Uiso   1.00
C1017  C     0.40218   0.80076   0.03553   0.00000  Uiso   1.00
C1018  C     0.64292   0.99618   0.14453   0.00000  Uiso   1.00
C1019  C     0.69272   0.95578   0.16421   0.00000  Uiso   1.00
C1020  C     0.71206   0.95341   0.20455   0.00000  Uiso   1.00
C1021  C     0.76109   0.93240   0.26993   0.00000  Uiso   1.00
C1022  C     0.60447   0.10343   0.09284   0.00000  Uiso   1.00
C1023  C     0.62194   0.15322   0.06907   0.00000  Uiso   1.00
C1024  C     0.60891   0.24115   0.06590   0.00000  Uiso   1.00
C1025  C     0.59824   0.38665   0.05101   0.00000  Uiso   1.00
C1026  C     0.06005   0.57376   0.13712   0.00000  Uiso   1.00
C1027  C     0.02875   0.50185   0.10909   0.00000  Uiso   1.00
C1028  C     0.97677   0.47342   0.10287   0.00000  Uiso   1.00
C1029  C     0.45524   0.90686   0.07602   0.00000  Uiso   1.00
C1030  C     0.11349   0.53291   0.16443   0.00000  Uiso   1.00
C1031  C     0.13277   0.53061   0.20476   0.00000  Uiso   1.00
C1032  C     0.68257   0.99021   0.22449   0.00000  Uiso   1.00
C1033  C     0.57503   0.14017   0.11274   0.00000  Uiso   1.00
C1034  C     0.56198   0.22804   0.10961   0.00000  Uiso   1.00
C1035  C     0.57943   0.27795   0.08584   0.00000  Uiso   1.00
H1036  H     0.63715   0.97753   0.08498   0.00000  Uiso   1.00
H1037  H     0.55952   0.87017   0.04693   0.00000  Uiso   1.00
H1038  H     0.71549   0.92737   0.14880   0.00000  Uiso   1.00
H1039  H     0.14471   0.62477   0.05367   0.00000  Uiso   1.00
H1040  H     0.46047   0.76733   0.01354   0.00000  Uiso   1.00
H1041  H     0.78935   0.88795   0.22833   0.00000  Uiso   1.00
H1042  H     0.64012   0.30421   0.02773   0.00000  Uiso   1.00
H1043  H     0.03713   0.60236   0.15262   0.00000  Uiso   1.00
H1044  H     0.95400   0.50186   0.11828   0.00000  Uiso   1.00
H1045  H     0.10998   0.55905   0.22015   0.00000  Uiso   1.00
H1046  H     0.53921   0.25645   0.12502   0.00000  Uiso   1.00
H1047  H     0.87483   0.37421   0.07145   0.00000  Uiso   1.00
H1048  H     0.20372   0.49483   0.28624   0.00000  Uiso   1.00
H1049  H     0.55448   0.41108   0.08564   0.00000  Uiso   1.00
O1050  O     0.36478   0.75238   0.01870   0.00000  Uiso   1.00
O1051  O     0.79627   0.91065   0.30049   0.00000  Uiso   1.00
O1052  O     0.60047   0.45676   0.03730   0.00000  Uiso   1.00
N1053  N     0.45172   0.80629   0.03188   0.00000  Uiso   1.00
N1054  N     0.75920   0.91905   0.23269   0.00000  Uiso   1.00
N1055  N     0.61969   0.30822   0.04515   0.00000  Uiso   1.00
N1056  N     0.40564   0.86380   0.06304   0.00000  Uiso   1.00
N1057  N     0.71312   0.97656   0.26385   0.00000  Uiso   1.00
N1058  N     0.57361   0.36573   0.07631   0.00000  Uiso   1.00
C1059  C     0.81326   0.24456   0.14810   0.00000  Uiso   1.00
C1060  C     0.80316   0.33156   0.12677   0.00000  Uiso   1.00
C1061  C     0.75316   0.36196   0.10070   0.00000  Uiso   1.00
C1062  C     0.75244   0.44324   0.08427   0.00000  Uiso   1.00
C1063  C     0.72952   0.57090   0.04975   0.00000  Uiso   1.00
C1064  C     0.84051   0.26609   0.19136   0.00000  Uiso   1.00
C1065  C     0.82192   0.24143   0.21960   0.00000  Uiso   1.00
C1066  C     0.85265   0.26758   0.25755   0.00000  Uiso   1.00
C1067  C     0.88775   0.29353   0.32332   0.00000  Uiso   1.00
C1068  C     0.35615   0.69788   0.13794   0.00000  Uiso   1.00
C1069  C     0.35072   0.61586   0.12127   0.00000  Uiso   1.00
C1070  C     0.39462   0.58457   0.11426   0.00000  Uiso   1.00
C1071  C     0.45400   0.50462   0.09709   0.00000  Uiso   1.00
C1072  C     0.90090   0.33482   0.16529   0.00000  Uiso   1.00
C1073  C     0.85077   0.38059   0.13611   0.00000  Uiso   1.00
C1074  C     0.85012   0.46184   0.11972   0.00000  Uiso   1.00
C1075  C     0.80013   0.49236   0.09363   0.00000  Uiso   1.00
C1076  C     0.88812   0.31512   0.20071   0.00000  Uiso   1.00
C1077  C     0.91889   0.34130   0.23863   0.00000  Uiso   1.00
C1078  C     0.90034   0.31669   0.26691   0.00000  Uiso   1.00
C1079  C     0.40376   0.74691   0.14728   0.00000  Uiso   1.00
C1080  C     0.44768   0.71574   0.14030   0.00000  Uiso   1.00
C1081  C     0.44231   0.63369   0.12362   0.00000  Uiso   1.00
H1082  H     0.77620   0.20638   0.14083   0.00000  Uiso   1.00
H1083  H     0.71632   0.32400   0.09348   0.00000  Uiso   1.00
H1084  H     0.78508   0.20348   0.21236   0.00000  Uiso   1.00
H1085  H     0.31387   0.57793   0.11405   0.00000  Uiso   1.00
H1086  H     0.67094   0.47605   0.04511   0.00000  Uiso   1.00
H1087  H     0.81593   0.22189   0.29579   0.00000  Uiso   1.00
H1088  H     0.37664   0.45715   0.08848   0.00000  Uiso   1.00
H1089  H     0.93796   0.37300   0.17257   0.00000  Uiso   1.00
H1090  H     0.88697   0.49977   0.12696   0.00000  Uiso   1.00
H1091  H     0.95573   0.37924   0.24585   0.00000  Uiso   1.00
H1092  H     0.48452   0.75370   0.14753   0.00000  Uiso   1.00
H1093  H     0.80944   0.61870   0.07229   0.00000  Uiso   1.00
H1094  H     0.95443   0.36454   0.32297   0.00000  Uiso   1.00
H1095  H     0.51514   0.59980   0.11566   0.00000  Uiso   1.00
O1096  O     0.70372   0.62777   0.02814   0.00000  Uiso   1.00
O1097  O     0.89395   0.29431   0.35702   0.00000  Uiso   1.00
O1098  O     0.47359   0.44698   0.08503   0.00000  Uiso   1.00
N1099  N     0.71054   0.49222   0.05776   0.00000  Uiso   1.00
N1100  N     0.84609   0.25460   0.29213   0.00000  Uiso   1.00
N1101  N     0.40285   0.50708   0.09832   0.00000  Uiso   1.00
N1102  N     0.78506   0.56898   0.07238   0.00000  Uiso   1.00
N1103  N     0.92061   0.33137   0.30675   0.00000  Uiso   1.00
N1104  N     0.47737   0.58385   0.11295   0.00000  Uiso   1.00
