data_job_02231
_audit_creation_date              2018-12-19
_audit_creation_method            'Materials Studio'
_symmetry_space_group_name_H-M    'P1'
_symmetry_Int_Tables_number       1
_symmetry_cell_setting            triclinic
loop_
_symmetry_equiv_pos_as_xyz
  x,y,z
_cell_length_a                    22.9670
_cell_length_b                    17.9074
_cell_length_c                    23.0844
_cell_angle_alpha                 90.0000
_cell_angle_beta                  90.0000
_cell_angle_gamma                 90.0000
loop_
_atom_site_label
_atom_site_type_symbol
_atom_site_fract_x
_atom_site_fract_y
_atom_site_fract_z
_atom_site_U_iso_or_equiv
_atom_site_adp_type
_atom_site_occupancy
C1     C     0.41350   0.64930   0.15411   0.00000  Uiso   1.00
C2     C     0.36535   0.70137   0.13319   0.00000  Uiso   1.00
C3     C     0.34408   0.76292   0.16296   0.00000  Uiso   1.00
C4     C     0.29994   0.80341   0.13647   0.00000  Uiso   1.00
C5     C     0.22851   0.88734   0.11226   0.00000  Uiso   1.00
C6     C     0.38744   0.57098   0.15378   0.00000  Uiso   1.00
C7     C     0.38477   0.52290   0.20087   0.00000  Uiso   1.00
C8     C     0.35922   0.45363   0.19171   0.00000  Uiso   1.00
C9     C     0.32213   0.33510   0.19946   0.00000  Uiso   1.00
C10    C     0.45988   0.64982   0.10685   0.00000  Uiso   1.00
C11    C     0.51812   0.66802   0.11447   0.00000  Uiso   1.00
C12    C     0.55357   0.66510   0.06581   0.00000  Uiso   1.00
C13    C     0.62896   0.66899   0.00069   0.00000  Uiso   1.00
C14    C     0.37291   0.61174   0.05414   0.00000  Uiso   1.00
C15    C     0.34330   0.68096   0.07889   0.00000  Uiso   1.00
C16    C     0.29918   0.72137   0.05235   0.00000  Uiso   1.00
C17    C     0.27785   0.78298   0.08207   0.00000  Uiso   1.00
C18    C     0.36540   0.55058   0.09948   0.00000  Uiso   1.00
C19    C     0.33986   0.48135   0.09025   0.00000  Uiso   1.00
C20    C     0.33714   0.43319   0.13731   0.00000  Uiso   1.00
C21    C     0.43784   0.62942   0.05255   0.00000  Uiso   1.00
C22    C     0.47321   0.62647   0.00386   0.00000  Uiso   1.00
C23    C     0.53149   0.64467   0.01141   0.00000  Uiso   1.00
H24    H     0.43066   0.66518   0.19639   0.00000  Uiso   1.00
H25    H     0.36115   0.77869   0.20499   0.00000  Uiso   1.00
H26    H     0.40183   0.53870   0.24288   0.00000  Uiso   1.00
H27    H     0.53516   0.68380   0.15650   0.00000  Uiso   1.00
H28    H     0.27436   0.89552   0.19058   0.00000  Uiso   1.00
H29    H     0.36015   0.38949   0.27048   0.00000  Uiso   1.00
H30    H     0.64130   0.69545   0.08833   0.00000  Uiso   1.00
H31    H     0.35574   0.59586   0.01186   0.00000  Uiso   1.00
H32    H     0.28213   0.70557   0.01033   0.00000  Uiso   1.00
H33    H     0.32280   0.46558   0.04822   0.00000  Uiso   1.00
H34    H     0.45613   0.61068   0.96185   0.00000  Uiso   1.00
H35    H     0.21021   0.83618   0.03259   0.00000  Uiso   1.00
H36    H     0.29601   0.33014   0.11249   0.00000  Uiso   1.00
H37    H     0.57716   0.63611   0.93034   0.00000  Uiso   1.00
O38    O     0.19519   0.93926   0.11391   0.00000  Uiso   1.00
O39    O     0.30776   0.27536   0.21874   0.00000  Uiso   1.00
O40    O     0.67663   0.67678   0.97977   0.00000  Uiso   1.00
N41    N     0.26937   0.86651   0.15360   0.00000  Uiso   1.00
N42    N     0.34957   0.39340   0.22831   0.00000  Uiso   1.00
N43    N     0.61243   0.67943   0.05802   0.00000  Uiso   1.00
N44    N     0.23485   0.83458   0.06859   0.00000  Uiso   1.00
N45    N     0.31506   0.36147   0.14329   0.00000  Uiso   1.00
N46    N     0.57792   0.64750   0.97300   0.00000  Uiso   1.00
C47    C     0.41964   0.85283   0.31990   0.00000  Uiso   1.00
C48    C     0.35979   0.82227   0.33590   0.00000  Uiso   1.00
C49    C     0.33578   0.75603   0.31583   0.00000  Uiso   1.00
C50    C     0.28046   0.73791   0.33558   0.00000  Uiso   1.00
C51    C     0.19210   0.68341   0.35456   0.00000  Uiso   1.00
C52    C     0.40917   0.93072   0.29532   0.00000  Uiso   1.00
C53    C     0.42668   0.95567   0.24114   0.00000  Uiso   1.00
C54    C     0.41293   0.02885   0.22673   0.00000  Uiso   1.00
C55    C     0.40128   0.14274   0.18274   0.00000  Uiso   1.00
C56    C     0.45190   0.86416   0.37696   0.00000  Uiso   1.00
C57    C     0.50534   0.83316   0.39141   0.00000  Uiso   1.00
C58    C     0.52757   0.85032   0.44574   0.00000  Uiso   1.00
C59    C     0.58225   0.86086   0.52850   0.00000  Uiso   1.00
C60    C     0.36409   0.93844   0.39067   0.00000  Uiso   1.00
C61    C     0.32962   0.86877   0.37434   0.00000  Uiso   1.00
C62    C     0.27432   0.85075   0.39413   0.00000  Uiso   1.00
C63    C     0.25023   0.78449   0.37409   0.00000  Uiso   1.00
C64    C     0.37900   0.97722   0.33377   0.00000  Uiso   1.00
C65    C     0.36522   0.05039   0.31944   0.00000  Uiso   1.00
C66    C     0.38271   0.07544   0.26525   0.00000  Uiso   1.00
C67    C     0.42172   0.91066   0.41541   0.00000  Uiso   1.00
C68    C     0.44388   0.92788   0.46972   0.00000  Uiso   1.00
C69    C     0.49734   0.89691   0.48425   0.00000  Uiso   1.00
H70    H     0.44313   0.81663   0.28996   0.00000  Uiso   1.00
H71    H     0.35914   0.72006   0.28607   0.00000  Uiso   1.00
H72    H     0.45004   0.91967   0.21140   0.00000  Uiso   1.00
H73    H     0.52868   0.79718   0.36165   0.00000  Uiso   1.00
H74    H     0.25271   0.63352   0.29869   0.00000  Uiso   1.00
H75    H     0.44438   0.05442   0.14124   0.00000  Uiso   1.00
H76    H     0.61021   0.79612   0.45808   0.00000  Uiso   1.00
H77    H     0.34060   0.97464   0.42061   0.00000  Uiso   1.00
H78    H     0.25098   0.88674   0.42388   0.00000  Uiso   1.00
H79    H     0.34188   0.08636   0.34921   0.00000  Uiso   1.00
H80    H     0.42051   0.96386   0.49946   0.00000  Uiso   1.00
H81    H     0.16492   0.76881   0.41054   0.00000  Uiso   1.00
H82    H     0.35659   0.18971   0.25310   0.00000  Uiso   1.00
H83    H     0.52242   0.93141   0.56993   0.00000  Uiso   1.00
O84    O     0.15170   0.64050   0.35440   0.00000  Uiso   1.00
O85    O     0.40318   0.19271   0.14784   0.00000  Uiso   1.00
O86    O     0.62074   0.85382   0.56353   0.00000  Uiso   1.00
N87    N     0.24435   0.67741   0.32458   0.00000  Uiso   1.00
N88    N     0.42354   0.07093   0.17737   0.00000  Uiso   1.00
N89    N     0.57859   0.82946   0.47358   0.00000  Uiso   1.00
N90    N     0.19711   0.75021   0.38476   0.00000  Uiso   1.00
N91    N     0.37631   0.14373   0.23755   0.00000  Uiso   1.00
N92    N     0.53135   0.90225   0.53377   0.00000  Uiso   1.00
C93    C     0.08650   0.35070   0.15411   0.00000  Uiso   1.00
C94    C     0.13465   0.29863   0.13319   0.00000  Uiso   1.00
C95    C     0.15592   0.23708   0.16296   0.00000  Uiso   1.00
C96    C     0.20006   0.19659   0.13647   0.00000  Uiso   1.00
C97    C     0.27149   0.11266   0.11226   0.00000  Uiso   1.00
C98    C     0.11256   0.42902   0.15378   0.00000  Uiso   1.00
C99    C     0.11523   0.47710   0.20087   0.00000  Uiso   1.00
C100   C     0.14078   0.54637   0.19171   0.00000  Uiso   1.00
C101   C     0.17787   0.66490   0.19946   0.00000  Uiso   1.00
C102   C     0.04012   0.35018   0.10685   0.00000  Uiso   1.00
C103   C     0.98188   0.33198   0.11447   0.00000  Uiso   1.00
C104   C     0.94643   0.33490   0.06581   0.00000  Uiso   1.00
C105   C     0.87104   0.33101   0.00069   0.00000  Uiso   1.00
C106   C     0.12709   0.38826   0.05414   0.00000  Uiso   1.00
C107   C     0.15670   0.31904   0.07889   0.00000  Uiso   1.00
C108   C     0.20082   0.27863   0.05235   0.00000  Uiso   1.00
C109   C     0.22215   0.21702   0.08207   0.00000  Uiso   1.00
C110   C     0.13460   0.44942   0.09948   0.00000  Uiso   1.00
C111   C     0.16014   0.51865   0.09025   0.00000  Uiso   1.00
C112   C     0.16286   0.56681   0.13731   0.00000  Uiso   1.00
C113   C     0.06216   0.37058   0.05255   0.00000  Uiso   1.00
C114   C     0.02679   0.37353   0.00386   0.00000  Uiso   1.00
C115   C     0.96851   0.35533   0.01141   0.00000  Uiso   1.00
H116   H     0.06934   0.33482   0.19639   0.00000  Uiso   1.00
H117   H     0.13885   0.22131   0.20499   0.00000  Uiso   1.00
H118   H     0.09817   0.46130   0.24288   0.00000  Uiso   1.00
H119   H     0.96484   0.31620   0.15650   0.00000  Uiso   1.00
H120   H     0.22564   0.10448   0.19058   0.00000  Uiso   1.00
H121   H     0.13985   0.61051   0.27048   0.00000  Uiso   1.00
H122   H     0.85870   0.30455   0.08833   0.00000  Uiso   1.00
H123   H     0.14426   0.40414   0.01186   0.00000  Uiso   1.00
H124   H     0.21787   0.29443   0.01033   0.00000  Uiso   1.00
H125   H     0.17720   0.53442   0.04822   0.00000  Uiso   1.00
H126   H     0.04387   0.38932   0.96185   0.00000  Uiso   1.00
H127   H     0.28979   0.16382   0.03259   0.00000  Uiso   1.00
H128   H     0.20399   0.66986   0.11249   0.00000  Uiso   1.00
H129   H     0.92284   0.36389   0.93034   0.00000  Uiso   1.00
O130   O     0.30481   0.06074   0.11391   0.00000  Uiso   1.00
O131   O     0.19224   0.72464   0.21874   0.00000  Uiso   1.00
O132   O     0.82337   0.32322   0.97977   0.00000  Uiso   1.00
N133   N     0.23063   0.13349   0.15360   0.00000  Uiso   1.00
N134   N     0.15043   0.60660   0.22831   0.00000  Uiso   1.00
N135   N     0.88757   0.32057   0.05802   0.00000  Uiso   1.00
N136   N     0.26515   0.16542   0.06859   0.00000  Uiso   1.00
N137   N     0.18494   0.63853   0.14329   0.00000  Uiso   1.00
N138   N     0.92208   0.35250   0.97300   0.00000  Uiso   1.00
C139   C     0.08036   0.14717   0.31990   0.00000  Uiso   1.00
C140   C     0.14021   0.17773   0.33590   0.00000  Uiso   1.00
C141   C     0.16422   0.24397   0.31583   0.00000  Uiso   1.00
C142   C     0.21954   0.26209   0.33558   0.00000  Uiso   1.00
C143   C     0.30790   0.31659   0.35456   0.00000  Uiso   1.00
C144   C     0.09083   0.06928   0.29532   0.00000  Uiso   1.00
C145   C     0.07332   0.04433   0.24114   0.00000  Uiso   1.00
C146   C     0.08707   0.97115   0.22673   0.00000  Uiso   1.00
C147   C     0.09872   0.85726   0.18274   0.00000  Uiso   1.00
C148   C     0.04810   0.13584   0.37696   0.00000  Uiso   1.00
C149   C     0.99466   0.16684   0.39141   0.00000  Uiso   1.00
C150   C     0.97243   0.14968   0.44574   0.00000  Uiso   1.00
C151   C     0.91775   0.13914   0.52850   0.00000  Uiso   1.00
C152   C     0.13591   0.06156   0.39067   0.00000  Uiso   1.00
C153   C     0.17038   0.13123   0.37434   0.00000  Uiso   1.00
C154   C     0.22568   0.14925   0.39413   0.00000  Uiso   1.00
C155   C     0.24977   0.21551   0.37409   0.00000  Uiso   1.00
C156   C     0.12100   0.02278   0.33377   0.00000  Uiso   1.00
C157   C     0.13478   0.94961   0.31944   0.00000  Uiso   1.00
C158   C     0.11729   0.92456   0.26525   0.00000  Uiso   1.00
C159   C     0.07828   0.08934   0.41541   0.00000  Uiso   1.00
C160   C     0.05612   0.07212   0.46972   0.00000  Uiso   1.00
C161   C     0.00266   0.10309   0.48425   0.00000  Uiso   1.00
H162   H     0.05687   0.18337   0.28996   0.00000  Uiso   1.00
H163   H     0.14086   0.27994   0.28607   0.00000  Uiso   1.00
H164   H     0.04996   0.08033   0.21140   0.00000  Uiso   1.00
H165   H     0.97132   0.20282   0.36165   0.00000  Uiso   1.00
H166   H     0.24729   0.36648   0.29869   0.00000  Uiso   1.00
H167   H     0.05562   0.94558   0.14124   0.00000  Uiso   1.00
H168   H     0.88979   0.20388   0.45808   0.00000  Uiso   1.00
H169   H     0.15940   0.02536   0.42061   0.00000  Uiso   1.00
H170   H     0.24902   0.11326   0.42388   0.00000  Uiso   1.00
H171   H     0.15812   0.91364   0.34921   0.00000  Uiso   1.00
H172   H     0.07949   0.03614   0.49946   0.00000  Uiso   1.00
H173   H     0.33508   0.23119   0.41054   0.00000  Uiso   1.00
H174   H     0.14341   0.81029   0.25310   0.00000  Uiso   1.00
H175   H     0.97758   0.06859   0.56993   0.00000  Uiso   1.00
O176   O     0.34830   0.35950   0.35440   0.00000  Uiso   1.00
O177   O     0.09682   0.80729   0.14784   0.00000  Uiso   1.00
O178   O     0.87926   0.14618   0.56353   0.00000  Uiso   1.00
N179   N     0.25565   0.32259   0.32458   0.00000  Uiso   1.00
N180   N     0.07646   0.92907   0.17737   0.00000  Uiso   1.00
N181   N     0.92141   0.17054   0.47358   0.00000  Uiso   1.00
N182   N     0.30289   0.24979   0.38476   0.00000  Uiso   1.00
N183   N     0.12369   0.85627   0.23755   0.00000  Uiso   1.00
N184   N     0.96865   0.09775   0.53377   0.00000  Uiso   1.00
C185   C     0.58650   0.64930   0.34589   0.00000  Uiso   1.00
C186   C     0.63465   0.70137   0.36681   0.00000  Uiso   1.00
C187   C     0.65592   0.76292   0.33704   0.00000  Uiso   1.00
C188   C     0.70006   0.80341   0.36353   0.00000  Uiso   1.00
C189   C     0.77149   0.88734   0.38774   0.00000  Uiso   1.00
C190   C     0.61256   0.57098   0.34622   0.00000  Uiso   1.00
C191   C     0.61523   0.52290   0.29913   0.00000  Uiso   1.00
C192   C     0.64078   0.45363   0.30829   0.00000  Uiso   1.00
C193   C     0.67787   0.33510   0.30054   0.00000  Uiso   1.00
C194   C     0.54012   0.64982   0.39315   0.00000  Uiso   1.00
C195   C     0.48188   0.66802   0.38553   0.00000  Uiso   1.00
C196   C     0.44643   0.66510   0.43419   0.00000  Uiso   1.00
C197   C     0.37104   0.66899   0.49931   0.00000  Uiso   1.00
C198   C     0.62709   0.61174   0.44586   0.00000  Uiso   1.00
C199   C     0.65670   0.68096   0.42111   0.00000  Uiso   1.00
C200   C     0.70082   0.72137   0.44765   0.00000  Uiso   1.00
C201   C     0.72215   0.78298   0.41793   0.00000  Uiso   1.00
C202   C     0.63460   0.55058   0.40052   0.00000  Uiso   1.00
C203   C     0.66014   0.48135   0.40975   0.00000  Uiso   1.00
C204   C     0.66286   0.43319   0.36269   0.00000  Uiso   1.00
C205   C     0.56216   0.62942   0.44745   0.00000  Uiso   1.00
C206   C     0.52679   0.62647   0.49614   0.00000  Uiso   1.00
C207   C     0.46851   0.64467   0.48859   0.00000  Uiso   1.00
H208   H     0.56934   0.66518   0.30361   0.00000  Uiso   1.00
H209   H     0.63885   0.77869   0.29501   0.00000  Uiso   1.00
H210   H     0.59817   0.53870   0.25712   0.00000  Uiso   1.00
H211   H     0.46484   0.68380   0.34350   0.00000  Uiso   1.00
H212   H     0.72564   0.89552   0.30942   0.00000  Uiso   1.00
H213   H     0.63985   0.38949   0.22952   0.00000  Uiso   1.00
H214   H     0.35870   0.69545   0.41167   0.00000  Uiso   1.00
H215   H     0.64426   0.59586   0.48814   0.00000  Uiso   1.00
H216   H     0.71787   0.70557   0.48967   0.00000  Uiso   1.00
H217   H     0.67720   0.46558   0.45178   0.00000  Uiso   1.00
H218   H     0.54387   0.61068   0.53815   0.00000  Uiso   1.00
H219   H     0.78979   0.83618   0.46741   0.00000  Uiso   1.00
H220   H     0.70399   0.33014   0.38751   0.00000  Uiso   1.00
H221   H     0.42284   0.63611   0.56966   0.00000  Uiso   1.00
O222   O     0.80481   0.93926   0.38609   0.00000  Uiso   1.00
O223   O     0.69224   0.27536   0.28126   0.00000  Uiso   1.00
O224   O     0.32337   0.67678   0.52023   0.00000  Uiso   1.00
N225   N     0.73063   0.86651   0.34640   0.00000  Uiso   1.00
N226   N     0.65043   0.39340   0.27169   0.00000  Uiso   1.00
N227   N     0.38757   0.67943   0.44198   0.00000  Uiso   1.00
N228   N     0.76515   0.83458   0.43141   0.00000  Uiso   1.00
N229   N     0.68494   0.36147   0.35671   0.00000  Uiso   1.00
N230   N     0.42208   0.64750   0.52700   0.00000  Uiso   1.00
C231   C     0.58036   0.85283   0.18010   0.00000  Uiso   1.00
C232   C     0.64021   0.82227   0.16410   0.00000  Uiso   1.00
C233   C     0.66422   0.75603   0.18417   0.00000  Uiso   1.00
C234   C     0.71954   0.73791   0.16442   0.00000  Uiso   1.00
C235   C     0.80790   0.68341   0.14544   0.00000  Uiso   1.00
C236   C     0.59083   0.93072   0.20468   0.00000  Uiso   1.00
C237   C     0.57332   0.95567   0.25886   0.00000  Uiso   1.00
C238   C     0.58707   0.02885   0.27327   0.00000  Uiso   1.00
C239   C     0.59872   0.14274   0.31726   0.00000  Uiso   1.00
C240   C     0.54810   0.86416   0.12304   0.00000  Uiso   1.00
C241   C     0.49466   0.83316   0.10859   0.00000  Uiso   1.00
C242   C     0.47243   0.85032   0.05426   0.00000  Uiso   1.00
C243   C     0.41775   0.86086   0.97150   0.00000  Uiso   1.00
C244   C     0.63591   0.93844   0.10933   0.00000  Uiso   1.00
C245   C     0.67038   0.86877   0.12566   0.00000  Uiso   1.00
C246   C     0.72568   0.85075   0.10587   0.00000  Uiso   1.00
C247   C     0.74977   0.78449   0.12591   0.00000  Uiso   1.00
C248   C     0.62100   0.97722   0.16623   0.00000  Uiso   1.00
C249   C     0.63478   0.05039   0.18056   0.00000  Uiso   1.00
C250   C     0.61729   0.07544   0.23475   0.00000  Uiso   1.00
C251   C     0.57828   0.91066   0.08459   0.00000  Uiso   1.00
C252   C     0.55612   0.92788   0.03028   0.00000  Uiso   1.00
C253   C     0.50266   0.89691   0.01575   0.00000  Uiso   1.00
H254   H     0.55687   0.81663   0.21004   0.00000  Uiso   1.00
H255   H     0.64086   0.72006   0.21393   0.00000  Uiso   1.00
H256   H     0.54996   0.91967   0.28860   0.00000  Uiso   1.00
H257   H     0.47132   0.79718   0.13835   0.00000  Uiso   1.00
H258   H     0.74729   0.63352   0.20131   0.00000  Uiso   1.00
H259   H     0.55562   0.05442   0.35876   0.00000  Uiso   1.00
H260   H     0.38979   0.79612   0.04192   0.00000  Uiso   1.00
H261   H     0.65940   0.97464   0.07939   0.00000  Uiso   1.00
H262   H     0.74902   0.88674   0.07612   0.00000  Uiso   1.00
H263   H     0.65812   0.08636   0.15079   0.00000  Uiso   1.00
H264   H     0.57949   0.96386   0.00054   0.00000  Uiso   1.00
H265   H     0.83508   0.76881   0.08946   0.00000  Uiso   1.00
H266   H     0.64341   0.18971   0.24690   0.00000  Uiso   1.00
H267   H     0.47758   0.93141   0.93007   0.00000  Uiso   1.00
O268   O     0.84830   0.64050   0.14560   0.00000  Uiso   1.00
O269   O     0.59682   0.19271   0.35216   0.00000  Uiso   1.00
O270   O     0.37926   0.85382   0.93647   0.00000  Uiso   1.00
N271   N     0.75565   0.67741   0.17542   0.00000  Uiso   1.00
N272   N     0.57646   0.07093   0.32263   0.00000  Uiso   1.00
N273   N     0.42141   0.82946   0.02642   0.00000  Uiso   1.00
N274   N     0.80289   0.75021   0.11524   0.00000  Uiso   1.00
N275   N     0.62369   0.14373   0.26245   0.00000  Uiso   1.00
N276   N     0.46865   0.90225   0.96623   0.00000  Uiso   1.00
C277   C     0.91350   0.35070   0.34589   0.00000  Uiso   1.00
C278   C     0.86535   0.29863   0.36681   0.00000  Uiso   1.00
C279   C     0.84408   0.23708   0.33704   0.00000  Uiso   1.00
C280   C     0.79994   0.19659   0.36353   0.00000  Uiso   1.00
C281   C     0.72851   0.11266   0.38774   0.00000  Uiso   1.00
C282   C     0.88744   0.42902   0.34622   0.00000  Uiso   1.00
C283   C     0.88477   0.47710   0.29913   0.00000  Uiso   1.00
C284   C     0.85922   0.54637   0.30829   0.00000  Uiso   1.00
C285   C     0.82213   0.66490   0.30054   0.00000  Uiso   1.00
C286   C     0.95988   0.35018   0.39315   0.00000  Uiso   1.00
C287   C     0.01812   0.33198   0.38553   0.00000  Uiso   1.00
C288   C     0.05357   0.33490   0.43419   0.00000  Uiso   1.00
C289   C     0.12896   0.33101   0.49931   0.00000  Uiso   1.00
C290   C     0.87291   0.38826   0.44586   0.00000  Uiso   1.00
C291   C     0.84330   0.31904   0.42111   0.00000  Uiso   1.00
C292   C     0.79918   0.27863   0.44765   0.00000  Uiso   1.00
C293   C     0.77785   0.21702   0.41793   0.00000  Uiso   1.00
C294   C     0.86540   0.44942   0.40052   0.00000  Uiso   1.00
C295   C     0.83986   0.51865   0.40975   0.00000  Uiso   1.00
C296   C     0.83714   0.56681   0.36269   0.00000  Uiso   1.00
C297   C     0.93784   0.37058   0.44745   0.00000  Uiso   1.00
C298   C     0.97321   0.37353   0.49614   0.00000  Uiso   1.00
C299   C     0.03149   0.35533   0.48859   0.00000  Uiso   1.00
H300   H     0.93066   0.33482   0.30361   0.00000  Uiso   1.00
H301   H     0.86115   0.22131   0.29501   0.00000  Uiso   1.00
H302   H     0.90183   0.46130   0.25712   0.00000  Uiso   1.00
H303   H     0.03516   0.31620   0.34350   0.00000  Uiso   1.00
H304   H     0.77436   0.10448   0.30942   0.00000  Uiso   1.00
H305   H     0.86015   0.61051   0.22952   0.00000  Uiso   1.00
H306   H     0.14130   0.30455   0.41167   0.00000  Uiso   1.00
H307   H     0.85574   0.40414   0.48814   0.00000  Uiso   1.00
H308   H     0.78213   0.29443   0.48967   0.00000  Uiso   1.00
H309   H     0.82280   0.53442   0.45178   0.00000  Uiso   1.00
H310   H     0.95613   0.38932   0.53815   0.00000  Uiso   1.00
H311   H     0.71021   0.16382   0.46741   0.00000  Uiso   1.00
H312   H     0.79601   0.66986   0.38751   0.00000  Uiso   1.00
H313   H     0.07716   0.36389   0.56966   0.00000  Uiso   1.00
O314   O     0.69519   0.06074   0.38609   0.00000  Uiso   1.00
O315   O     0.80776   0.72464   0.28126   0.00000  Uiso   1.00
O316   O     0.17663   0.32322   0.52023   0.00000  Uiso   1.00
N317   N     0.76937   0.13349   0.34640   0.00000  Uiso   1.00
N318   N     0.84957   0.60660   0.27169   0.00000  Uiso   1.00
N319   N     0.11243   0.32057   0.44198   0.00000  Uiso   1.00
N320   N     0.73485   0.16542   0.43141   0.00000  Uiso   1.00
N321   N     0.81506   0.63853   0.35671   0.00000  Uiso   1.00
N322   N     0.07792   0.35250   0.52700   0.00000  Uiso   1.00
C323   C     0.91964   0.14717   0.18010   0.00000  Uiso   1.00
C324   C     0.85979   0.17773   0.16410   0.00000  Uiso   1.00
C325   C     0.83578   0.24397   0.18417   0.00000  Uiso   1.00
C326   C     0.78046   0.26209   0.16442   0.00000  Uiso   1.00
C327   C     0.69210   0.31659   0.14544   0.00000  Uiso   1.00
C328   C     0.90917   0.06928   0.20468   0.00000  Uiso   1.00
C329   C     0.92668   0.04433   0.25886   0.00000  Uiso   1.00
C330   C     0.91293   0.97115   0.27327   0.00000  Uiso   1.00
C331   C     0.90128   0.85726   0.31726   0.00000  Uiso   1.00
C332   C     0.95190   0.13584   0.12304   0.00000  Uiso   1.00
C333   C     0.00534   0.16684   0.10859   0.00000  Uiso   1.00
C334   C     0.02757   0.14968   0.05426   0.00000  Uiso   1.00
C335   C     0.08225   0.13914   0.97150   0.00000  Uiso   1.00
C336   C     0.86409   0.06156   0.10933   0.00000  Uiso   1.00
C337   C     0.82962   0.13123   0.12566   0.00000  Uiso   1.00
C338   C     0.77432   0.14925   0.10587   0.00000  Uiso   1.00
C339   C     0.75023   0.21551   0.12591   0.00000  Uiso   1.00
C340   C     0.87900   0.02278   0.16623   0.00000  Uiso   1.00
C341   C     0.86522   0.94961   0.18056   0.00000  Uiso   1.00
C342   C     0.88271   0.92456   0.23475   0.00000  Uiso   1.00
C343   C     0.92172   0.08934   0.08459   0.00000  Uiso   1.00
C344   C     0.94388   0.07212   0.03028   0.00000  Uiso   1.00
C345   C     0.99734   0.10309   0.01575   0.00000  Uiso   1.00
H346   H     0.94313   0.18337   0.21004   0.00000  Uiso   1.00
H347   H     0.85914   0.27994   0.21393   0.00000  Uiso   1.00
H348   H     0.95004   0.08033   0.28860   0.00000  Uiso   1.00
H349   H     0.02868   0.20282   0.13835   0.00000  Uiso   1.00
H350   H     0.75271   0.36648   0.20131   0.00000  Uiso   1.00
H351   H     0.94438   0.94558   0.35876   0.00000  Uiso   1.00
H352   H     0.11021   0.20388   0.04192   0.00000  Uiso   1.00
H353   H     0.84060   0.02536   0.07939   0.00000  Uiso   1.00
H354   H     0.75098   0.11326   0.07612   0.00000  Uiso   1.00
H355   H     0.84188   0.91364   0.15079   0.00000  Uiso   1.00
H356   H     0.92051   0.03614   0.00054   0.00000  Uiso   1.00
H357   H     0.66492   0.23119   0.08946   0.00000  Uiso   1.00
H358   H     0.85659   0.81029   0.24690   0.00000  Uiso   1.00
H359   H     0.02242   0.06859   0.93007   0.00000  Uiso   1.00
O360   O     0.65170   0.35950   0.14560   0.00000  Uiso   1.00
O361   O     0.90318   0.80729   0.35216   0.00000  Uiso   1.00
O362   O     0.12074   0.14618   0.93647   0.00000  Uiso   1.00
N363   N     0.74435   0.32259   0.17542   0.00000  Uiso   1.00
N364   N     0.92354   0.92907   0.32263   0.00000  Uiso   1.00
N365   N     0.07859   0.17054   0.02642   0.00000  Uiso   1.00
N366   N     0.69711   0.24979   0.11524   0.00000  Uiso   1.00
N367   N     0.87631   0.85627   0.26245   0.00000  Uiso   1.00
N368   N     0.03135   0.09775   0.96623   0.00000  Uiso   1.00
C369   C     0.58650   0.35070   0.84589   0.00000  Uiso   1.00
C370   C     0.63465   0.29863   0.86681   0.00000  Uiso   1.00
C371   C     0.65592   0.23708   0.83704   0.00000  Uiso   1.00
C372   C     0.70006   0.19659   0.86353   0.00000  Uiso   1.00
C373   C     0.77149   0.11266   0.88774   0.00000  Uiso   1.00
C374   C     0.61256   0.42902   0.84622   0.00000  Uiso   1.00
C375   C     0.61523   0.47710   0.79913   0.00000  Uiso   1.00
C376   C     0.64078   0.54637   0.80829   0.00000  Uiso   1.00
C377   C     0.67787   0.66490   0.80054   0.00000  Uiso   1.00
C378   C     0.54012   0.35018   0.89315   0.00000  Uiso   1.00
C379   C     0.48188   0.33198   0.88553   0.00000  Uiso   1.00
C380   C     0.44643   0.33490   0.93419   0.00000  Uiso   1.00
C381   C     0.37104   0.33101   0.99931   0.00000  Uiso   1.00
C382   C     0.62709   0.38826   0.94586   0.00000  Uiso   1.00
C383   C     0.65670   0.31904   0.92111   0.00000  Uiso   1.00
C384   C     0.70082   0.27863   0.94765   0.00000  Uiso   1.00
C385   C     0.72215   0.21702   0.91793   0.00000  Uiso   1.00
C386   C     0.63460   0.44942   0.90052   0.00000  Uiso   1.00
C387   C     0.66014   0.51865   0.90975   0.00000  Uiso   1.00
C388   C     0.66286   0.56681   0.86269   0.00000  Uiso   1.00
C389   C     0.56216   0.37058   0.94745   0.00000  Uiso   1.00
C390   C     0.52679   0.37353   0.99614   0.00000  Uiso   1.00
C391   C     0.46851   0.35533   0.98859   0.00000  Uiso   1.00
H392   H     0.56934   0.33482   0.80361   0.00000  Uiso   1.00
H393   H     0.63885   0.22131   0.79501   0.00000  Uiso   1.00
H394   H     0.59817   0.46130   0.75712   0.00000  Uiso   1.00
H395   H     0.46484   0.31620   0.84350   0.00000  Uiso   1.00
H396   H     0.72564   0.10448   0.80942   0.00000  Uiso   1.00
H397   H     0.63985   0.61051   0.72952   0.00000  Uiso   1.00
H398   H     0.35870   0.30455   0.91167   0.00000  Uiso   1.00
H399   H     0.64426   0.40414   0.98814   0.00000  Uiso   1.00
H400   H     0.71787   0.29443   0.98967   0.00000  Uiso   1.00
H401   H     0.67720   0.53442   0.95178   0.00000  Uiso   1.00
H402   H     0.54387   0.38932   0.03815   0.00000  Uiso   1.00
H403   H     0.78979   0.16382   0.96741   0.00000  Uiso   1.00
H404   H     0.70399   0.66986   0.88751   0.00000  Uiso   1.00
H405   H     0.42284   0.36389   0.06966   0.00000  Uiso   1.00
O406   O     0.80481   0.06074   0.88609   0.00000  Uiso   1.00
O407   O     0.69224   0.72464   0.78126   0.00000  Uiso   1.00
O408   O     0.32337   0.32322   0.02023   0.00000  Uiso   1.00
N409   N     0.73063   0.13349   0.84640   0.00000  Uiso   1.00
N410   N     0.65043   0.60660   0.77169   0.00000  Uiso   1.00
N411   N     0.38757   0.32057   0.94198   0.00000  Uiso   1.00
N412   N     0.76515   0.16542   0.93141   0.00000  Uiso   1.00
N413   N     0.68494   0.63853   0.85671   0.00000  Uiso   1.00
N414   N     0.42208   0.35250   0.02700   0.00000  Uiso   1.00
C415   C     0.58036   0.14717   0.68010   0.00000  Uiso   1.00
C416   C     0.64021   0.17773   0.66410   0.00000  Uiso   1.00
C417   C     0.66422   0.24397   0.68417   0.00000  Uiso   1.00
C418   C     0.71954   0.26209   0.66442   0.00000  Uiso   1.00
C419   C     0.80790   0.31659   0.64544   0.00000  Uiso   1.00
C420   C     0.59083   0.06928   0.70468   0.00000  Uiso   1.00
C421   C     0.57332   0.04433   0.75886   0.00000  Uiso   1.00
C422   C     0.58707   0.97115   0.77327   0.00000  Uiso   1.00
C423   C     0.59872   0.85726   0.81726   0.00000  Uiso   1.00
C424   C     0.54810   0.13584   0.62304   0.00000  Uiso   1.00
C425   C     0.49466   0.16684   0.60859   0.00000  Uiso   1.00
C426   C     0.47243   0.14968   0.55426   0.00000  Uiso   1.00
C427   C     0.41775   0.13914   0.47150   0.00000  Uiso   1.00
C428   C     0.63591   0.06156   0.60933   0.00000  Uiso   1.00
C429   C     0.67038   0.13123   0.62566   0.00000  Uiso   1.00
C430   C     0.72568   0.14925   0.60587   0.00000  Uiso   1.00
C431   C     0.74977   0.21551   0.62591   0.00000  Uiso   1.00
C432   C     0.62100   0.02278   0.66623   0.00000  Uiso   1.00
C433   C     0.63478   0.94961   0.68056   0.00000  Uiso   1.00
C434   C     0.61729   0.92456   0.73475   0.00000  Uiso   1.00
C435   C     0.57828   0.08934   0.58459   0.00000  Uiso   1.00
C436   C     0.55612   0.07212   0.53028   0.00000  Uiso   1.00
C437   C     0.50266   0.10309   0.51575   0.00000  Uiso   1.00
H438   H     0.55687   0.18337   0.71004   0.00000  Uiso   1.00
H439   H     0.64086   0.27994   0.71393   0.00000  Uiso   1.00
H440   H     0.54996   0.08033   0.78860   0.00000  Uiso   1.00
H441   H     0.47132   0.20282   0.63835   0.00000  Uiso   1.00
H442   H     0.74729   0.36648   0.70131   0.00000  Uiso   1.00
H443   H     0.55562   0.94558   0.85876   0.00000  Uiso   1.00
H444   H     0.38979   0.20388   0.54192   0.00000  Uiso   1.00
H445   H     0.65940   0.02536   0.57939   0.00000  Uiso   1.00
H446   H     0.74902   0.11326   0.57612   0.00000  Uiso   1.00
H447   H     0.65812   0.91364   0.65079   0.00000  Uiso   1.00
H448   H     0.57949   0.03614   0.50054   0.00000  Uiso   1.00
H449   H     0.83508   0.23119   0.58946   0.00000  Uiso   1.00
H450   H     0.64341   0.81029   0.74690   0.00000  Uiso   1.00
H451   H     0.47758   0.06859   0.43007   0.00000  Uiso   1.00
O452   O     0.84830   0.35950   0.64560   0.00000  Uiso   1.00
O453   O     0.59682   0.80729   0.85216   0.00000  Uiso   1.00
O454   O     0.37926   0.14618   0.43647   0.00000  Uiso   1.00
N455   N     0.75565   0.32259   0.67542   0.00000  Uiso   1.00
N456   N     0.57646   0.92907   0.82263   0.00000  Uiso   1.00
N457   N     0.42141   0.17054   0.52642   0.00000  Uiso   1.00
N458   N     0.80289   0.24979   0.61524   0.00000  Uiso   1.00
N459   N     0.62369   0.85627   0.76245   0.00000  Uiso   1.00
N460   N     0.46865   0.09775   0.46623   0.00000  Uiso   1.00
C461   C     0.91350   0.64930   0.84589   0.00000  Uiso   1.00
C462   C     0.86535   0.70137   0.86681   0.00000  Uiso   1.00
C463   C     0.84408   0.76292   0.83704   0.00000  Uiso   1.00
C464   C     0.79994   0.80341   0.86353   0.00000  Uiso   1.00
C465   C     0.72851   0.88734   0.88774   0.00000  Uiso   1.00
C466   C     0.88744   0.57098   0.84622   0.00000  Uiso   1.00
C467   C     0.88477   0.52290   0.79913   0.00000  Uiso   1.00
C468   C     0.85922   0.45363   0.80829   0.00000  Uiso   1.00
C469   C     0.82213   0.33510   0.80054   0.00000  Uiso   1.00
C470   C     0.95988   0.64982   0.89315   0.00000  Uiso   1.00
C471   C     0.01812   0.66802   0.88553   0.00000  Uiso   1.00
C472   C     0.05357   0.66510   0.93419   0.00000  Uiso   1.00
C473   C     0.12896   0.66899   0.99931   0.00000  Uiso   1.00
C474   C     0.87291   0.61174   0.94586   0.00000  Uiso   1.00
C475   C     0.84330   0.68096   0.92111   0.00000  Uiso   1.00
C476   C     0.79918   0.72137   0.94765   0.00000  Uiso   1.00
C477   C     0.77785   0.78298   0.91793   0.00000  Uiso   1.00
C478   C     0.86540   0.55058   0.90052   0.00000  Uiso   1.00
C479   C     0.83986   0.48135   0.90975   0.00000  Uiso   1.00
C480   C     0.83714   0.43319   0.86269   0.00000  Uiso   1.00
C481   C     0.93784   0.62942   0.94745   0.00000  Uiso   1.00
C482   C     0.97321   0.62647   0.99614   0.00000  Uiso   1.00
C483   C     0.03149   0.64467   0.98859   0.00000  Uiso   1.00
H484   H     0.93066   0.66518   0.80361   0.00000  Uiso   1.00
H485   H     0.86115   0.77869   0.79501   0.00000  Uiso   1.00
H486   H     0.90183   0.53870   0.75712   0.00000  Uiso   1.00
H487   H     0.03516   0.68380   0.84350   0.00000  Uiso   1.00
H488   H     0.77436   0.89552   0.80942   0.00000  Uiso   1.00
H489   H     0.86015   0.38949   0.72952   0.00000  Uiso   1.00
H490   H     0.14130   0.69545   0.91167   0.00000  Uiso   1.00
H491   H     0.85574   0.59586   0.98814   0.00000  Uiso   1.00
H492   H     0.78213   0.70557   0.98967   0.00000  Uiso   1.00
H493   H     0.82280   0.46558   0.95178   0.00000  Uiso   1.00
H494   H     0.95613   0.61068   0.03815   0.00000  Uiso   1.00
H495   H     0.71021   0.83618   0.96741   0.00000  Uiso   1.00
H496   H     0.79601   0.33014   0.88751   0.00000  Uiso   1.00
H497   H     0.07716   0.63611   0.06966   0.00000  Uiso   1.00
O498   O     0.69519   0.93926   0.88609   0.00000  Uiso   1.00
O499   O     0.80776   0.27536   0.78126   0.00000  Uiso   1.00
O500   O     0.17663   0.67678   0.02023   0.00000  Uiso   1.00
N501   N     0.76937   0.86651   0.84640   0.00000  Uiso   1.00
N502   N     0.84957   0.39340   0.77169   0.00000  Uiso   1.00
N503   N     0.11243   0.67943   0.94198   0.00000  Uiso   1.00
N504   N     0.73485   0.83458   0.93141   0.00000  Uiso   1.00
N505   N     0.81506   0.36147   0.85671   0.00000  Uiso   1.00
N506   N     0.07792   0.64750   0.02700   0.00000  Uiso   1.00
C507   C     0.91964   0.85283   0.68010   0.00000  Uiso   1.00
C508   C     0.85979   0.82227   0.66410   0.00000  Uiso   1.00
C509   C     0.83578   0.75603   0.68417   0.00000  Uiso   1.00
C510   C     0.78046   0.73791   0.66442   0.00000  Uiso   1.00
C511   C     0.69210   0.68341   0.64544   0.00000  Uiso   1.00
C512   C     0.90917   0.93072   0.70468   0.00000  Uiso   1.00
C513   C     0.92668   0.95567   0.75886   0.00000  Uiso   1.00
C514   C     0.91293   0.02885   0.77327   0.00000  Uiso   1.00
C515   C     0.90128   0.14274   0.81726   0.00000  Uiso   1.00
C516   C     0.95190   0.86416   0.62304   0.00000  Uiso   1.00
C517   C     0.00534   0.83316   0.60859   0.00000  Uiso   1.00
C518   C     0.02757   0.85032   0.55426   0.00000  Uiso   1.00
C519   C     0.08225   0.86086   0.47150   0.00000  Uiso   1.00
C520   C     0.86409   0.93844   0.60933   0.00000  Uiso   1.00
C521   C     0.82962   0.86877   0.62566   0.00000  Uiso   1.00
C522   C     0.77432   0.85075   0.60587   0.00000  Uiso   1.00
C523   C     0.75023   0.78449   0.62591   0.00000  Uiso   1.00
C524   C     0.87900   0.97722   0.66623   0.00000  Uiso   1.00
C525   C     0.86522   0.05039   0.68056   0.00000  Uiso   1.00
C526   C     0.88271   0.07544   0.73475   0.00000  Uiso   1.00
C527   C     0.92172   0.91066   0.58459   0.00000  Uiso   1.00
C528   C     0.94388   0.92788   0.53028   0.00000  Uiso   1.00
C529   C     0.99734   0.89691   0.51575   0.00000  Uiso   1.00
H530   H     0.94313   0.81663   0.71004   0.00000  Uiso   1.00
H531   H     0.85914   0.72006   0.71393   0.00000  Uiso   1.00
H532   H     0.95004   0.91967   0.78860   0.00000  Uiso   1.00
H533   H     0.02868   0.79718   0.63835   0.00000  Uiso   1.00
H534   H     0.75271   0.63352   0.70131   0.00000  Uiso   1.00
H535   H     0.94438   0.05442   0.85876   0.00000  Uiso   1.00
H536   H     0.11021   0.79612   0.54192   0.00000  Uiso   1.00
H537   H     0.84060   0.97464   0.57939   0.00000  Uiso   1.00
H538   H     0.75098   0.88674   0.57612   0.00000  Uiso   1.00
H539   H     0.84188   0.08636   0.65079   0.00000  Uiso   1.00
H540   H     0.92051   0.96386   0.50054   0.00000  Uiso   1.00
H541   H     0.66492   0.76881   0.58946   0.00000  Uiso   1.00
H542   H     0.85659   0.18971   0.74690   0.00000  Uiso   1.00
H543   H     0.02242   0.93141   0.43007   0.00000  Uiso   1.00
O544   O     0.65170   0.64050   0.64560   0.00000  Uiso   1.00
O545   O     0.90318   0.19271   0.85216   0.00000  Uiso   1.00
O546   O     0.12074   0.85382   0.43647   0.00000  Uiso   1.00
N547   N     0.74435   0.67741   0.67542   0.00000  Uiso   1.00
N548   N     0.92354   0.07093   0.82263   0.00000  Uiso   1.00
N549   N     0.07859   0.82946   0.52642   0.00000  Uiso   1.00
N550   N     0.69711   0.75021   0.61524   0.00000  Uiso   1.00
N551   N     0.87631   0.14373   0.76245   0.00000  Uiso   1.00
N552   N     0.03135   0.90225   0.46623   0.00000  Uiso   1.00
C553   C     0.41350   0.35070   0.65411   0.00000  Uiso   1.00
C554   C     0.36535   0.29863   0.63319   0.00000  Uiso   1.00
C555   C     0.34408   0.23708   0.66296   0.00000  Uiso   1.00
C556   C     0.29994   0.19659   0.63647   0.00000  Uiso   1.00
C557   C     0.22851   0.11266   0.61226   0.00000  Uiso   1.00
C558   C     0.38744   0.42902   0.65378   0.00000  Uiso   1.00
C559   C     0.38477   0.47710   0.70087   0.00000  Uiso   1.00
C560   C     0.35922   0.54637   0.69171   0.00000  Uiso   1.00
C561   C     0.32213   0.66490   0.69946   0.00000  Uiso   1.00
C562   C     0.45988   0.35018   0.60685   0.00000  Uiso   1.00
C563   C     0.51812   0.33198   0.61447   0.00000  Uiso   1.00
C564   C     0.55357   0.33490   0.56581   0.00000  Uiso   1.00
C565   C     0.62896   0.33101   0.50069   0.00000  Uiso   1.00
C566   C     0.37291   0.38826   0.55414   0.00000  Uiso   1.00
C567   C     0.34330   0.31904   0.57889   0.00000  Uiso   1.00
C568   C     0.29918   0.27863   0.55235   0.00000  Uiso   1.00
C569   C     0.27785   0.21702   0.58207   0.00000  Uiso   1.00
C570   C     0.36540   0.44942   0.59948   0.00000  Uiso   1.00
C571   C     0.33986   0.51865   0.59025   0.00000  Uiso   1.00
C572   C     0.33714   0.56681   0.63731   0.00000  Uiso   1.00
C573   C     0.43784   0.37058   0.55255   0.00000  Uiso   1.00
C574   C     0.47321   0.37353   0.50386   0.00000  Uiso   1.00
C575   C     0.53149   0.35533   0.51141   0.00000  Uiso   1.00
H576   H     0.43066   0.33482   0.69639   0.00000  Uiso   1.00
H577   H     0.36115   0.22131   0.70499   0.00000  Uiso   1.00
H578   H     0.40183   0.46130   0.74288   0.00000  Uiso   1.00
H579   H     0.53516   0.31620   0.65650   0.00000  Uiso   1.00
H580   H     0.27436   0.10448   0.69058   0.00000  Uiso   1.00
H581   H     0.36015   0.61051   0.77048   0.00000  Uiso   1.00
H582   H     0.64130   0.30455   0.58833   0.00000  Uiso   1.00
H583   H     0.35574   0.40414   0.51186   0.00000  Uiso   1.00
H584   H     0.28213   0.29443   0.51033   0.00000  Uiso   1.00
H585   H     0.32280   0.53442   0.54822   0.00000  Uiso   1.00
H586   H     0.45613   0.38932   0.46185   0.00000  Uiso   1.00
H587   H     0.21021   0.16382   0.53259   0.00000  Uiso   1.00
H588   H     0.29601   0.66986   0.61249   0.00000  Uiso   1.00
H589   H     0.57716   0.36389   0.43034   0.00000  Uiso   1.00
O590   O     0.19519   0.06074   0.61391   0.00000  Uiso   1.00
O591   O     0.30776   0.72464   0.71874   0.00000  Uiso   1.00
O592   O     0.67663   0.32322   0.47977   0.00000  Uiso   1.00
N593   N     0.26937   0.13349   0.65360   0.00000  Uiso   1.00
N594   N     0.34957   0.60660   0.72831   0.00000  Uiso   1.00
N595   N     0.61243   0.32057   0.55802   0.00000  Uiso   1.00
N596   N     0.23485   0.16542   0.56859   0.00000  Uiso   1.00
N597   N     0.31506   0.63853   0.64329   0.00000  Uiso   1.00
N598   N     0.57792   0.35250   0.47300   0.00000  Uiso   1.00
C599   C     0.41964   0.14717   0.81990   0.00000  Uiso   1.00
C600   C     0.35979   0.17773   0.83590   0.00000  Uiso   1.00
C601   C     0.33578   0.24397   0.81583   0.00000  Uiso   1.00
C602   C     0.28046   0.26209   0.83558   0.00000  Uiso   1.00
C603   C     0.19210   0.31659   0.85456   0.00000  Uiso   1.00
C604   C     0.40917   0.06928   0.79532   0.00000  Uiso   1.00
C605   C     0.42668   0.04433   0.74114   0.00000  Uiso   1.00
C606   C     0.41293   0.97115   0.72673   0.00000  Uiso   1.00
C607   C     0.40128   0.85726   0.68274   0.00000  Uiso   1.00
C608   C     0.45190   0.13584   0.87696   0.00000  Uiso   1.00
C609   C     0.50534   0.16684   0.89141   0.00000  Uiso   1.00
C610   C     0.52757   0.14968   0.94574   0.00000  Uiso   1.00
C611   C     0.58225   0.13914   0.02850   0.00000  Uiso   1.00
C612   C     0.36409   0.06156   0.89067   0.00000  Uiso   1.00
C613   C     0.32962   0.13123   0.87434   0.00000  Uiso   1.00
C614   C     0.27432   0.14925   0.89413   0.00000  Uiso   1.00
C615   C     0.25023   0.21551   0.87409   0.00000  Uiso   1.00
C616   C     0.37900   0.02278   0.83377   0.00000  Uiso   1.00
C617   C     0.36522   0.94961   0.81944   0.00000  Uiso   1.00
C618   C     0.38271   0.92456   0.76525   0.00000  Uiso   1.00
C619   C     0.42172   0.08934   0.91541   0.00000  Uiso   1.00
C620   C     0.44388   0.07212   0.96972   0.00000  Uiso   1.00
C621   C     0.49734   0.10309   0.98425   0.00000  Uiso   1.00
H622   H     0.44313   0.18337   0.78996   0.00000  Uiso   1.00
H623   H     0.35914   0.27994   0.78607   0.00000  Uiso   1.00
H624   H     0.45004   0.08033   0.71140   0.00000  Uiso   1.00
H625   H     0.52868   0.20282   0.86165   0.00000  Uiso   1.00
H626   H     0.25271   0.36648   0.79869   0.00000  Uiso   1.00
H627   H     0.44438   0.94558   0.64124   0.00000  Uiso   1.00
H628   H     0.61021   0.20388   0.95808   0.00000  Uiso   1.00
H629   H     0.34060   0.02536   0.92061   0.00000  Uiso   1.00
H630   H     0.25098   0.11326   0.92388   0.00000  Uiso   1.00
H631   H     0.34188   0.91364   0.84921   0.00000  Uiso   1.00
H632   H     0.42051   0.03614   0.99946   0.00000  Uiso   1.00
H633   H     0.16492   0.23119   0.91054   0.00000  Uiso   1.00
H634   H     0.35659   0.81029   0.75310   0.00000  Uiso   1.00
H635   H     0.52242   0.06859   0.06993   0.00000  Uiso   1.00
O636   O     0.15170   0.35950   0.85440   0.00000  Uiso   1.00
O637   O     0.40318   0.80729   0.64784   0.00000  Uiso   1.00
O638   O     0.62074   0.14618   0.06353   0.00000  Uiso   1.00
N639   N     0.24435   0.32259   0.82458   0.00000  Uiso   1.00
N640   N     0.42354   0.92907   0.67737   0.00000  Uiso   1.00
N641   N     0.57859   0.17054   0.97358   0.00000  Uiso   1.00
N642   N     0.19711   0.24979   0.88476   0.00000  Uiso   1.00
N643   N     0.37631   0.85627   0.73755   0.00000  Uiso   1.00
N644   N     0.53135   0.09775   0.03377   0.00000  Uiso   1.00
C645   C     0.08650   0.64930   0.65411   0.00000  Uiso   1.00
C646   C     0.13465   0.70137   0.63319   0.00000  Uiso   1.00
C647   C     0.15592   0.76292   0.66296   0.00000  Uiso   1.00
C648   C     0.20006   0.80341   0.63647   0.00000  Uiso   1.00
C649   C     0.27149   0.88734   0.61226   0.00000  Uiso   1.00
C650   C     0.11256   0.57098   0.65378   0.00000  Uiso   1.00
C651   C     0.11523   0.52290   0.70087   0.00000  Uiso   1.00
C652   C     0.14078   0.45363   0.69171   0.00000  Uiso   1.00
C653   C     0.17787   0.33510   0.69946   0.00000  Uiso   1.00
C654   C     0.04012   0.64982   0.60685   0.00000  Uiso   1.00
C655   C     0.98188   0.66802   0.61447   0.00000  Uiso   1.00
C656   C     0.94643   0.66510   0.56581   0.00000  Uiso   1.00
C657   C     0.87104   0.66899   0.50069   0.00000  Uiso   1.00
C658   C     0.12709   0.61174   0.55414   0.00000  Uiso   1.00
C659   C     0.15670   0.68096   0.57889   0.00000  Uiso   1.00
C660   C     0.20082   0.72137   0.55235   0.00000  Uiso   1.00
C661   C     0.22215   0.78298   0.58207   0.00000  Uiso   1.00
C662   C     0.13460   0.55058   0.59948   0.00000  Uiso   1.00
C663   C     0.16014   0.48135   0.59025   0.00000  Uiso   1.00
C664   C     0.16286   0.43319   0.63731   0.00000  Uiso   1.00
C665   C     0.06216   0.62942   0.55255   0.00000  Uiso   1.00
C666   C     0.02679   0.62647   0.50386   0.00000  Uiso   1.00
C667   C     0.96851   0.64467   0.51141   0.00000  Uiso   1.00
H668   H     0.06934   0.66518   0.69639   0.00000  Uiso   1.00
H669   H     0.13885   0.77869   0.70499   0.00000  Uiso   1.00
H670   H     0.09817   0.53870   0.74288   0.00000  Uiso   1.00
H671   H     0.96484   0.68380   0.65650   0.00000  Uiso   1.00
H672   H     0.22564   0.89552   0.69058   0.00000  Uiso   1.00
H673   H     0.13985   0.38949   0.77048   0.00000  Uiso   1.00
H674   H     0.85870   0.69545   0.58833   0.00000  Uiso   1.00
H675   H     0.14426   0.59586   0.51186   0.00000  Uiso   1.00
H676   H     0.21787   0.70557   0.51033   0.00000  Uiso   1.00
H677   H     0.17720   0.46558   0.54822   0.00000  Uiso   1.00
H678   H     0.04387   0.61068   0.46185   0.00000  Uiso   1.00
H679   H     0.28979   0.83618   0.53259   0.00000  Uiso   1.00
H680   H     0.20399   0.33014   0.61249   0.00000  Uiso   1.00
H681   H     0.92284   0.63611   0.43034   0.00000  Uiso   1.00
O682   O     0.30481   0.93926   0.61391   0.00000  Uiso   1.00
O683   O     0.19224   0.27536   0.71874   0.00000  Uiso   1.00
O684   O     0.82337   0.67678   0.47977   0.00000  Uiso   1.00
N685   N     0.23063   0.86651   0.65360   0.00000  Uiso   1.00
N686   N     0.15043   0.39340   0.72831   0.00000  Uiso   1.00
N687   N     0.88757   0.67943   0.55802   0.00000  Uiso   1.00
N688   N     0.26515   0.83458   0.56859   0.00000  Uiso   1.00
N689   N     0.18494   0.36147   0.64329   0.00000  Uiso   1.00
N690   N     0.92208   0.64750   0.47300   0.00000  Uiso   1.00
C691   C     0.08036   0.85283   0.81990   0.00000  Uiso   1.00
C692   C     0.14021   0.82227   0.83590   0.00000  Uiso   1.00
C693   C     0.16422   0.75603   0.81583   0.00000  Uiso   1.00
C694   C     0.21954   0.73791   0.83558   0.00000  Uiso   1.00
C695   C     0.30790   0.68341   0.85456   0.00000  Uiso   1.00
C696   C     0.09083   0.93072   0.79532   0.00000  Uiso   1.00
C697   C     0.07332   0.95567   0.74114   0.00000  Uiso   1.00
C698   C     0.08707   0.02885   0.72673   0.00000  Uiso   1.00
C699   C     0.09872   0.14274   0.68274   0.00000  Uiso   1.00
C700   C     0.04810   0.86416   0.87696   0.00000  Uiso   1.00
C701   C     0.99466   0.83316   0.89141   0.00000  Uiso   1.00
C702   C     0.97243   0.85032   0.94574   0.00000  Uiso   1.00
C703   C     0.91775   0.86086   0.02850   0.00000  Uiso   1.00
C704   C     0.13591   0.93844   0.89067   0.00000  Uiso   1.00
C705   C     0.17038   0.86877   0.87434   0.00000  Uiso   1.00
C706   C     0.22568   0.85075   0.89413   0.00000  Uiso   1.00
C707   C     0.24977   0.78449   0.87409   0.00000  Uiso   1.00
C708   C     0.12100   0.97722   0.83377   0.00000  Uiso   1.00
C709   C     0.13478   0.05039   0.81944   0.00000  Uiso   1.00
C710   C     0.11729   0.07544   0.76525   0.00000  Uiso   1.00
C711   C     0.07828   0.91066   0.91541   0.00000  Uiso   1.00
C712   C     0.05612   0.92788   0.96972   0.00000  Uiso   1.00
C713   C     0.00266   0.89691   0.98425   0.00000  Uiso   1.00
H714   H     0.05687   0.81663   0.78996   0.00000  Uiso   1.00
H715   H     0.14086   0.72006   0.78607   0.00000  Uiso   1.00
H716   H     0.04996   0.91967   0.71140   0.00000  Uiso   1.00
H717   H     0.97132   0.79718   0.86165   0.00000  Uiso   1.00
H718   H     0.24729   0.63352   0.79869   0.00000  Uiso   1.00
H719   H     0.05562   0.05442   0.64124   0.00000  Uiso   1.00
H720   H     0.88979   0.79612   0.95808   0.00000  Uiso   1.00
H721   H     0.15940   0.97464   0.92061   0.00000  Uiso   1.00
H722   H     0.24902   0.88674   0.92388   0.00000  Uiso   1.00
H723   H     0.15812   0.08636   0.84921   0.00000  Uiso   1.00
H724   H     0.07949   0.96386   0.99946   0.00000  Uiso   1.00
H725   H     0.33508   0.76881   0.91054   0.00000  Uiso   1.00
H726   H     0.14341   0.18971   0.75310   0.00000  Uiso   1.00
H727   H     0.97758   0.93141   0.06993   0.00000  Uiso   1.00
O728   O     0.34830   0.64050   0.85440   0.00000  Uiso   1.00
O729   O     0.09682   0.19271   0.64784   0.00000  Uiso   1.00
O730   O     0.87926   0.85382   0.06353   0.00000  Uiso   1.00
N731   N     0.25565   0.67741   0.82458   0.00000  Uiso   1.00
N732   N     0.07646   0.07093   0.67737   0.00000  Uiso   1.00
N733   N     0.92141   0.82946   0.97358   0.00000  Uiso   1.00
N734   N     0.30289   0.75021   0.88476   0.00000  Uiso   1.00
N735   N     0.12369   0.14373   0.73755   0.00000  Uiso   1.00
N736   N     0.96865   0.90225   0.03377   0.00000  Uiso   1.00
