data_job_05802
_audit_creation_date              2018-12-19
_audit_creation_method            'Materials Studio'
_symmetry_space_group_name_H-M    'P1'
_symmetry_Int_Tables_number       1
_symmetry_cell_setting            triclinic
loop_
_symmetry_equiv_pos_as_xyz
  x,y,z
_cell_length_a                    30.2708
_cell_length_b                    30.2708
_cell_length_c                    9.8852
_cell_angle_alpha                 90.0000
_cell_angle_beta                  90.0000
_cell_angle_gamma                 90.0000
loop_
_atom_site_label
_atom_site_type_symbol
_atom_site_fract_x
_atom_site_fract_y
_atom_site_fract_z
_atom_site_U_iso_or_equiv
_atom_site_adp_type
_atom_site_occupancy
C1     C     0.46461   0.20591   0.33829   0.00000  Uiso   1.00
C2     C     0.48565   0.16246   0.29414   0.00000  Uiso   1.00
C3     C     0.52779   0.14816   0.32787   0.00000  Uiso   1.00
C4     C     0.54091   0.10742   0.27740   0.00000  Uiso   1.00
C5     C     0.57784   0.04384   0.22116   0.00000  Uiso   1.00
C6     C     0.45111   0.22956   0.20852   0.00000  Uiso   1.00
C7     C     0.46421   0.27169   0.17027   0.00000  Uiso   1.00
C8     C     0.44826   0.28743   0.04773   0.00000  Uiso   1.00
C9     C     0.43155   0.32805   0.85861   0.00000  Uiso   1.00
C10    C     0.42171   0.19354   0.40967   0.00000  Uiso   1.00
C11    C     0.41007   0.20539   0.54054   0.00000  Uiso   1.00
C12    C     0.36936   0.19082   0.58735   0.00000  Uiso   1.00
C13    C     0.30699   0.17550   0.71054   0.00000  Uiso   1.00
C14    C     0.41298   0.15898   0.18869   0.00000  Uiso   1.00
C15    C     0.45760   0.13697   0.21288   0.00000  Uiso   1.00
C16    C     0.47066   0.09624   0.16236   0.00000  Uiso   1.00
C17    C     0.51281   0.08188   0.19601   0.00000  Uiso   1.00
C18    C     0.42307   0.20408   0.12727   0.00000  Uiso   1.00
C19    C     0.40708   0.21977   0.00476   0.00000  Uiso   1.00
C20    C     0.42016   0.26190   0.96633   0.00000  Uiso   1.00
C21    C     0.39366   0.16805   0.32842   0.00000  Uiso   1.00
C22    C     0.35295   0.15347   0.37503   0.00000  Uiso   1.00
C23    C     0.34126   0.16528   0.50595   0.00000  Uiso   1.00
H24    H     0.48645   0.22575   0.40154   0.00000  Uiso   1.00
H25    H     0.54948   0.16790   0.39074   0.00000  Uiso   1.00
H26    H     0.48591   0.29140   0.23317   0.00000  Uiso   1.00
H27    H     0.43179   0.22511   0.60338   0.00000  Uiso   1.00
H28    H     0.60701   0.09252   0.34289   0.00000  Uiso   1.00
H29    H     0.47295   0.35295   0.01068   0.00000  Uiso   1.00
H30    H     0.35882   0.21316   0.79134   0.00000  Uiso   1.00
H31    H     0.39114   0.13914   0.12543   0.00000  Uiso   1.00
H32    H     0.44895   0.07652   0.09948   0.00000  Uiso   1.00
H33    H     0.38538   0.20004   0.94192   0.00000  Uiso   1.00
H34    H     0.33125   0.13374   0.31213   0.00000  Uiso   1.00
H35    H     0.52541   0.01836   0.10649   0.00000  Uiso   1.00
H36    H     0.39136   0.27879   0.77428   0.00000  Uiso   1.00
H37    H     0.27722   0.13900   0.55494   0.00000  Uiso   1.00
O38    O     0.60596   0.01582   0.21257   0.00000  Uiso   1.00
O39    O     0.43008   0.35750   0.77674   0.00000  Uiso   1.00
O40    O     0.28034   0.17409   0.80094   0.00000  Uiso   1.00
N41    N     0.57987   0.08365   0.29084   0.00000  Uiso   1.00
N42    N     0.45454   0.32714   0.98023   0.00000  Uiso   1.00
N43    N     0.34783   0.19646   0.71007   0.00000  Uiso   1.00
N44    N     0.53596   0.04375   0.16364   0.00000  Uiso   1.00
N45    N     0.41063   0.28723   0.85303   0.00000  Uiso   1.00
N46    N     0.30392   0.15655   0.58287   0.00000  Uiso   1.00
C47    C     0.96461   0.70591   0.83829   0.00000  Uiso   1.00
C48    C     0.98565   0.66246   0.79414   0.00000  Uiso   1.00
C49    C     0.02779   0.64816   0.82787   0.00000  Uiso   1.00
C50    C     0.04091   0.60742   0.77740   0.00000  Uiso   1.00
C51    C     0.07784   0.54384   0.72116   0.00000  Uiso   1.00
C52    C     0.95111   0.72956   0.70852   0.00000  Uiso   1.00
C53    C     0.96421   0.77169   0.67027   0.00000  Uiso   1.00
C54    C     0.94826   0.78743   0.54773   0.00000  Uiso   1.00
C55    C     0.93155   0.82805   0.35861   0.00000  Uiso   1.00
C56    C     0.92171   0.69354   0.90967   0.00000  Uiso   1.00
C57    C     0.91007   0.70539   0.04054   0.00000  Uiso   1.00
C58    C     0.86936   0.69082   0.08735   0.00000  Uiso   1.00
C59    C     0.80699   0.67550   0.21054   0.00000  Uiso   1.00
C60    C     0.91298   0.65898   0.68869   0.00000  Uiso   1.00
C61    C     0.95760   0.63697   0.71288   0.00000  Uiso   1.00
C62    C     0.97066   0.59624   0.66236   0.00000  Uiso   1.00
C63    C     0.01281   0.58188   0.69601   0.00000  Uiso   1.00
C64    C     0.92307   0.70408   0.62727   0.00000  Uiso   1.00
C65    C     0.90708   0.71977   0.50476   0.00000  Uiso   1.00
C66    C     0.92016   0.76190   0.46633   0.00000  Uiso   1.00
C67    C     0.89366   0.66805   0.82842   0.00000  Uiso   1.00
C68    C     0.85295   0.65347   0.87503   0.00000  Uiso   1.00
C69    C     0.84126   0.66528   0.00595   0.00000  Uiso   1.00
H70    H     0.98645   0.72575   0.90154   0.00000  Uiso   1.00
H71    H     0.04948   0.66790   0.89074   0.00000  Uiso   1.00
H72    H     0.98591   0.79140   0.73317   0.00000  Uiso   1.00
H73    H     0.93179   0.72511   0.10338   0.00000  Uiso   1.00
H74    H     0.10701   0.59252   0.84289   0.00000  Uiso   1.00
H75    H     0.97295   0.85295   0.51068   0.00000  Uiso   1.00
H76    H     0.85882   0.71316   0.29134   0.00000  Uiso   1.00
H77    H     0.89114   0.63914   0.62543   0.00000  Uiso   1.00
H78    H     0.94895   0.57652   0.59948   0.00000  Uiso   1.00
H79    H     0.88538   0.70004   0.44192   0.00000  Uiso   1.00
H80    H     0.83125   0.63374   0.81213   0.00000  Uiso   1.00
H81    H     0.02541   0.51836   0.60649   0.00000  Uiso   1.00
H82    H     0.89136   0.77879   0.27428   0.00000  Uiso   1.00
H83    H     0.77722   0.63900   0.05494   0.00000  Uiso   1.00
O84    O     0.10596   0.51582   0.71257   0.00000  Uiso   1.00
O85    O     0.93008   0.85750   0.27674   0.00000  Uiso   1.00
O86    O     0.78034   0.67409   0.30094   0.00000  Uiso   1.00
N87    N     0.07987   0.58365   0.79084   0.00000  Uiso   1.00
N88    N     0.95454   0.82714   0.48023   0.00000  Uiso   1.00
N89    N     0.84783   0.69646   0.21007   0.00000  Uiso   1.00
N90    N     0.03596   0.54375   0.66364   0.00000  Uiso   1.00
N91    N     0.91063   0.78723   0.35303   0.00000  Uiso   1.00
N92    N     0.80392   0.65655   0.08287   0.00000  Uiso   1.00
C93    C     0.03539   0.29409   0.83829   0.00000  Uiso   1.00
C94    C     0.01435   0.33754   0.79414   0.00000  Uiso   1.00
C95    C     0.97221   0.35184   0.82787   0.00000  Uiso   1.00
C96    C     0.95909   0.39258   0.77740   0.00000  Uiso   1.00
C97    C     0.92216   0.45616   0.72116   0.00000  Uiso   1.00
C98    C     0.04889   0.27044   0.70852   0.00000  Uiso   1.00
C99    C     0.03579   0.22831   0.67027   0.00000  Uiso   1.00
C100   C     0.05174   0.21257   0.54773   0.00000  Uiso   1.00
C101   C     0.06845   0.17195   0.35861   0.00000  Uiso   1.00
C102   C     0.07829   0.30646   0.90967   0.00000  Uiso   1.00
C103   C     0.08993   0.29461   0.04054   0.00000  Uiso   1.00
C104   C     0.13064   0.30918   0.08735   0.00000  Uiso   1.00
C105   C     0.19301   0.32450   0.21054   0.00000  Uiso   1.00
C106   C     0.08702   0.34102   0.68869   0.00000  Uiso   1.00
C107   C     0.04240   0.36303   0.71288   0.00000  Uiso   1.00
C108   C     0.02934   0.40376   0.66236   0.00000  Uiso   1.00
C109   C     0.98719   0.41812   0.69601   0.00000  Uiso   1.00
C110   C     0.07693   0.29592   0.62727   0.00000  Uiso   1.00
C111   C     0.09292   0.28023   0.50476   0.00000  Uiso   1.00
C112   C     0.07984   0.23810   0.46633   0.00000  Uiso   1.00
C113   C     0.10634   0.33195   0.82842   0.00000  Uiso   1.00
C114   C     0.14705   0.34653   0.87503   0.00000  Uiso   1.00
C115   C     0.15874   0.33472   0.00595   0.00000  Uiso   1.00
H116   H     0.01355   0.27425   0.90154   0.00000  Uiso   1.00
H117   H     0.95052   0.33210   0.89074   0.00000  Uiso   1.00
H118   H     0.01409   0.20860   0.73317   0.00000  Uiso   1.00
H119   H     0.06821   0.27489   0.10338   0.00000  Uiso   1.00
H120   H     0.89299   0.40748   0.84289   0.00000  Uiso   1.00
H121   H     0.02705   0.14705   0.51068   0.00000  Uiso   1.00
H122   H     0.14118   0.28684   0.29134   0.00000  Uiso   1.00
H123   H     0.10886   0.36086   0.62543   0.00000  Uiso   1.00
H124   H     0.05105   0.42348   0.59948   0.00000  Uiso   1.00
H125   H     0.11462   0.29996   0.44192   0.00000  Uiso   1.00
H126   H     0.16875   0.36626   0.81213   0.00000  Uiso   1.00
H127   H     0.97459   0.48164   0.60649   0.00000  Uiso   1.00
H128   H     0.10864   0.22121   0.27428   0.00000  Uiso   1.00
H129   H     0.22278   0.36100   0.05494   0.00000  Uiso   1.00
O130   O     0.89404   0.48418   0.71257   0.00000  Uiso   1.00
O131   O     0.06992   0.14250   0.27674   0.00000  Uiso   1.00
O132   O     0.21966   0.32591   0.30094   0.00000  Uiso   1.00
N133   N     0.92013   0.41635   0.79084   0.00000  Uiso   1.00
N134   N     0.04546   0.17286   0.48023   0.00000  Uiso   1.00
N135   N     0.15217   0.30354   0.21007   0.00000  Uiso   1.00
N136   N     0.96404   0.45625   0.66364   0.00000  Uiso   1.00
N137   N     0.08937   0.21277   0.35303   0.00000  Uiso   1.00
N138   N     0.19608   0.34345   0.08287   0.00000  Uiso   1.00
C139   C     0.53539   0.79409   0.33829   0.00000  Uiso   1.00
C140   C     0.51435   0.83754   0.29414   0.00000  Uiso   1.00
C141   C     0.47221   0.85184   0.32787   0.00000  Uiso   1.00
C142   C     0.45909   0.89258   0.27740   0.00000  Uiso   1.00
C143   C     0.42216   0.95616   0.22116   0.00000  Uiso   1.00
C144   C     0.54889   0.77044   0.20852   0.00000  Uiso   1.00
C145   C     0.53579   0.72831   0.17027   0.00000  Uiso   1.00
C146   C     0.55174   0.71257   0.04773   0.00000  Uiso   1.00
C147   C     0.56845   0.67195   0.85861   0.00000  Uiso   1.00
C148   C     0.57829   0.80646   0.40967   0.00000  Uiso   1.00
C149   C     0.58993   0.79461   0.54054   0.00000  Uiso   1.00
C150   C     0.63064   0.80918   0.58735   0.00000  Uiso   1.00
C151   C     0.69301   0.82450   0.71054   0.00000  Uiso   1.00
C152   C     0.58702   0.84102   0.18869   0.00000  Uiso   1.00
C153   C     0.54240   0.86303   0.21288   0.00000  Uiso   1.00
C154   C     0.52934   0.90376   0.16236   0.00000  Uiso   1.00
C155   C     0.48719   0.91812   0.19601   0.00000  Uiso   1.00
C156   C     0.57693   0.79592   0.12727   0.00000  Uiso   1.00
C157   C     0.59292   0.78023   0.00476   0.00000  Uiso   1.00
C158   C     0.57984   0.73810   0.96633   0.00000  Uiso   1.00
C159   C     0.60634   0.83195   0.32842   0.00000  Uiso   1.00
C160   C     0.64705   0.84653   0.37503   0.00000  Uiso   1.00
C161   C     0.65874   0.83472   0.50595   0.00000  Uiso   1.00
H162   H     0.51355   0.77425   0.40154   0.00000  Uiso   1.00
H163   H     0.45052   0.83210   0.39074   0.00000  Uiso   1.00
H164   H     0.51409   0.70860   0.23317   0.00000  Uiso   1.00
H165   H     0.56821   0.77489   0.60338   0.00000  Uiso   1.00
H166   H     0.39299   0.90748   0.34289   0.00000  Uiso   1.00
H167   H     0.52705   0.64705   0.01068   0.00000  Uiso   1.00
H168   H     0.64118   0.78684   0.79134   0.00000  Uiso   1.00
H169   H     0.60886   0.86086   0.12543   0.00000  Uiso   1.00
H170   H     0.55105   0.92348   0.09948   0.00000  Uiso   1.00
H171   H     0.61462   0.79996   0.94192   0.00000  Uiso   1.00
H172   H     0.66875   0.86626   0.31213   0.00000  Uiso   1.00
H173   H     0.47459   0.98164   0.10649   0.00000  Uiso   1.00
H174   H     0.60864   0.72121   0.77428   0.00000  Uiso   1.00
H175   H     0.72278   0.86100   0.55494   0.00000  Uiso   1.00
O176   O     0.39404   0.98418   0.21257   0.00000  Uiso   1.00
O177   O     0.56992   0.64250   0.77674   0.00000  Uiso   1.00
O178   O     0.71966   0.82591   0.80094   0.00000  Uiso   1.00
N179   N     0.42013   0.91635   0.29084   0.00000  Uiso   1.00
N180   N     0.54546   0.67286   0.98023   0.00000  Uiso   1.00
N181   N     0.65217   0.80354   0.71007   0.00000  Uiso   1.00
N182   N     0.46404   0.95625   0.16364   0.00000  Uiso   1.00
N183   N     0.58937   0.71277   0.85303   0.00000  Uiso   1.00
N184   N     0.69608   0.84345   0.58287   0.00000  Uiso   1.00
C185   C     0.79409   0.96461   0.58829   0.00000  Uiso   1.00
C186   C     0.83754   0.98565   0.54414   0.00000  Uiso   1.00
C187   C     0.85184   0.02779   0.57787   0.00000  Uiso   1.00
C188   C     0.89258   0.04091   0.52740   0.00000  Uiso   1.00
C189   C     0.95616   0.07784   0.47116   0.00000  Uiso   1.00
C190   C     0.77044   0.95111   0.45852   0.00000  Uiso   1.00
C191   C     0.72831   0.96421   0.42027   0.00000  Uiso   1.00
C192   C     0.71257   0.94826   0.29773   0.00000  Uiso   1.00
C193   C     0.67195   0.93155   0.10861   0.00000  Uiso   1.00
C194   C     0.80646   0.92171   0.65967   0.00000  Uiso   1.00
C195   C     0.79461   0.91007   0.79054   0.00000  Uiso   1.00
C196   C     0.80918   0.86936   0.83735   0.00000  Uiso   1.00
C197   C     0.82450   0.80699   0.96054   0.00000  Uiso   1.00
C198   C     0.84102   0.91298   0.43869   0.00000  Uiso   1.00
C199   C     0.86303   0.95760   0.46288   0.00000  Uiso   1.00
C200   C     0.90376   0.97066   0.41236   0.00000  Uiso   1.00
C201   C     0.91812   0.01281   0.44601   0.00000  Uiso   1.00
C202   C     0.79592   0.92307   0.37727   0.00000  Uiso   1.00
C203   C     0.78023   0.90708   0.25476   0.00000  Uiso   1.00
C204   C     0.73810   0.92016   0.21633   0.00000  Uiso   1.00
C205   C     0.83195   0.89366   0.57842   0.00000  Uiso   1.00
C206   C     0.84653   0.85295   0.62503   0.00000  Uiso   1.00
C207   C     0.83472   0.84126   0.75595   0.00000  Uiso   1.00
H208   H     0.77425   0.98645   0.65154   0.00000  Uiso   1.00
H209   H     0.83210   0.04948   0.64074   0.00000  Uiso   1.00
H210   H     0.70860   0.98591   0.48317   0.00000  Uiso   1.00
H211   H     0.77489   0.93179   0.85338   0.00000  Uiso   1.00
H212   H     0.90748   0.10701   0.59289   0.00000  Uiso   1.00
H213   H     0.64705   0.97295   0.26068   0.00000  Uiso   1.00
H214   H     0.78684   0.85882   0.04134   0.00000  Uiso   1.00
H215   H     0.86086   0.89114   0.37543   0.00000  Uiso   1.00
H216   H     0.92348   0.94895   0.34948   0.00000  Uiso   1.00
H217   H     0.79996   0.88538   0.19192   0.00000  Uiso   1.00
H218   H     0.86626   0.83125   0.56213   0.00000  Uiso   1.00
H219   H     0.98164   0.02541   0.35649   0.00000  Uiso   1.00
H220   H     0.72121   0.89136   0.02428   0.00000  Uiso   1.00
H221   H     0.86100   0.77722   0.80494   0.00000  Uiso   1.00
O222   O     0.98418   0.10596   0.46257   0.00000  Uiso   1.00
O223   O     0.64250   0.93008   0.02674   0.00000  Uiso   1.00
O224   O     0.82591   0.78034   0.05094   0.00000  Uiso   1.00
N225   N     0.91635   0.07987   0.54084   0.00000  Uiso   1.00
N226   N     0.67286   0.95454   0.23023   0.00000  Uiso   1.00
N227   N     0.80354   0.84783   0.96007   0.00000  Uiso   1.00
N228   N     0.95625   0.03596   0.41364   0.00000  Uiso   1.00
N229   N     0.71277   0.91063   0.10303   0.00000  Uiso   1.00
N230   N     0.84345   0.80392   0.83287   0.00000  Uiso   1.00
C231   C     0.29409   0.46461   0.08829   0.00000  Uiso   1.00
C232   C     0.33754   0.48565   0.04414   0.00000  Uiso   1.00
C233   C     0.35184   0.52779   0.07787   0.00000  Uiso   1.00
C234   C     0.39258   0.54091   0.02740   0.00000  Uiso   1.00
C235   C     0.45616   0.57784   0.97116   0.00000  Uiso   1.00
C236   C     0.27044   0.45111   0.95852   0.00000  Uiso   1.00
C237   C     0.22831   0.46421   0.92027   0.00000  Uiso   1.00
C238   C     0.21257   0.44826   0.79773   0.00000  Uiso   1.00
C239   C     0.17195   0.43155   0.60861   0.00000  Uiso   1.00
C240   C     0.30646   0.42171   0.15967   0.00000  Uiso   1.00
C241   C     0.29461   0.41007   0.29054   0.00000  Uiso   1.00
C242   C     0.30918   0.36936   0.33735   0.00000  Uiso   1.00
C243   C     0.32450   0.30699   0.46054   0.00000  Uiso   1.00
C244   C     0.34102   0.41298   0.93869   0.00000  Uiso   1.00
C245   C     0.36303   0.45760   0.96288   0.00000  Uiso   1.00
C246   C     0.40376   0.47066   0.91236   0.00000  Uiso   1.00
C247   C     0.41812   0.51281   0.94601   0.00000  Uiso   1.00
C248   C     0.29592   0.42307   0.87727   0.00000  Uiso   1.00
C249   C     0.28023   0.40708   0.75476   0.00000  Uiso   1.00
C250   C     0.23810   0.42016   0.71633   0.00000  Uiso   1.00
C251   C     0.33195   0.39366   0.07842   0.00000  Uiso   1.00
C252   C     0.34653   0.35295   0.12503   0.00000  Uiso   1.00
C253   C     0.33472   0.34126   0.25595   0.00000  Uiso   1.00
H254   H     0.27425   0.48645   0.15154   0.00000  Uiso   1.00
H255   H     0.33210   0.54948   0.14074   0.00000  Uiso   1.00
H256   H     0.20860   0.48591   0.98317   0.00000  Uiso   1.00
H257   H     0.27489   0.43179   0.35338   0.00000  Uiso   1.00
H258   H     0.40748   0.60701   0.09289   0.00000  Uiso   1.00
H259   H     0.14705   0.47295   0.76068   0.00000  Uiso   1.00
H260   H     0.28684   0.35882   0.54134   0.00000  Uiso   1.00
H261   H     0.36086   0.39114   0.87543   0.00000  Uiso   1.00
H262   H     0.42348   0.44895   0.84948   0.00000  Uiso   1.00
H263   H     0.29996   0.38538   0.69192   0.00000  Uiso   1.00
H264   H     0.36626   0.33125   0.06213   0.00000  Uiso   1.00
H265   H     0.48164   0.52541   0.85649   0.00000  Uiso   1.00
H266   H     0.22121   0.39136   0.52428   0.00000  Uiso   1.00
H267   H     0.36100   0.27722   0.30494   0.00000  Uiso   1.00
O268   O     0.48418   0.60596   0.96257   0.00000  Uiso   1.00
O269   O     0.14250   0.43008   0.52674   0.00000  Uiso   1.00
O270   O     0.32591   0.28034   0.55094   0.00000  Uiso   1.00
N271   N     0.41635   0.57987   0.04084   0.00000  Uiso   1.00
N272   N     0.17286   0.45454   0.73023   0.00000  Uiso   1.00
N273   N     0.30354   0.34783   0.46007   0.00000  Uiso   1.00
N274   N     0.45625   0.53596   0.91364   0.00000  Uiso   1.00
N275   N     0.21277   0.41063   0.60303   0.00000  Uiso   1.00
N276   N     0.34345   0.30392   0.33287   0.00000  Uiso   1.00
C277   C     0.70591   0.53539   0.08829   0.00000  Uiso   1.00
C278   C     0.66246   0.51435   0.04414   0.00000  Uiso   1.00
C279   C     0.64816   0.47221   0.07787   0.00000  Uiso   1.00
C280   C     0.60742   0.45909   0.02740   0.00000  Uiso   1.00
C281   C     0.54384   0.42216   0.97116   0.00000  Uiso   1.00
C282   C     0.72956   0.54889   0.95852   0.00000  Uiso   1.00
C283   C     0.77169   0.53579   0.92027   0.00000  Uiso   1.00
C284   C     0.78743   0.55174   0.79773   0.00000  Uiso   1.00
C285   C     0.82805   0.56845   0.60861   0.00000  Uiso   1.00
C286   C     0.69354   0.57829   0.15967   0.00000  Uiso   1.00
C287   C     0.70539   0.58993   0.29054   0.00000  Uiso   1.00
C288   C     0.69082   0.63064   0.33735   0.00000  Uiso   1.00
C289   C     0.67550   0.69301   0.46054   0.00000  Uiso   1.00
C290   C     0.65898   0.58702   0.93869   0.00000  Uiso   1.00
C291   C     0.63697   0.54240   0.96288   0.00000  Uiso   1.00
C292   C     0.59624   0.52934   0.91236   0.00000  Uiso   1.00
C293   C     0.58188   0.48719   0.94601   0.00000  Uiso   1.00
C294   C     0.70408   0.57693   0.87727   0.00000  Uiso   1.00
C295   C     0.71977   0.59292   0.75476   0.00000  Uiso   1.00
C296   C     0.76190   0.57984   0.71633   0.00000  Uiso   1.00
C297   C     0.66805   0.60634   0.07842   0.00000  Uiso   1.00
C298   C     0.65347   0.64705   0.12503   0.00000  Uiso   1.00
C299   C     0.66528   0.65874   0.25595   0.00000  Uiso   1.00
H300   H     0.72575   0.51355   0.15154   0.00000  Uiso   1.00
H301   H     0.66790   0.45052   0.14074   0.00000  Uiso   1.00
H302   H     0.79140   0.51409   0.98317   0.00000  Uiso   1.00
H303   H     0.72511   0.56821   0.35338   0.00000  Uiso   1.00
H304   H     0.59252   0.39299   0.09289   0.00000  Uiso   1.00
H305   H     0.85295   0.52705   0.76068   0.00000  Uiso   1.00
H306   H     0.71316   0.64118   0.54134   0.00000  Uiso   1.00
H307   H     0.63914   0.60886   0.87543   0.00000  Uiso   1.00
H308   H     0.57652   0.55105   0.84948   0.00000  Uiso   1.00
H309   H     0.70004   0.61462   0.69192   0.00000  Uiso   1.00
H310   H     0.63374   0.66875   0.06213   0.00000  Uiso   1.00
H311   H     0.51836   0.47459   0.85649   0.00000  Uiso   1.00
H312   H     0.77879   0.60864   0.52428   0.00000  Uiso   1.00
H313   H     0.63900   0.72278   0.30494   0.00000  Uiso   1.00
O314   O     0.51582   0.39404   0.96257   0.00000  Uiso   1.00
O315   O     0.85750   0.56992   0.52674   0.00000  Uiso   1.00
O316   O     0.67409   0.71966   0.55094   0.00000  Uiso   1.00
N317   N     0.58365   0.42013   0.04084   0.00000  Uiso   1.00
N318   N     0.82714   0.54546   0.73023   0.00000  Uiso   1.00
N319   N     0.69646   0.65217   0.46007   0.00000  Uiso   1.00
N320   N     0.54375   0.46404   0.91364   0.00000  Uiso   1.00
N321   N     0.78723   0.58937   0.60303   0.00000  Uiso   1.00
N322   N     0.65655   0.69608   0.33287   0.00000  Uiso   1.00
C323   C     0.20591   0.03539   0.58829   0.00000  Uiso   1.00
C324   C     0.16246   0.01435   0.54414   0.00000  Uiso   1.00
C325   C     0.14816   0.97221   0.57787   0.00000  Uiso   1.00
C326   C     0.10742   0.95909   0.52740   0.00000  Uiso   1.00
C327   C     0.04384   0.92216   0.47116   0.00000  Uiso   1.00
C328   C     0.22956   0.04889   0.45852   0.00000  Uiso   1.00
C329   C     0.27169   0.03579   0.42027   0.00000  Uiso   1.00
C330   C     0.28743   0.05174   0.29773   0.00000  Uiso   1.00
C331   C     0.32805   0.06845   0.10861   0.00000  Uiso   1.00
C332   C     0.19354   0.07829   0.65967   0.00000  Uiso   1.00
C333   C     0.20539   0.08993   0.79054   0.00000  Uiso   1.00
C334   C     0.19082   0.13064   0.83735   0.00000  Uiso   1.00
C335   C     0.17550   0.19301   0.96054   0.00000  Uiso   1.00
C336   C     0.15898   0.08702   0.43869   0.00000  Uiso   1.00
C337   C     0.13697   0.04240   0.46288   0.00000  Uiso   1.00
C338   C     0.09624   0.02934   0.41236   0.00000  Uiso   1.00
C339   C     0.08188   0.98719   0.44601   0.00000  Uiso   1.00
C340   C     0.20408   0.07693   0.37727   0.00000  Uiso   1.00
C341   C     0.21977   0.09292   0.25476   0.00000  Uiso   1.00
C342   C     0.26190   0.07984   0.21633   0.00000  Uiso   1.00
C343   C     0.16805   0.10634   0.57842   0.00000  Uiso   1.00
C344   C     0.15347   0.14705   0.62503   0.00000  Uiso   1.00
C345   C     0.16528   0.15874   0.75595   0.00000  Uiso   1.00
H346   H     0.22575   0.01355   0.65154   0.00000  Uiso   1.00
H347   H     0.16790   0.95052   0.64074   0.00000  Uiso   1.00
H348   H     0.29140   0.01409   0.48317   0.00000  Uiso   1.00
H349   H     0.22511   0.06821   0.85338   0.00000  Uiso   1.00
H350   H     0.09252   0.89299   0.59289   0.00000  Uiso   1.00
H351   H     0.35295   0.02705   0.26068   0.00000  Uiso   1.00
H352   H     0.21316   0.14118   0.04134   0.00000  Uiso   1.00
H353   H     0.13914   0.10886   0.37543   0.00000  Uiso   1.00
H354   H     0.07652   0.05105   0.34948   0.00000  Uiso   1.00
H355   H     0.20004   0.11462   0.19192   0.00000  Uiso   1.00
H356   H     0.13374   0.16875   0.56213   0.00000  Uiso   1.00
H357   H     0.01836   0.97459   0.35649   0.00000  Uiso   1.00
H358   H     0.27879   0.10864   0.02428   0.00000  Uiso   1.00
H359   H     0.13900   0.22278   0.80494   0.00000  Uiso   1.00
O360   O     0.01582   0.89404   0.46257   0.00000  Uiso   1.00
O361   O     0.35750   0.06992   0.02674   0.00000  Uiso   1.00
O362   O     0.17409   0.21966   0.05094   0.00000  Uiso   1.00
N363   N     0.08365   0.92013   0.54084   0.00000  Uiso   1.00
N364   N     0.32714   0.04546   0.23023   0.00000  Uiso   1.00
N365   N     0.19646   0.15217   0.96007   0.00000  Uiso   1.00
N366   N     0.04375   0.96404   0.41364   0.00000  Uiso   1.00
N367   N     0.28723   0.08937   0.10303   0.00000  Uiso   1.00
N368   N     0.15655   0.19608   0.83287   0.00000  Uiso   1.00
C369   C     0.46461   0.79409   0.83829   0.00000  Uiso   1.00
C370   C     0.48565   0.83754   0.79414   0.00000  Uiso   1.00
C371   C     0.52779   0.85184   0.82787   0.00000  Uiso   1.00
C372   C     0.54091   0.89258   0.77740   0.00000  Uiso   1.00
C373   C     0.57784   0.95616   0.72116   0.00000  Uiso   1.00
C374   C     0.45111   0.77044   0.70852   0.00000  Uiso   1.00
C375   C     0.46421   0.72831   0.67027   0.00000  Uiso   1.00
C376   C     0.44826   0.71257   0.54773   0.00000  Uiso   1.00
C377   C     0.43155   0.67195   0.35861   0.00000  Uiso   1.00
C378   C     0.42171   0.80646   0.90967   0.00000  Uiso   1.00
C379   C     0.41007   0.79461   0.04054   0.00000  Uiso   1.00
C380   C     0.36936   0.80918   0.08735   0.00000  Uiso   1.00
C381   C     0.30699   0.82450   0.21054   0.00000  Uiso   1.00
C382   C     0.41298   0.84102   0.68869   0.00000  Uiso   1.00
C383   C     0.45760   0.86303   0.71288   0.00000  Uiso   1.00
C384   C     0.47066   0.90376   0.66236   0.00000  Uiso   1.00
C385   C     0.51281   0.91812   0.69601   0.00000  Uiso   1.00
C386   C     0.42307   0.79592   0.62727   0.00000  Uiso   1.00
C387   C     0.40708   0.78023   0.50476   0.00000  Uiso   1.00
C388   C     0.42016   0.73810   0.46633   0.00000  Uiso   1.00
C389   C     0.39366   0.83195   0.82842   0.00000  Uiso   1.00
C390   C     0.35295   0.84653   0.87503   0.00000  Uiso   1.00
C391   C     0.34126   0.83472   0.00595   0.00000  Uiso   1.00
H392   H     0.48645   0.77425   0.90154   0.00000  Uiso   1.00
H393   H     0.54948   0.83210   0.89074   0.00000  Uiso   1.00
H394   H     0.48591   0.70860   0.73317   0.00000  Uiso   1.00
H395   H     0.43179   0.77489   0.10338   0.00000  Uiso   1.00
H396   H     0.60701   0.90748   0.84289   0.00000  Uiso   1.00
H397   H     0.47295   0.64705   0.51068   0.00000  Uiso   1.00
H398   H     0.35882   0.78684   0.29134   0.00000  Uiso   1.00
H399   H     0.39114   0.86086   0.62543   0.00000  Uiso   1.00
H400   H     0.44895   0.92348   0.59948   0.00000  Uiso   1.00
H401   H     0.38538   0.79996   0.44192   0.00000  Uiso   1.00
H402   H     0.33125   0.86626   0.81213   0.00000  Uiso   1.00
H403   H     0.52541   0.98164   0.60649   0.00000  Uiso   1.00
H404   H     0.39136   0.72121   0.27428   0.00000  Uiso   1.00
H405   H     0.27722   0.86100   0.05494   0.00000  Uiso   1.00
O406   O     0.60596   0.98418   0.71257   0.00000  Uiso   1.00
O407   O     0.43008   0.64250   0.27674   0.00000  Uiso   1.00
O408   O     0.28034   0.82591   0.30094   0.00000  Uiso   1.00
N409   N     0.57987   0.91635   0.79084   0.00000  Uiso   1.00
N410   N     0.45454   0.67286   0.48023   0.00000  Uiso   1.00
N411   N     0.34783   0.80354   0.21007   0.00000  Uiso   1.00
N412   N     0.53596   0.95625   0.66364   0.00000  Uiso   1.00
N413   N     0.41063   0.71277   0.35303   0.00000  Uiso   1.00
N414   N     0.30392   0.84345   0.08287   0.00000  Uiso   1.00
C415   C     0.96461   0.29409   0.33829   0.00000  Uiso   1.00
C416   C     0.98565   0.33754   0.29414   0.00000  Uiso   1.00
C417   C     0.02779   0.35184   0.32787   0.00000  Uiso   1.00
C418   C     0.04091   0.39258   0.27740   0.00000  Uiso   1.00
C419   C     0.07784   0.45616   0.22116   0.00000  Uiso   1.00
C420   C     0.95111   0.27044   0.20852   0.00000  Uiso   1.00
C421   C     0.96421   0.22831   0.17027   0.00000  Uiso   1.00
C422   C     0.94826   0.21257   0.04773   0.00000  Uiso   1.00
C423   C     0.93155   0.17195   0.85861   0.00000  Uiso   1.00
C424   C     0.92171   0.30646   0.40967   0.00000  Uiso   1.00
C425   C     0.91007   0.29461   0.54054   0.00000  Uiso   1.00
C426   C     0.86936   0.30918   0.58735   0.00000  Uiso   1.00
C427   C     0.80699   0.32450   0.71054   0.00000  Uiso   1.00
C428   C     0.91298   0.34102   0.18869   0.00000  Uiso   1.00
C429   C     0.95760   0.36303   0.21288   0.00000  Uiso   1.00
C430   C     0.97066   0.40376   0.16236   0.00000  Uiso   1.00
C431   C     0.01281   0.41812   0.19601   0.00000  Uiso   1.00
C432   C     0.92307   0.29592   0.12727   0.00000  Uiso   1.00
C433   C     0.90708   0.28023   0.00476   0.00000  Uiso   1.00
C434   C     0.92016   0.23810   0.96633   0.00000  Uiso   1.00
C435   C     0.89366   0.33195   0.32842   0.00000  Uiso   1.00
C436   C     0.85295   0.34653   0.37503   0.00000  Uiso   1.00
C437   C     0.84126   0.33472   0.50595   0.00000  Uiso   1.00
H438   H     0.98645   0.27425   0.40154   0.00000  Uiso   1.00
H439   H     0.04948   0.33210   0.39074   0.00000  Uiso   1.00
H440   H     0.98591   0.20860   0.23317   0.00000  Uiso   1.00
H441   H     0.93179   0.27489   0.60338   0.00000  Uiso   1.00
H442   H     0.10701   0.40748   0.34289   0.00000  Uiso   1.00
H443   H     0.97295   0.14705   0.01068   0.00000  Uiso   1.00
H444   H     0.85882   0.28684   0.79134   0.00000  Uiso   1.00
H445   H     0.89114   0.36086   0.12543   0.00000  Uiso   1.00
H446   H     0.94895   0.42348   0.09948   0.00000  Uiso   1.00
H447   H     0.88538   0.29996   0.94192   0.00000  Uiso   1.00
H448   H     0.83125   0.36626   0.31213   0.00000  Uiso   1.00
H449   H     0.02541   0.48164   0.10649   0.00000  Uiso   1.00
H450   H     0.89136   0.22121   0.77428   0.00000  Uiso   1.00
H451   H     0.77722   0.36100   0.55494   0.00000  Uiso   1.00
O452   O     0.10596   0.48418   0.21257   0.00000  Uiso   1.00
O453   O     0.93008   0.14250   0.77674   0.00000  Uiso   1.00
O454   O     0.78034   0.32591   0.80094   0.00000  Uiso   1.00
N455   N     0.07987   0.41635   0.29084   0.00000  Uiso   1.00
N456   N     0.95454   0.17286   0.98023   0.00000  Uiso   1.00
N457   N     0.84783   0.30354   0.71007   0.00000  Uiso   1.00
N458   N     0.03596   0.45625   0.16364   0.00000  Uiso   1.00
N459   N     0.91063   0.21277   0.85303   0.00000  Uiso   1.00
N460   N     0.80392   0.34345   0.58287   0.00000  Uiso   1.00
C461   C     0.03539   0.70591   0.33829   0.00000  Uiso   1.00
C462   C     0.01435   0.66246   0.29414   0.00000  Uiso   1.00
C463   C     0.97221   0.64816   0.32787   0.00000  Uiso   1.00
C464   C     0.95909   0.60742   0.27740   0.00000  Uiso   1.00
C465   C     0.92216   0.54384   0.22116   0.00000  Uiso   1.00
C466   C     0.04889   0.72956   0.20852   0.00000  Uiso   1.00
C467   C     0.03579   0.77169   0.17027   0.00000  Uiso   1.00
C468   C     0.05174   0.78743   0.04773   0.00000  Uiso   1.00
C469   C     0.06845   0.82805   0.85861   0.00000  Uiso   1.00
C470   C     0.07829   0.69354   0.40967   0.00000  Uiso   1.00
C471   C     0.08993   0.70539   0.54054   0.00000  Uiso   1.00
C472   C     0.13064   0.69082   0.58735   0.00000  Uiso   1.00
C473   C     0.19301   0.67550   0.71054   0.00000  Uiso   1.00
C474   C     0.08702   0.65898   0.18869   0.00000  Uiso   1.00
C475   C     0.04240   0.63697   0.21288   0.00000  Uiso   1.00
C476   C     0.02934   0.59624   0.16236   0.00000  Uiso   1.00
C477   C     0.98719   0.58188   0.19601   0.00000  Uiso   1.00
C478   C     0.07693   0.70408   0.12727   0.00000  Uiso   1.00
C479   C     0.09292   0.71977   0.00476   0.00000  Uiso   1.00
C480   C     0.07984   0.76190   0.96633   0.00000  Uiso   1.00
C481   C     0.10634   0.66805   0.32842   0.00000  Uiso   1.00
C482   C     0.14705   0.65347   0.37503   0.00000  Uiso   1.00
C483   C     0.15874   0.66528   0.50595   0.00000  Uiso   1.00
H484   H     0.01355   0.72575   0.40154   0.00000  Uiso   1.00
H485   H     0.95052   0.66790   0.39074   0.00000  Uiso   1.00
H486   H     0.01409   0.79140   0.23317   0.00000  Uiso   1.00
H487   H     0.06821   0.72511   0.60338   0.00000  Uiso   1.00
H488   H     0.89299   0.59252   0.34289   0.00000  Uiso   1.00
H489   H     0.02705   0.85295   0.01068   0.00000  Uiso   1.00
H490   H     0.14118   0.71316   0.79134   0.00000  Uiso   1.00
H491   H     0.10886   0.63914   0.12543   0.00000  Uiso   1.00
H492   H     0.05105   0.57652   0.09948   0.00000  Uiso   1.00
H493   H     0.11462   0.70004   0.94192   0.00000  Uiso   1.00
H494   H     0.16875   0.63374   0.31213   0.00000  Uiso   1.00
H495   H     0.97459   0.51836   0.10649   0.00000  Uiso   1.00
H496   H     0.10864   0.77879   0.77428   0.00000  Uiso   1.00
H497   H     0.22278   0.63900   0.55494   0.00000  Uiso   1.00
O498   O     0.89404   0.51582   0.21257   0.00000  Uiso   1.00
O499   O     0.06992   0.85750   0.77674   0.00000  Uiso   1.00
O500   O     0.21966   0.67409   0.80094   0.00000  Uiso   1.00
N501   N     0.92013   0.58365   0.29084   0.00000  Uiso   1.00
N502   N     0.04546   0.82714   0.98023   0.00000  Uiso   1.00
N503   N     0.15217   0.69646   0.71007   0.00000  Uiso   1.00
N504   N     0.96404   0.54375   0.16364   0.00000  Uiso   1.00
N505   N     0.08937   0.78723   0.85303   0.00000  Uiso   1.00
N506   N     0.19608   0.65655   0.58287   0.00000  Uiso   1.00
C507   C     0.53539   0.20591   0.83829   0.00000  Uiso   1.00
C508   C     0.51435   0.16246   0.79414   0.00000  Uiso   1.00
C509   C     0.47221   0.14816   0.82787   0.00000  Uiso   1.00
C510   C     0.45909   0.10742   0.77740   0.00000  Uiso   1.00
C511   C     0.42216   0.04384   0.72116   0.00000  Uiso   1.00
C512   C     0.54889   0.22956   0.70852   0.00000  Uiso   1.00
C513   C     0.53579   0.27169   0.67027   0.00000  Uiso   1.00
C514   C     0.55174   0.28743   0.54773   0.00000  Uiso   1.00
C515   C     0.56845   0.32805   0.35861   0.00000  Uiso   1.00
C516   C     0.57829   0.19354   0.90967   0.00000  Uiso   1.00
C517   C     0.58993   0.20539   0.04054   0.00000  Uiso   1.00
C518   C     0.63064   0.19082   0.08735   0.00000  Uiso   1.00
C519   C     0.69301   0.17550   0.21054   0.00000  Uiso   1.00
C520   C     0.58702   0.15898   0.68869   0.00000  Uiso   1.00
C521   C     0.54240   0.13697   0.71288   0.00000  Uiso   1.00
C522   C     0.52934   0.09624   0.66236   0.00000  Uiso   1.00
C523   C     0.48719   0.08188   0.69601   0.00000  Uiso   1.00
C524   C     0.57693   0.20408   0.62727   0.00000  Uiso   1.00
C525   C     0.59292   0.21977   0.50476   0.00000  Uiso   1.00
C526   C     0.57984   0.26190   0.46633   0.00000  Uiso   1.00
C527   C     0.60634   0.16805   0.82842   0.00000  Uiso   1.00
C528   C     0.64705   0.15347   0.87503   0.00000  Uiso   1.00
C529   C     0.65874   0.16528   0.00595   0.00000  Uiso   1.00
H530   H     0.51355   0.22575   0.90154   0.00000  Uiso   1.00
H531   H     0.45052   0.16790   0.89074   0.00000  Uiso   1.00
H532   H     0.51409   0.29140   0.73317   0.00000  Uiso   1.00
H533   H     0.56821   0.22511   0.10338   0.00000  Uiso   1.00
H534   H     0.39299   0.09252   0.84289   0.00000  Uiso   1.00
H535   H     0.52705   0.35295   0.51068   0.00000  Uiso   1.00
H536   H     0.64118   0.21316   0.29134   0.00000  Uiso   1.00
H537   H     0.60886   0.13914   0.62543   0.00000  Uiso   1.00
H538   H     0.55105   0.07652   0.59948   0.00000  Uiso   1.00
H539   H     0.61462   0.20004   0.44192   0.00000  Uiso   1.00
H540   H     0.66875   0.13374   0.81213   0.00000  Uiso   1.00
H541   H     0.47459   0.01836   0.60649   0.00000  Uiso   1.00
H542   H     0.60864   0.27879   0.27428   0.00000  Uiso   1.00
H543   H     0.72278   0.13900   0.05494   0.00000  Uiso   1.00
O544   O     0.39404   0.01582   0.71257   0.00000  Uiso   1.00
O545   O     0.56992   0.35750   0.27674   0.00000  Uiso   1.00
O546   O     0.71966   0.17409   0.30094   0.00000  Uiso   1.00
N547   N     0.42013   0.08365   0.79084   0.00000  Uiso   1.00
N548   N     0.54546   0.32714   0.48023   0.00000  Uiso   1.00
N549   N     0.65217   0.19646   0.21007   0.00000  Uiso   1.00
N550   N     0.46404   0.04375   0.66364   0.00000  Uiso   1.00
N551   N     0.58937   0.28723   0.35303   0.00000  Uiso   1.00
N552   N     0.69608   0.15655   0.08287   0.00000  Uiso   1.00
C553   C     0.79409   0.03539   0.08829   0.00000  Uiso   1.00
C554   C     0.83754   0.01435   0.04414   0.00000  Uiso   1.00
C555   C     0.85184   0.97221   0.07787   0.00000  Uiso   1.00
C556   C     0.89258   0.95909   0.02740   0.00000  Uiso   1.00
C557   C     0.95616   0.92216   0.97116   0.00000  Uiso   1.00
C558   C     0.77044   0.04889   0.95852   0.00000  Uiso   1.00
C559   C     0.72831   0.03579   0.92027   0.00000  Uiso   1.00
C560   C     0.71257   0.05174   0.79773   0.00000  Uiso   1.00
C561   C     0.67195   0.06845   0.60861   0.00000  Uiso   1.00
C562   C     0.80646   0.07829   0.15967   0.00000  Uiso   1.00
C563   C     0.79461   0.08993   0.29054   0.00000  Uiso   1.00
C564   C     0.80918   0.13064   0.33735   0.00000  Uiso   1.00
C565   C     0.82450   0.19301   0.46054   0.00000  Uiso   1.00
C566   C     0.84102   0.08702   0.93869   0.00000  Uiso   1.00
C567   C     0.86303   0.04240   0.96288   0.00000  Uiso   1.00
C568   C     0.90376   0.02934   0.91236   0.00000  Uiso   1.00
C569   C     0.91812   0.98719   0.94601   0.00000  Uiso   1.00
C570   C     0.79592   0.07693   0.87727   0.00000  Uiso   1.00
C571   C     0.78023   0.09292   0.75476   0.00000  Uiso   1.00
C572   C     0.73810   0.07984   0.71633   0.00000  Uiso   1.00
C573   C     0.83195   0.10634   0.07842   0.00000  Uiso   1.00
C574   C     0.84653   0.14705   0.12503   0.00000  Uiso   1.00
C575   C     0.83472   0.15874   0.25595   0.00000  Uiso   1.00
H576   H     0.77425   0.01355   0.15154   0.00000  Uiso   1.00
H577   H     0.83210   0.95052   0.14074   0.00000  Uiso   1.00
H578   H     0.70860   0.01409   0.98317   0.00000  Uiso   1.00
H579   H     0.77489   0.06821   0.35338   0.00000  Uiso   1.00
H580   H     0.90748   0.89299   0.09289   0.00000  Uiso   1.00
H581   H     0.64705   0.02705   0.76068   0.00000  Uiso   1.00
H582   H     0.78684   0.14118   0.54134   0.00000  Uiso   1.00
H583   H     0.86086   0.10886   0.87543   0.00000  Uiso   1.00
H584   H     0.92348   0.05105   0.84948   0.00000  Uiso   1.00
H585   H     0.79996   0.11462   0.69192   0.00000  Uiso   1.00
H586   H     0.86626   0.16875   0.06213   0.00000  Uiso   1.00
H587   H     0.98164   0.97459   0.85649   0.00000  Uiso   1.00
H588   H     0.72121   0.10864   0.52428   0.00000  Uiso   1.00
H589   H     0.86100   0.22278   0.30494   0.00000  Uiso   1.00
O590   O     0.98418   0.89404   0.96257   0.00000  Uiso   1.00
O591   O     0.64250   0.06992   0.52674   0.00000  Uiso   1.00
O592   O     0.82591   0.21966   0.55094   0.00000  Uiso   1.00
N593   N     0.91635   0.92013   0.04084   0.00000  Uiso   1.00
N594   N     0.67286   0.04546   0.73023   0.00000  Uiso   1.00
N595   N     0.80354   0.15217   0.46007   0.00000  Uiso   1.00
N596   N     0.95625   0.96404   0.91364   0.00000  Uiso   1.00
N597   N     0.71277   0.08937   0.60303   0.00000  Uiso   1.00
N598   N     0.84345   0.19608   0.33287   0.00000  Uiso   1.00
C599   C     0.29409   0.53539   0.58829   0.00000  Uiso   1.00
C600   C     0.33754   0.51435   0.54414   0.00000  Uiso   1.00
C601   C     0.35184   0.47221   0.57787   0.00000  Uiso   1.00
C602   C     0.39258   0.45909   0.52740   0.00000  Uiso   1.00
C603   C     0.45616   0.42216   0.47116   0.00000  Uiso   1.00
C604   C     0.27044   0.54889   0.45852   0.00000  Uiso   1.00
C605   C     0.22831   0.53579   0.42027   0.00000  Uiso   1.00
C606   C     0.21257   0.55174   0.29773   0.00000  Uiso   1.00
C607   C     0.17195   0.56845   0.10861   0.00000  Uiso   1.00
C608   C     0.30646   0.57829   0.65967   0.00000  Uiso   1.00
C609   C     0.29461   0.58993   0.79054   0.00000  Uiso   1.00
C610   C     0.30918   0.63064   0.83735   0.00000  Uiso   1.00
C611   C     0.32450   0.69301   0.96054   0.00000  Uiso   1.00
C612   C     0.34102   0.58702   0.43869   0.00000  Uiso   1.00
C613   C     0.36303   0.54240   0.46288   0.00000  Uiso   1.00
C614   C     0.40376   0.52934   0.41236   0.00000  Uiso   1.00
C615   C     0.41812   0.48719   0.44601   0.00000  Uiso   1.00
C616   C     0.29592   0.57693   0.37727   0.00000  Uiso   1.00
C617   C     0.28023   0.59292   0.25476   0.00000  Uiso   1.00
C618   C     0.23810   0.57984   0.21633   0.00000  Uiso   1.00
C619   C     0.33195   0.60634   0.57842   0.00000  Uiso   1.00
C620   C     0.34653   0.64705   0.62503   0.00000  Uiso   1.00
C621   C     0.33472   0.65874   0.75595   0.00000  Uiso   1.00
H622   H     0.27425   0.51355   0.65154   0.00000  Uiso   1.00
H623   H     0.33210   0.45052   0.64074   0.00000  Uiso   1.00
H624   H     0.20860   0.51409   0.48317   0.00000  Uiso   1.00
H625   H     0.27489   0.56821   0.85338   0.00000  Uiso   1.00
H626   H     0.40748   0.39299   0.59289   0.00000  Uiso   1.00
H627   H     0.14705   0.52705   0.26068   0.00000  Uiso   1.00
H628   H     0.28684   0.64118   0.04134   0.00000  Uiso   1.00
H629   H     0.36086   0.60886   0.37543   0.00000  Uiso   1.00
H630   H     0.42348   0.55105   0.34948   0.00000  Uiso   1.00
H631   H     0.29996   0.61462   0.19192   0.00000  Uiso   1.00
H632   H     0.36626   0.66875   0.56213   0.00000  Uiso   1.00
H633   H     0.48164   0.47459   0.35649   0.00000  Uiso   1.00
H634   H     0.22121   0.60864   0.02428   0.00000  Uiso   1.00
H635   H     0.36100   0.72278   0.80494   0.00000  Uiso   1.00
O636   O     0.48418   0.39404   0.46257   0.00000  Uiso   1.00
O637   O     0.14250   0.56992   0.02674   0.00000  Uiso   1.00
O638   O     0.32591   0.71966   0.05094   0.00000  Uiso   1.00
N639   N     0.41635   0.42013   0.54084   0.00000  Uiso   1.00
N640   N     0.17286   0.54546   0.23023   0.00000  Uiso   1.00
N641   N     0.30354   0.65217   0.96007   0.00000  Uiso   1.00
N642   N     0.45625   0.46404   0.41364   0.00000  Uiso   1.00
N643   N     0.21277   0.58937   0.10303   0.00000  Uiso   1.00
N644   N     0.34345   0.69608   0.83287   0.00000  Uiso   1.00
C645   C     0.70591   0.46461   0.58829   0.00000  Uiso   1.00
C646   C     0.66246   0.48565   0.54414   0.00000  Uiso   1.00
C647   C     0.64816   0.52779   0.57787   0.00000  Uiso   1.00
C648   C     0.60742   0.54091   0.52740   0.00000  Uiso   1.00
C649   C     0.54384   0.57784   0.47116   0.00000  Uiso   1.00
C650   C     0.72956   0.45111   0.45852   0.00000  Uiso   1.00
C651   C     0.77169   0.46421   0.42027   0.00000  Uiso   1.00
C652   C     0.78743   0.44826   0.29773   0.00000  Uiso   1.00
C653   C     0.82805   0.43155   0.10861   0.00000  Uiso   1.00
C654   C     0.69354   0.42171   0.65967   0.00000  Uiso   1.00
C655   C     0.70539   0.41007   0.79054   0.00000  Uiso   1.00
C656   C     0.69082   0.36936   0.83735   0.00000  Uiso   1.00
C657   C     0.67550   0.30699   0.96054   0.00000  Uiso   1.00
C658   C     0.65898   0.41298   0.43869   0.00000  Uiso   1.00
C659   C     0.63697   0.45760   0.46288   0.00000  Uiso   1.00
C660   C     0.59624   0.47066   0.41236   0.00000  Uiso   1.00
C661   C     0.58188   0.51281   0.44601   0.00000  Uiso   1.00
C662   C     0.70408   0.42307   0.37727   0.00000  Uiso   1.00
C663   C     0.71977   0.40708   0.25476   0.00000  Uiso   1.00
C664   C     0.76190   0.42016   0.21633   0.00000  Uiso   1.00
C665   C     0.66805   0.39366   0.57842   0.00000  Uiso   1.00
C666   C     0.65347   0.35295   0.62503   0.00000  Uiso   1.00
C667   C     0.66528   0.34126   0.75595   0.00000  Uiso   1.00
H668   H     0.72575   0.48645   0.65154   0.00000  Uiso   1.00
H669   H     0.66790   0.54948   0.64074   0.00000  Uiso   1.00
H670   H     0.79140   0.48591   0.48317   0.00000  Uiso   1.00
H671   H     0.72511   0.43179   0.85338   0.00000  Uiso   1.00
H672   H     0.59252   0.60701   0.59289   0.00000  Uiso   1.00
H673   H     0.85295   0.47295   0.26068   0.00000  Uiso   1.00
H674   H     0.71316   0.35882   0.04134   0.00000  Uiso   1.00
H675   H     0.63914   0.39114   0.37543   0.00000  Uiso   1.00
H676   H     0.57652   0.44895   0.34948   0.00000  Uiso   1.00
H677   H     0.70004   0.38538   0.19192   0.00000  Uiso   1.00
H678   H     0.63374   0.33125   0.56213   0.00000  Uiso   1.00
H679   H     0.51836   0.52541   0.35649   0.00000  Uiso   1.00
H680   H     0.77879   0.39136   0.02428   0.00000  Uiso   1.00
H681   H     0.63900   0.27722   0.80494   0.00000  Uiso   1.00
O682   O     0.51582   0.60596   0.46257   0.00000  Uiso   1.00
O683   O     0.85750   0.43008   0.02674   0.00000  Uiso   1.00
O684   O     0.67409   0.28034   0.05094   0.00000  Uiso   1.00
N685   N     0.58365   0.57987   0.54084   0.00000  Uiso   1.00
N686   N     0.82714   0.45454   0.23023   0.00000  Uiso   1.00
N687   N     0.69646   0.34783   0.96007   0.00000  Uiso   1.00
N688   N     0.54375   0.53596   0.41364   0.00000  Uiso   1.00
N689   N     0.78723   0.41063   0.10303   0.00000  Uiso   1.00
N690   N     0.65655   0.30392   0.83287   0.00000  Uiso   1.00
C691   C     0.20591   0.96461   0.08829   0.00000  Uiso   1.00
C692   C     0.16246   0.98565   0.04414   0.00000  Uiso   1.00
C693   C     0.14816   0.02779   0.07787   0.00000  Uiso   1.00
C694   C     0.10742   0.04091   0.02740   0.00000  Uiso   1.00
C695   C     0.04384   0.07784   0.97116   0.00000  Uiso   1.00
C696   C     0.22956   0.95111   0.95852   0.00000  Uiso   1.00
C697   C     0.27169   0.96421   0.92027   0.00000  Uiso   1.00
C698   C     0.28743   0.94826   0.79773   0.00000  Uiso   1.00
C699   C     0.32805   0.93155   0.60861   0.00000  Uiso   1.00
C700   C     0.19354   0.92171   0.15967   0.00000  Uiso   1.00
C701   C     0.20539   0.91007   0.29054   0.00000  Uiso   1.00
C702   C     0.19082   0.86936   0.33735   0.00000  Uiso   1.00
C703   C     0.17550   0.80699   0.46054   0.00000  Uiso   1.00
C704   C     0.15898   0.91298   0.93869   0.00000  Uiso   1.00
C705   C     0.13697   0.95760   0.96288   0.00000  Uiso   1.00
C706   C     0.09624   0.97066   0.91236   0.00000  Uiso   1.00
C707   C     0.08188   0.01281   0.94601   0.00000  Uiso   1.00
C708   C     0.20408   0.92307   0.87727   0.00000  Uiso   1.00
C709   C     0.21977   0.90708   0.75476   0.00000  Uiso   1.00
C710   C     0.26190   0.92016   0.71633   0.00000  Uiso   1.00
C711   C     0.16805   0.89366   0.07842   0.00000  Uiso   1.00
C712   C     0.15347   0.85295   0.12503   0.00000  Uiso   1.00
C713   C     0.16528   0.84126   0.25595   0.00000  Uiso   1.00
H714   H     0.22575   0.98645   0.15154   0.00000  Uiso   1.00
H715   H     0.16790   0.04948   0.14074   0.00000  Uiso   1.00
H716   H     0.29140   0.98591   0.98317   0.00000  Uiso   1.00
H717   H     0.22511   0.93179   0.35338   0.00000  Uiso   1.00
H718   H     0.09252   0.10701   0.09289   0.00000  Uiso   1.00
H719   H     0.35295   0.97295   0.76068   0.00000  Uiso   1.00
H720   H     0.21316   0.85882   0.54134   0.00000  Uiso   1.00
H721   H     0.13914   0.89114   0.87543   0.00000  Uiso   1.00
H722   H     0.07652   0.94895   0.84948   0.00000  Uiso   1.00
H723   H     0.20004   0.88538   0.69192   0.00000  Uiso   1.00
H724   H     0.13374   0.83125   0.06213   0.00000  Uiso   1.00
H725   H     0.01836   0.02541   0.85649   0.00000  Uiso   1.00
H726   H     0.27879   0.89136   0.52428   0.00000  Uiso   1.00
H727   H     0.13900   0.77722   0.30494   0.00000  Uiso   1.00
O728   O     0.01582   0.10596   0.96257   0.00000  Uiso   1.00
O729   O     0.35750   0.93008   0.52674   0.00000  Uiso   1.00
O730   O     0.17409   0.78034   0.55094   0.00000  Uiso   1.00
N731   N     0.08365   0.07987   0.04084   0.00000  Uiso   1.00
N732   N     0.32714   0.95454   0.73023   0.00000  Uiso   1.00
N733   N     0.19646   0.84783   0.46007   0.00000  Uiso   1.00
N734   N     0.04375   0.03596   0.91364   0.00000  Uiso   1.00
N735   N     0.28723   0.91063   0.60303   0.00000  Uiso   1.00
N736   N     0.15655   0.80392   0.33287   0.00000  Uiso   1.00
