data_job_01260
_audit_creation_date              2018-12-19
_audit_creation_method            'Materials Studio'
_symmetry_space_group_name_H-M    'P1'
_symmetry_Int_Tables_number       1
_symmetry_cell_setting            triclinic
loop_
_symmetry_equiv_pos_as_xyz
  x,y,z
_cell_length_a                    79.2206
_cell_length_b                    14.7631
_cell_length_c                    12.4983
_cell_angle_alpha                 90.0000
_cell_angle_beta                  90.0000
_cell_angle_gamma                 90.0000
loop_
_atom_site_label
_atom_site_type_symbol
_atom_site_fract_x
_atom_site_fract_y
_atom_site_fract_z
_atom_site_U_iso_or_equiv
_atom_site_adp_type
_atom_site_occupancy
C1     C     0.67431   0.96820   0.30584   0.00000  Uiso   1.00
C2     C     0.66032   0.94351   0.22727   0.00000  Uiso   1.00
C3     C     0.65634   0.99047   0.13444   0.00000  Uiso   1.00
C4     C     0.64310   0.95699   0.07332   0.00000  Uiso   1.00
C5     C     0.62273   0.93049   0.94667   0.00000  Uiso   1.00
C6     C     0.66579   0.97847   0.41459   0.00000  Uiso   1.00
C7     C     0.66641   0.05482   0.47926   0.00000  Uiso   1.00
C8     C     0.65778   0.05077   0.57582   0.00000  Uiso   1.00
C9     C     0.64592   0.07853   0.74002   0.00000  Uiso   1.00
C10    C     0.68555   0.88467   0.31441   0.00000  Uiso   1.00
C11    C     0.70279   0.88215   0.29489   0.00000  Uiso   1.00
C12    C     0.71079   0.79913   0.30715   0.00000  Uiso   1.00
C13    C     0.72961   0.68124   0.31581   0.00000  Uiso   1.00
C14    C     0.65787   0.82526   0.36236   0.00000  Uiso   1.00
C15    C     0.65139   0.86587   0.25797   0.00000  Uiso   1.00
C16    C     0.63816   0.83232   0.19697   0.00000  Uiso   1.00
C17    C     0.63416   0.87921   0.10407   0.00000  Uiso   1.00
C18    C     0.65686   0.90084   0.44529   0.00000  Uiso   1.00
C19    C     0.64823   0.89667   0.54179   0.00000  Uiso   1.00
C20    C     0.64884   0.97299   0.60658   0.00000  Uiso   1.00
C21    C     0.67662   0.80703   0.34511   0.00000  Uiso   1.00
C22    C     0.68460   0.72400   0.35741   0.00000  Uiso   1.00
C23    C     0.70185   0.72135   0.33790   0.00000  Uiso   1.00
H24    H     0.68126   0.02865   0.28195   0.00000  Uiso   1.00
H25    H     0.66325   0.05055   0.11071   0.00000  Uiso   1.00
H26    H     0.67333   0.11489   0.45548   0.00000  Uiso   1.00
H27    H     0.70969   0.94225   0.27113   0.00000  Uiso   1.00
H28    H     0.63935   0.04061   0.93443   0.00000  Uiso   1.00
H29    H     0.66059   0.17626   0.66140   0.00000  Uiso   1.00
H30    H     0.73728   0.81221   0.27268   0.00000  Uiso   1.00
H31    H     0.65092   0.76481   0.38627   0.00000  Uiso   1.00
H32    H     0.63125   0.77223   0.22075   0.00000  Uiso   1.00
H33    H     0.64132   0.83658   0.56552   0.00000  Uiso   1.00
H34    H     0.67769   0.66393   0.38117   0.00000  Uiso   1.00
H35    H     0.61337   0.81472   0.02374   0.00000  Uiso   1.00
H36    H     0.63462   0.95037   0.75072   0.00000  Uiso   1.00
H37    H     0.71130   0.58632   0.36199   0.00000  Uiso   1.00
O38    O     0.61396   0.93733   0.86834   0.00000  Uiso   1.00
O39    O     0.64184   0.11529   0.82211   0.00000  Uiso   1.00
O40    O     0.74245   0.63766   0.31210   0.00000  Uiso   1.00
N41    N     0.63594   0.98642   0.97815   0.00000  Uiso   1.00
N42    N     0.65580   0.11325   0.65782   0.00000  Uiso   1.00
N43    N     0.72749   0.77290   0.29442   0.00000  Uiso   1.00
N44    N     0.62196   0.86487   0.02621   0.00000  Uiso   1.00
N45    N     0.64182   0.99170   0.70588   0.00000  Uiso   1.00
N46    N     0.71352   0.65135   0.34248   0.00000  Uiso   1.00
C47    C     0.67431   0.46820   0.80584   0.00000  Uiso   1.00
C48    C     0.66032   0.44351   0.72727   0.00000  Uiso   1.00
C49    C     0.65634   0.49047   0.63444   0.00000  Uiso   1.00
C50    C     0.64310   0.45699   0.57332   0.00000  Uiso   1.00
C51    C     0.62273   0.43049   0.44667   0.00000  Uiso   1.00
C52    C     0.66579   0.47847   0.91459   0.00000  Uiso   1.00
C53    C     0.66641   0.55482   0.97926   0.00000  Uiso   1.00
C54    C     0.65778   0.55077   0.07582   0.00000  Uiso   1.00
C55    C     0.64592   0.57853   0.24002   0.00000  Uiso   1.00
C56    C     0.68555   0.38467   0.81441   0.00000  Uiso   1.00
C57    C     0.70279   0.38215   0.79489   0.00000  Uiso   1.00
C58    C     0.71079   0.29913   0.80715   0.00000  Uiso   1.00
C59    C     0.72961   0.18124   0.81581   0.00000  Uiso   1.00
C60    C     0.65787   0.32526   0.86236   0.00000  Uiso   1.00
C61    C     0.65139   0.36587   0.75797   0.00000  Uiso   1.00
C62    C     0.63816   0.33232   0.69697   0.00000  Uiso   1.00
C63    C     0.63416   0.37921   0.60407   0.00000  Uiso   1.00
C64    C     0.65686   0.40084   0.94529   0.00000  Uiso   1.00
C65    C     0.64823   0.39667   0.04179   0.00000  Uiso   1.00
C66    C     0.64884   0.47299   0.10658   0.00000  Uiso   1.00
C67    C     0.67662   0.30703   0.84511   0.00000  Uiso   1.00
C68    C     0.68460   0.22400   0.85741   0.00000  Uiso   1.00
C69    C     0.70185   0.22135   0.83790   0.00000  Uiso   1.00
H70    H     0.68126   0.52865   0.78195   0.00000  Uiso   1.00
H71    H     0.66325   0.55055   0.61071   0.00000  Uiso   1.00
H72    H     0.67333   0.61489   0.95548   0.00000  Uiso   1.00
H73    H     0.70969   0.44225   0.77113   0.00000  Uiso   1.00
H74    H     0.63935   0.54061   0.43443   0.00000  Uiso   1.00
H75    H     0.66059   0.67626   0.16140   0.00000  Uiso   1.00
H76    H     0.73728   0.31221   0.77268   0.00000  Uiso   1.00
H77    H     0.65092   0.26481   0.88627   0.00000  Uiso   1.00
H78    H     0.63125   0.27223   0.72075   0.00000  Uiso   1.00
H79    H     0.64132   0.33658   0.06552   0.00000  Uiso   1.00
H80    H     0.67769   0.16393   0.88117   0.00000  Uiso   1.00
H81    H     0.61337   0.31472   0.52374   0.00000  Uiso   1.00
H82    H     0.63462   0.45037   0.25072   0.00000  Uiso   1.00
H83    H     0.71130   0.08632   0.86199   0.00000  Uiso   1.00
O84    O     0.61396   0.43733   0.36834   0.00000  Uiso   1.00
O85    O     0.64184   0.61529   0.32211   0.00000  Uiso   1.00
O86    O     0.74245   0.13766   0.81210   0.00000  Uiso   1.00
N87    N     0.63594   0.48642   0.47815   0.00000  Uiso   1.00
N88    N     0.65580   0.61325   0.15782   0.00000  Uiso   1.00
N89    N     0.72749   0.27290   0.79442   0.00000  Uiso   1.00
N90    N     0.62196   0.36487   0.52621   0.00000  Uiso   1.00
N91    N     0.64182   0.49170   0.20588   0.00000  Uiso   1.00
N92    N     0.71352   0.15135   0.84248   0.00000  Uiso   1.00
C93    C     0.17431   0.96820   0.80584   0.00000  Uiso   1.00
C94    C     0.16032   0.94351   0.72727   0.00000  Uiso   1.00
C95    C     0.15634   0.99047   0.63444   0.00000  Uiso   1.00
C96    C     0.14310   0.95699   0.57332   0.00000  Uiso   1.00
C97    C     0.12273   0.93049   0.44667   0.00000  Uiso   1.00
C98    C     0.16579   0.97847   0.91459   0.00000  Uiso   1.00
C99    C     0.16641   0.05482   0.97926   0.00000  Uiso   1.00
C100   C     0.15778   0.05077   0.07582   0.00000  Uiso   1.00
C101   C     0.14592   0.07853   0.24002   0.00000  Uiso   1.00
C102   C     0.18555   0.88467   0.81441   0.00000  Uiso   1.00
C103   C     0.20279   0.88215   0.79489   0.00000  Uiso   1.00
C104   C     0.21079   0.79913   0.80715   0.00000  Uiso   1.00
C105   C     0.22961   0.68124   0.81581   0.00000  Uiso   1.00
C106   C     0.15787   0.82526   0.86236   0.00000  Uiso   1.00
C107   C     0.15139   0.86587   0.75797   0.00000  Uiso   1.00
C108   C     0.13816   0.83232   0.69697   0.00000  Uiso   1.00
C109   C     0.13416   0.87921   0.60407   0.00000  Uiso   1.00
C110   C     0.15686   0.90084   0.94529   0.00000  Uiso   1.00
C111   C     0.14823   0.89667   0.04179   0.00000  Uiso   1.00
C112   C     0.14884   0.97299   0.10658   0.00000  Uiso   1.00
C113   C     0.17662   0.80703   0.84511   0.00000  Uiso   1.00
C114   C     0.18460   0.72400   0.85741   0.00000  Uiso   1.00
C115   C     0.20185   0.72135   0.83790   0.00000  Uiso   1.00
H116   H     0.18126   0.02865   0.78195   0.00000  Uiso   1.00
H117   H     0.16325   0.05055   0.61071   0.00000  Uiso   1.00
H118   H     0.17333   0.11489   0.95548   0.00000  Uiso   1.00
H119   H     0.20969   0.94225   0.77113   0.00000  Uiso   1.00
H120   H     0.13935   0.04061   0.43443   0.00000  Uiso   1.00
H121   H     0.16059   0.17626   0.16140   0.00000  Uiso   1.00
H122   H     0.23728   0.81221   0.77268   0.00000  Uiso   1.00
H123   H     0.15092   0.76481   0.88627   0.00000  Uiso   1.00
H124   H     0.13125   0.77223   0.72075   0.00000  Uiso   1.00
H125   H     0.14132   0.83658   0.06552   0.00000  Uiso   1.00
H126   H     0.17769   0.66393   0.88117   0.00000  Uiso   1.00
H127   H     0.11337   0.81472   0.52374   0.00000  Uiso   1.00
H128   H     0.13462   0.95037   0.25072   0.00000  Uiso   1.00
H129   H     0.21130   0.58632   0.86199   0.00000  Uiso   1.00
O130   O     0.11396   0.93733   0.36834   0.00000  Uiso   1.00
O131   O     0.14184   0.11529   0.32211   0.00000  Uiso   1.00
O132   O     0.24245   0.63766   0.81210   0.00000  Uiso   1.00
N133   N     0.13594   0.98642   0.47815   0.00000  Uiso   1.00
N134   N     0.15580   0.11325   0.15782   0.00000  Uiso   1.00
N135   N     0.22749   0.77290   0.79442   0.00000  Uiso   1.00
N136   N     0.12196   0.86487   0.52621   0.00000  Uiso   1.00
N137   N     0.14182   0.99170   0.20588   0.00000  Uiso   1.00
N138   N     0.21352   0.65135   0.84248   0.00000  Uiso   1.00
C139   C     0.17431   0.46820   0.30584   0.00000  Uiso   1.00
C140   C     0.16032   0.44351   0.22727   0.00000  Uiso   1.00
C141   C     0.15634   0.49047   0.13444   0.00000  Uiso   1.00
C142   C     0.14310   0.45699   0.07332   0.00000  Uiso   1.00
C143   C     0.12273   0.43049   0.94667   0.00000  Uiso   1.00
C144   C     0.16579   0.47847   0.41459   0.00000  Uiso   1.00
C145   C     0.16641   0.55482   0.47926   0.00000  Uiso   1.00
C146   C     0.15778   0.55077   0.57582   0.00000  Uiso   1.00
C147   C     0.14592   0.57853   0.74002   0.00000  Uiso   1.00
C148   C     0.18555   0.38467   0.31441   0.00000  Uiso   1.00
C149   C     0.20279   0.38215   0.29489   0.00000  Uiso   1.00
C150   C     0.21079   0.29913   0.30715   0.00000  Uiso   1.00
C151   C     0.22961   0.18124   0.31581   0.00000  Uiso   1.00
C152   C     0.15787   0.32526   0.36236   0.00000  Uiso   1.00
C153   C     0.15139   0.36587   0.25797   0.00000  Uiso   1.00
C154   C     0.13816   0.33232   0.19697   0.00000  Uiso   1.00
C155   C     0.13416   0.37921   0.10407   0.00000  Uiso   1.00
C156   C     0.15686   0.40084   0.44529   0.00000  Uiso   1.00
C157   C     0.14823   0.39667   0.54179   0.00000  Uiso   1.00
C158   C     0.14884   0.47299   0.60658   0.00000  Uiso   1.00
C159   C     0.17662   0.30703   0.34511   0.00000  Uiso   1.00
C160   C     0.18460   0.22400   0.35741   0.00000  Uiso   1.00
C161   C     0.20185   0.22135   0.33790   0.00000  Uiso   1.00
H162   H     0.18126   0.52865   0.28195   0.00000  Uiso   1.00
H163   H     0.16325   0.55055   0.11071   0.00000  Uiso   1.00
H164   H     0.17333   0.61489   0.45548   0.00000  Uiso   1.00
H165   H     0.20969   0.44225   0.27113   0.00000  Uiso   1.00
H166   H     0.13935   0.54061   0.93443   0.00000  Uiso   1.00
H167   H     0.16059   0.67626   0.66140   0.00000  Uiso   1.00
H168   H     0.23728   0.31221   0.27268   0.00000  Uiso   1.00
H169   H     0.15092   0.26481   0.38627   0.00000  Uiso   1.00
H170   H     0.13125   0.27223   0.22075   0.00000  Uiso   1.00
H171   H     0.14132   0.33658   0.56552   0.00000  Uiso   1.00
H172   H     0.17769   0.16393   0.38117   0.00000  Uiso   1.00
H173   H     0.11337   0.31472   0.02374   0.00000  Uiso   1.00
H174   H     0.13462   0.45037   0.75072   0.00000  Uiso   1.00
H175   H     0.21130   0.08632   0.36199   0.00000  Uiso   1.00
O176   O     0.11396   0.43733   0.86834   0.00000  Uiso   1.00
O177   O     0.14184   0.61529   0.82211   0.00000  Uiso   1.00
O178   O     0.24245   0.13766   0.31210   0.00000  Uiso   1.00
N179   N     0.13594   0.48642   0.97815   0.00000  Uiso   1.00
N180   N     0.15580   0.61325   0.65782   0.00000  Uiso   1.00
N181   N     0.22749   0.27290   0.29442   0.00000  Uiso   1.00
N182   N     0.12196   0.36487   0.02621   0.00000  Uiso   1.00
N183   N     0.14182   0.49170   0.70588   0.00000  Uiso   1.00
N184   N     0.21352   0.15135   0.34248   0.00000  Uiso   1.00
C185   C     0.32569   0.03180   0.30584   0.00000  Uiso   1.00
C186   C     0.33968   0.05649   0.22727   0.00000  Uiso   1.00
C187   C     0.34366   0.00953   0.13444   0.00000  Uiso   1.00
C188   C     0.35690   0.04301   0.07332   0.00000  Uiso   1.00
C189   C     0.37727   0.06951   0.94667   0.00000  Uiso   1.00
C190   C     0.33421   0.02153   0.41459   0.00000  Uiso   1.00
C191   C     0.33359   0.94518   0.47926   0.00000  Uiso   1.00
C192   C     0.34222   0.94923   0.57582   0.00000  Uiso   1.00
C193   C     0.35408   0.92147   0.74002   0.00000  Uiso   1.00
C194   C     0.31445   0.11533   0.31441   0.00000  Uiso   1.00
C195   C     0.29721   0.11785   0.29489   0.00000  Uiso   1.00
C196   C     0.28921   0.20087   0.30715   0.00000  Uiso   1.00
C197   C     0.27039   0.31876   0.31581   0.00000  Uiso   1.00
C198   C     0.34213   0.17474   0.36236   0.00000  Uiso   1.00
C199   C     0.34861   0.13413   0.25797   0.00000  Uiso   1.00
C200   C     0.36184   0.16768   0.19697   0.00000  Uiso   1.00
C201   C     0.36584   0.12079   0.10407   0.00000  Uiso   1.00
C202   C     0.34314   0.09916   0.44529   0.00000  Uiso   1.00
C203   C     0.35177   0.10333   0.54179   0.00000  Uiso   1.00
C204   C     0.35116   0.02701   0.60658   0.00000  Uiso   1.00
C205   C     0.32338   0.19297   0.34511   0.00000  Uiso   1.00
C206   C     0.31540   0.27600   0.35741   0.00000  Uiso   1.00
C207   C     0.29815   0.27865   0.33790   0.00000  Uiso   1.00
H208   H     0.31874   0.97135   0.28195   0.00000  Uiso   1.00
H209   H     0.33675   0.94945   0.11071   0.00000  Uiso   1.00
H210   H     0.32667   0.88511   0.45548   0.00000  Uiso   1.00
H211   H     0.29031   0.05775   0.27113   0.00000  Uiso   1.00
H212   H     0.36065   0.95939   0.93443   0.00000  Uiso   1.00
H213   H     0.33941   0.82374   0.66140   0.00000  Uiso   1.00
H214   H     0.26272   0.18779   0.27268   0.00000  Uiso   1.00
H215   H     0.34908   0.23519   0.38627   0.00000  Uiso   1.00
H216   H     0.36875   0.22777   0.22075   0.00000  Uiso   1.00
H217   H     0.35868   0.16342   0.56552   0.00000  Uiso   1.00
H218   H     0.32231   0.33607   0.38117   0.00000  Uiso   1.00
H219   H     0.38663   0.18528   0.02374   0.00000  Uiso   1.00
H220   H     0.36538   0.04963   0.75072   0.00000  Uiso   1.00
H221   H     0.28870   0.41368   0.36199   0.00000  Uiso   1.00
O222   O     0.38604   0.06267   0.86834   0.00000  Uiso   1.00
O223   O     0.35816   0.88471   0.82211   0.00000  Uiso   1.00
O224   O     0.25755   0.36234   0.31210   0.00000  Uiso   1.00
N225   N     0.36406   0.01358   0.97815   0.00000  Uiso   1.00
N226   N     0.34420   0.88675   0.65782   0.00000  Uiso   1.00
N227   N     0.27251   0.22710   0.29442   0.00000  Uiso   1.00
N228   N     0.37804   0.13513   0.02621   0.00000  Uiso   1.00
N229   N     0.35818   0.00830   0.70588   0.00000  Uiso   1.00
N230   N     0.28648   0.34865   0.34248   0.00000  Uiso   1.00
C231   C     0.32569   0.53180   0.80584   0.00000  Uiso   1.00
C232   C     0.33968   0.55649   0.72727   0.00000  Uiso   1.00
C233   C     0.34366   0.50953   0.63444   0.00000  Uiso   1.00
C234   C     0.35690   0.54301   0.57332   0.00000  Uiso   1.00
C235   C     0.37727   0.56951   0.44667   0.00000  Uiso   1.00
C236   C     0.33421   0.52153   0.91459   0.00000  Uiso   1.00
C237   C     0.33359   0.44518   0.97926   0.00000  Uiso   1.00
C238   C     0.34222   0.44923   0.07582   0.00000  Uiso   1.00
C239   C     0.35408   0.42147   0.24002   0.00000  Uiso   1.00
C240   C     0.31445   0.61533   0.81441   0.00000  Uiso   1.00
C241   C     0.29721   0.61785   0.79489   0.00000  Uiso   1.00
C242   C     0.28921   0.70087   0.80715   0.00000  Uiso   1.00
C243   C     0.27039   0.81876   0.81581   0.00000  Uiso   1.00
C244   C     0.34213   0.67474   0.86236   0.00000  Uiso   1.00
C245   C     0.34861   0.63413   0.75797   0.00000  Uiso   1.00
C246   C     0.36184   0.66768   0.69697   0.00000  Uiso   1.00
C247   C     0.36584   0.62079   0.60407   0.00000  Uiso   1.00
C248   C     0.34314   0.59916   0.94529   0.00000  Uiso   1.00
C249   C     0.35177   0.60333   0.04179   0.00000  Uiso   1.00
C250   C     0.35116   0.52701   0.10658   0.00000  Uiso   1.00
C251   C     0.32338   0.69297   0.84511   0.00000  Uiso   1.00
C252   C     0.31540   0.77600   0.85741   0.00000  Uiso   1.00
C253   C     0.29815   0.77865   0.83790   0.00000  Uiso   1.00
H254   H     0.31874   0.47135   0.78195   0.00000  Uiso   1.00
H255   H     0.33675   0.44945   0.61071   0.00000  Uiso   1.00
H256   H     0.32667   0.38511   0.95548   0.00000  Uiso   1.00
H257   H     0.29031   0.55775   0.77113   0.00000  Uiso   1.00
H258   H     0.36065   0.45939   0.43443   0.00000  Uiso   1.00
H259   H     0.33941   0.32374   0.16140   0.00000  Uiso   1.00
H260   H     0.26272   0.68779   0.77268   0.00000  Uiso   1.00
H261   H     0.34908   0.73519   0.88627   0.00000  Uiso   1.00
H262   H     0.36875   0.72777   0.72075   0.00000  Uiso   1.00
H263   H     0.35868   0.66342   0.06552   0.00000  Uiso   1.00
H264   H     0.32231   0.83607   0.88117   0.00000  Uiso   1.00
H265   H     0.38663   0.68528   0.52374   0.00000  Uiso   1.00
H266   H     0.36538   0.54963   0.25072   0.00000  Uiso   1.00
H267   H     0.28870   0.91368   0.86199   0.00000  Uiso   1.00
O268   O     0.38604   0.56267   0.36834   0.00000  Uiso   1.00
O269   O     0.35816   0.38471   0.32211   0.00000  Uiso   1.00
O270   O     0.25755   0.86234   0.81210   0.00000  Uiso   1.00
N271   N     0.36406   0.51358   0.47815   0.00000  Uiso   1.00
N272   N     0.34420   0.38675   0.15782   0.00000  Uiso   1.00
N273   N     0.27251   0.72710   0.79442   0.00000  Uiso   1.00
N274   N     0.37804   0.63513   0.52621   0.00000  Uiso   1.00
N275   N     0.35818   0.50830   0.20588   0.00000  Uiso   1.00
N276   N     0.28648   0.84865   0.84248   0.00000  Uiso   1.00
C277   C     0.82569   0.03180   0.80584   0.00000  Uiso   1.00
C278   C     0.83968   0.05649   0.72727   0.00000  Uiso   1.00
C279   C     0.84366   0.00953   0.63444   0.00000  Uiso   1.00
C280   C     0.85690   0.04301   0.57332   0.00000  Uiso   1.00
C281   C     0.87727   0.06951   0.44667   0.00000  Uiso   1.00
C282   C     0.83421   0.02153   0.91459   0.00000  Uiso   1.00
C283   C     0.83359   0.94518   0.97926   0.00000  Uiso   1.00
C284   C     0.84222   0.94923   0.07582   0.00000  Uiso   1.00
C285   C     0.85408   0.92147   0.24002   0.00000  Uiso   1.00
C286   C     0.81445   0.11533   0.81441   0.00000  Uiso   1.00
C287   C     0.79721   0.11785   0.79489   0.00000  Uiso   1.00
C288   C     0.78921   0.20087   0.80715   0.00000  Uiso   1.00
C289   C     0.77039   0.31876   0.81581   0.00000  Uiso   1.00
C290   C     0.84213   0.17474   0.86236   0.00000  Uiso   1.00
C291   C     0.84861   0.13413   0.75797   0.00000  Uiso   1.00
C292   C     0.86184   0.16768   0.69697   0.00000  Uiso   1.00
C293   C     0.86584   0.12079   0.60407   0.00000  Uiso   1.00
C294   C     0.84314   0.09916   0.94529   0.00000  Uiso   1.00
C295   C     0.85177   0.10333   0.04179   0.00000  Uiso   1.00
C296   C     0.85116   0.02701   0.10658   0.00000  Uiso   1.00
C297   C     0.82338   0.19297   0.84511   0.00000  Uiso   1.00
C298   C     0.81540   0.27600   0.85741   0.00000  Uiso   1.00
C299   C     0.79815   0.27865   0.83790   0.00000  Uiso   1.00
H300   H     0.81874   0.97135   0.78195   0.00000  Uiso   1.00
H301   H     0.83675   0.94945   0.61071   0.00000  Uiso   1.00
H302   H     0.82667   0.88511   0.95548   0.00000  Uiso   1.00
H303   H     0.79031   0.05775   0.77113   0.00000  Uiso   1.00
H304   H     0.86065   0.95939   0.43443   0.00000  Uiso   1.00
H305   H     0.83941   0.82374   0.16140   0.00000  Uiso   1.00
H306   H     0.76272   0.18779   0.77268   0.00000  Uiso   1.00
H307   H     0.84908   0.23519   0.88627   0.00000  Uiso   1.00
H308   H     0.86875   0.22777   0.72075   0.00000  Uiso   1.00
H309   H     0.85868   0.16342   0.06552   0.00000  Uiso   1.00
H310   H     0.82231   0.33607   0.88117   0.00000  Uiso   1.00
H311   H     0.88663   0.18528   0.52374   0.00000  Uiso   1.00
H312   H     0.86538   0.04963   0.25072   0.00000  Uiso   1.00
H313   H     0.78870   0.41368   0.86199   0.00000  Uiso   1.00
O314   O     0.88604   0.06267   0.36834   0.00000  Uiso   1.00
O315   O     0.85816   0.88471   0.32211   0.00000  Uiso   1.00
O316   O     0.75755   0.36234   0.81210   0.00000  Uiso   1.00
N317   N     0.86406   0.01358   0.47815   0.00000  Uiso   1.00
N318   N     0.84420   0.88675   0.15782   0.00000  Uiso   1.00
N319   N     0.77251   0.22710   0.79442   0.00000  Uiso   1.00
N320   N     0.87804   0.13513   0.52621   0.00000  Uiso   1.00
N321   N     0.85818   0.00830   0.20588   0.00000  Uiso   1.00
N322   N     0.78648   0.34865   0.84248   0.00000  Uiso   1.00
C323   C     0.82569   0.53180   0.30584   0.00000  Uiso   1.00
C324   C     0.83968   0.55649   0.22727   0.00000  Uiso   1.00
C325   C     0.84366   0.50953   0.13444   0.00000  Uiso   1.00
C326   C     0.85690   0.54301   0.07332   0.00000  Uiso   1.00
C327   C     0.87727   0.56951   0.94667   0.00000  Uiso   1.00
C328   C     0.83421   0.52153   0.41459   0.00000  Uiso   1.00
C329   C     0.83359   0.44518   0.47926   0.00000  Uiso   1.00
C330   C     0.84222   0.44923   0.57582   0.00000  Uiso   1.00
C331   C     0.85408   0.42147   0.74002   0.00000  Uiso   1.00
C332   C     0.81445   0.61533   0.31441   0.00000  Uiso   1.00
C333   C     0.79721   0.61785   0.29489   0.00000  Uiso   1.00
C334   C     0.78921   0.70087   0.30715   0.00000  Uiso   1.00
C335   C     0.77039   0.81876   0.31581   0.00000  Uiso   1.00
C336   C     0.84213   0.67474   0.36236   0.00000  Uiso   1.00
C337   C     0.84861   0.63413   0.25797   0.00000  Uiso   1.00
C338   C     0.86184   0.66768   0.19697   0.00000  Uiso   1.00
C339   C     0.86584   0.62079   0.10407   0.00000  Uiso   1.00
C340   C     0.84314   0.59916   0.44529   0.00000  Uiso   1.00
C341   C     0.85177   0.60333   0.54179   0.00000  Uiso   1.00
C342   C     0.85116   0.52701   0.60658   0.00000  Uiso   1.00
C343   C     0.82338   0.69297   0.34511   0.00000  Uiso   1.00
C344   C     0.81540   0.77600   0.35741   0.00000  Uiso   1.00
C345   C     0.79815   0.77865   0.33790   0.00000  Uiso   1.00
H346   H     0.81874   0.47135   0.28195   0.00000  Uiso   1.00
H347   H     0.83675   0.44945   0.11071   0.00000  Uiso   1.00
H348   H     0.82667   0.38511   0.45548   0.00000  Uiso   1.00
H349   H     0.79031   0.55775   0.27113   0.00000  Uiso   1.00
H350   H     0.86065   0.45939   0.93443   0.00000  Uiso   1.00
H351   H     0.83941   0.32374   0.66140   0.00000  Uiso   1.00
H352   H     0.76272   0.68779   0.27268   0.00000  Uiso   1.00
H353   H     0.84908   0.73519   0.38627   0.00000  Uiso   1.00
H354   H     0.86875   0.72777   0.22075   0.00000  Uiso   1.00
H355   H     0.85868   0.66342   0.56552   0.00000  Uiso   1.00
H356   H     0.82231   0.83607   0.38117   0.00000  Uiso   1.00
H357   H     0.88663   0.68528   0.02374   0.00000  Uiso   1.00
H358   H     0.86538   0.54963   0.75072   0.00000  Uiso   1.00
H359   H     0.78870   0.91368   0.36199   0.00000  Uiso   1.00
O360   O     0.88604   0.56267   0.86834   0.00000  Uiso   1.00
O361   O     0.85816   0.38471   0.82211   0.00000  Uiso   1.00
O362   O     0.75755   0.86234   0.31210   0.00000  Uiso   1.00
N363   N     0.86406   0.51358   0.97815   0.00000  Uiso   1.00
N364   N     0.84420   0.38675   0.65782   0.00000  Uiso   1.00
N365   N     0.77251   0.72710   0.29442   0.00000  Uiso   1.00
N366   N     0.87804   0.63513   0.02621   0.00000  Uiso   1.00
N367   N     0.85818   0.50830   0.70588   0.00000  Uiso   1.00
N368   N     0.78648   0.84865   0.34248   0.00000  Uiso   1.00
C369   C     0.92431   0.28180   0.55584   0.00000  Uiso   1.00
C370   C     0.91032   0.30649   0.47727   0.00000  Uiso   1.00
C371   C     0.90634   0.25953   0.38444   0.00000  Uiso   1.00
C372   C     0.89310   0.29301   0.32332   0.00000  Uiso   1.00
C373   C     0.87273   0.31951   0.19667   0.00000  Uiso   1.00
C374   C     0.91579   0.27153   0.66459   0.00000  Uiso   1.00
C375   C     0.91641   0.19518   0.72926   0.00000  Uiso   1.00
C376   C     0.90778   0.19923   0.82582   0.00000  Uiso   1.00
C377   C     0.89592   0.17147   0.99002   0.00000  Uiso   1.00
C378   C     0.93555   0.36533   0.56441   0.00000  Uiso   1.00
C379   C     0.95279   0.36785   0.54489   0.00000  Uiso   1.00
C380   C     0.96079   0.45087   0.55715   0.00000  Uiso   1.00
C381   C     0.97961   0.56876   0.56581   0.00000  Uiso   1.00
C382   C     0.90787   0.42474   0.61236   0.00000  Uiso   1.00
C383   C     0.90139   0.38413   0.50797   0.00000  Uiso   1.00
C384   C     0.88816   0.41768   0.44697   0.00000  Uiso   1.00
C385   C     0.88416   0.37079   0.35407   0.00000  Uiso   1.00
C386   C     0.90686   0.34916   0.69529   0.00000  Uiso   1.00
C387   C     0.89823   0.35333   0.79179   0.00000  Uiso   1.00
C388   C     0.89884   0.27701   0.85658   0.00000  Uiso   1.00
C389   C     0.92662   0.44297   0.59511   0.00000  Uiso   1.00
C390   C     0.93460   0.52600   0.60741   0.00000  Uiso   1.00
C391   C     0.95185   0.52865   0.58790   0.00000  Uiso   1.00
H392   H     0.93126   0.22135   0.53195   0.00000  Uiso   1.00
H393   H     0.91325   0.19945   0.36071   0.00000  Uiso   1.00
H394   H     0.92333   0.13511   0.70548   0.00000  Uiso   1.00
H395   H     0.95969   0.30775   0.52113   0.00000  Uiso   1.00
H396   H     0.88935   0.20939   0.18443   0.00000  Uiso   1.00
H397   H     0.91059   0.07374   0.91140   0.00000  Uiso   1.00
H398   H     0.98728   0.43779   0.52268   0.00000  Uiso   1.00
H399   H     0.90092   0.48519   0.63627   0.00000  Uiso   1.00
H400   H     0.88125   0.47777   0.47075   0.00000  Uiso   1.00
H401   H     0.89132   0.41342   0.81552   0.00000  Uiso   1.00
H402   H     0.92769   0.58607   0.63117   0.00000  Uiso   1.00
H403   H     0.86337   0.43528   0.27374   0.00000  Uiso   1.00
H404   H     0.88462   0.29963   0.00072   0.00000  Uiso   1.00
H405   H     0.96130   0.66368   0.61199   0.00000  Uiso   1.00
O406   O     0.86396   0.31267   0.11834   0.00000  Uiso   1.00
O407   O     0.89184   0.13471   0.07211   0.00000  Uiso   1.00
O408   O     0.99245   0.61234   0.56210   0.00000  Uiso   1.00
N409   N     0.88594   0.26358   0.22815   0.00000  Uiso   1.00
N410   N     0.90580   0.13675   0.90782   0.00000  Uiso   1.00
N411   N     0.97749   0.47710   0.54442   0.00000  Uiso   1.00
N412   N     0.87196   0.38513   0.27621   0.00000  Uiso   1.00
N413   N     0.89182   0.25830   0.95588   0.00000  Uiso   1.00
N414   N     0.96352   0.59865   0.59248   0.00000  Uiso   1.00
C415   C     0.92431   0.78180   0.05584   0.00000  Uiso   1.00
C416   C     0.91032   0.80649   0.97727   0.00000  Uiso   1.00
C417   C     0.90634   0.75953   0.88444   0.00000  Uiso   1.00
C418   C     0.89310   0.79301   0.82332   0.00000  Uiso   1.00
C419   C     0.87273   0.81951   0.69667   0.00000  Uiso   1.00
C420   C     0.91579   0.77153   0.16459   0.00000  Uiso   1.00
C421   C     0.91641   0.69518   0.22926   0.00000  Uiso   1.00
C422   C     0.90778   0.69923   0.32582   0.00000  Uiso   1.00
C423   C     0.89592   0.67147   0.49002   0.00000  Uiso   1.00
C424   C     0.93555   0.86533   0.06441   0.00000  Uiso   1.00
C425   C     0.95279   0.86785   0.04489   0.00000  Uiso   1.00
C426   C     0.96079   0.95087   0.05715   0.00000  Uiso   1.00
C427   C     0.97961   0.06876   0.06581   0.00000  Uiso   1.00
C428   C     0.90787   0.92474   0.11236   0.00000  Uiso   1.00
C429   C     0.90139   0.88413   0.00797   0.00000  Uiso   1.00
C430   C     0.88816   0.91768   0.94697   0.00000  Uiso   1.00
C431   C     0.88416   0.87079   0.85407   0.00000  Uiso   1.00
C432   C     0.90686   0.84916   0.19529   0.00000  Uiso   1.00
C433   C     0.89823   0.85333   0.29179   0.00000  Uiso   1.00
C434   C     0.89884   0.77701   0.35658   0.00000  Uiso   1.00
C435   C     0.92662   0.94297   0.09511   0.00000  Uiso   1.00
C436   C     0.93460   0.02600   0.10741   0.00000  Uiso   1.00
C437   C     0.95185   0.02865   0.08790   0.00000  Uiso   1.00
H438   H     0.93126   0.72135   0.03195   0.00000  Uiso   1.00
H439   H     0.91325   0.69945   0.86071   0.00000  Uiso   1.00
H440   H     0.92333   0.63511   0.20548   0.00000  Uiso   1.00
H441   H     0.95969   0.80775   0.02113   0.00000  Uiso   1.00
H442   H     0.88935   0.70939   0.68443   0.00000  Uiso   1.00
H443   H     0.91059   0.57374   0.41140   0.00000  Uiso   1.00
H444   H     0.98728   0.93779   0.02268   0.00000  Uiso   1.00
H445   H     0.90092   0.98519   0.13627   0.00000  Uiso   1.00
H446   H     0.88125   0.97777   0.97075   0.00000  Uiso   1.00
H447   H     0.89132   0.91342   0.31552   0.00000  Uiso   1.00
H448   H     0.92769   0.08607   0.13117   0.00000  Uiso   1.00
H449   H     0.86337   0.93528   0.77374   0.00000  Uiso   1.00
H450   H     0.88462   0.79963   0.50072   0.00000  Uiso   1.00
H451   H     0.96130   0.16368   0.11199   0.00000  Uiso   1.00
O452   O     0.86396   0.81267   0.61834   0.00000  Uiso   1.00
O453   O     0.89184   0.63471   0.57211   0.00000  Uiso   1.00
O454   O     0.99245   0.11234   0.06210   0.00000  Uiso   1.00
N455   N     0.88594   0.76358   0.72815   0.00000  Uiso   1.00
N456   N     0.90580   0.63675   0.40782   0.00000  Uiso   1.00
N457   N     0.97749   0.97710   0.04442   0.00000  Uiso   1.00
N458   N     0.87196   0.88513   0.77621   0.00000  Uiso   1.00
N459   N     0.89182   0.75830   0.45588   0.00000  Uiso   1.00
N460   N     0.96352   0.09865   0.09248   0.00000  Uiso   1.00
C461   C     0.42431   0.28180   0.05584   0.00000  Uiso   1.00
C462   C     0.41032   0.30649   0.97727   0.00000  Uiso   1.00
C463   C     0.40634   0.25953   0.88444   0.00000  Uiso   1.00
C464   C     0.39310   0.29301   0.82332   0.00000  Uiso   1.00
C465   C     0.37273   0.31951   0.69667   0.00000  Uiso   1.00
C466   C     0.41579   0.27153   0.16459   0.00000  Uiso   1.00
C467   C     0.41641   0.19518   0.22926   0.00000  Uiso   1.00
C468   C     0.40778   0.19923   0.32582   0.00000  Uiso   1.00
C469   C     0.39592   0.17147   0.49002   0.00000  Uiso   1.00
C470   C     0.43555   0.36533   0.06441   0.00000  Uiso   1.00
C471   C     0.45279   0.36785   0.04489   0.00000  Uiso   1.00
C472   C     0.46079   0.45087   0.05715   0.00000  Uiso   1.00
C473   C     0.47961   0.56876   0.06581   0.00000  Uiso   1.00
C474   C     0.40787   0.42474   0.11236   0.00000  Uiso   1.00
C475   C     0.40139   0.38413   0.00797   0.00000  Uiso   1.00
C476   C     0.38816   0.41768   0.94697   0.00000  Uiso   1.00
C477   C     0.38416   0.37079   0.85407   0.00000  Uiso   1.00
C478   C     0.40686   0.34916   0.19529   0.00000  Uiso   1.00
C479   C     0.39823   0.35333   0.29179   0.00000  Uiso   1.00
C480   C     0.39884   0.27701   0.35658   0.00000  Uiso   1.00
C481   C     0.42662   0.44297   0.09511   0.00000  Uiso   1.00
C482   C     0.43460   0.52600   0.10741   0.00000  Uiso   1.00
C483   C     0.45185   0.52865   0.08790   0.00000  Uiso   1.00
H484   H     0.43126   0.22135   0.03195   0.00000  Uiso   1.00
H485   H     0.41325   0.19945   0.86071   0.00000  Uiso   1.00
H486   H     0.42333   0.13511   0.20548   0.00000  Uiso   1.00
H487   H     0.45969   0.30775   0.02113   0.00000  Uiso   1.00
H488   H     0.38935   0.20939   0.68443   0.00000  Uiso   1.00
H489   H     0.41059   0.07374   0.41140   0.00000  Uiso   1.00
H490   H     0.48728   0.43779   0.02268   0.00000  Uiso   1.00
H491   H     0.40092   0.48519   0.13627   0.00000  Uiso   1.00
H492   H     0.38125   0.47777   0.97075   0.00000  Uiso   1.00
H493   H     0.39132   0.41342   0.31552   0.00000  Uiso   1.00
H494   H     0.42769   0.58607   0.13117   0.00000  Uiso   1.00
H495   H     0.36337   0.43528   0.77374   0.00000  Uiso   1.00
H496   H     0.38462   0.29963   0.50072   0.00000  Uiso   1.00
H497   H     0.46130   0.66368   0.11199   0.00000  Uiso   1.00
O498   O     0.36396   0.31267   0.61834   0.00000  Uiso   1.00
O499   O     0.39184   0.13471   0.57211   0.00000  Uiso   1.00
O500   O     0.49245   0.61234   0.06210   0.00000  Uiso   1.00
N501   N     0.38594   0.26358   0.72815   0.00000  Uiso   1.00
N502   N     0.40580   0.13675   0.40782   0.00000  Uiso   1.00
N503   N     0.47749   0.47710   0.04442   0.00000  Uiso   1.00
N504   N     0.37196   0.38513   0.77621   0.00000  Uiso   1.00
N505   N     0.39182   0.25830   0.45588   0.00000  Uiso   1.00
N506   N     0.46352   0.59865   0.09248   0.00000  Uiso   1.00
C507   C     0.42431   0.78180   0.55584   0.00000  Uiso   1.00
C508   C     0.41032   0.80649   0.47727   0.00000  Uiso   1.00
C509   C     0.40634   0.75953   0.38444   0.00000  Uiso   1.00
C510   C     0.39310   0.79301   0.32332   0.00000  Uiso   1.00
C511   C     0.37273   0.81951   0.19667   0.00000  Uiso   1.00
C512   C     0.41579   0.77153   0.66459   0.00000  Uiso   1.00
C513   C     0.41641   0.69518   0.72926   0.00000  Uiso   1.00
C514   C     0.40778   0.69923   0.82582   0.00000  Uiso   1.00
C515   C     0.39592   0.67147   0.99002   0.00000  Uiso   1.00
C516   C     0.43555   0.86533   0.56441   0.00000  Uiso   1.00
C517   C     0.45279   0.86785   0.54489   0.00000  Uiso   1.00
C518   C     0.46079   0.95087   0.55715   0.00000  Uiso   1.00
C519   C     0.47961   0.06876   0.56581   0.00000  Uiso   1.00
C520   C     0.40787   0.92474   0.61236   0.00000  Uiso   1.00
C521   C     0.40139   0.88413   0.50797   0.00000  Uiso   1.00
C522   C     0.38816   0.91768   0.44697   0.00000  Uiso   1.00
C523   C     0.38416   0.87079   0.35407   0.00000  Uiso   1.00
C524   C     0.40686   0.84916   0.69529   0.00000  Uiso   1.00
C525   C     0.39823   0.85333   0.79179   0.00000  Uiso   1.00
C526   C     0.39884   0.77701   0.85658   0.00000  Uiso   1.00
C527   C     0.42662   0.94297   0.59511   0.00000  Uiso   1.00
C528   C     0.43460   0.02600   0.60741   0.00000  Uiso   1.00
C529   C     0.45185   0.02865   0.58790   0.00000  Uiso   1.00
H530   H     0.43126   0.72135   0.53195   0.00000  Uiso   1.00
H531   H     0.41325   0.69945   0.36071   0.00000  Uiso   1.00
H532   H     0.42333   0.63511   0.70548   0.00000  Uiso   1.00
H533   H     0.45969   0.80775   0.52113   0.00000  Uiso   1.00
H534   H     0.38935   0.70939   0.18443   0.00000  Uiso   1.00
H535   H     0.41059   0.57374   0.91140   0.00000  Uiso   1.00
H536   H     0.48728   0.93779   0.52268   0.00000  Uiso   1.00
H537   H     0.40092   0.98519   0.63627   0.00000  Uiso   1.00
H538   H     0.38125   0.97777   0.47075   0.00000  Uiso   1.00
H539   H     0.39132   0.91342   0.81552   0.00000  Uiso   1.00
H540   H     0.42769   0.08607   0.63117   0.00000  Uiso   1.00
H541   H     0.36337   0.93528   0.27374   0.00000  Uiso   1.00
H542   H     0.38462   0.79963   0.00072   0.00000  Uiso   1.00
H543   H     0.46130   0.16368   0.61199   0.00000  Uiso   1.00
O544   O     0.36396   0.81267   0.11834   0.00000  Uiso   1.00
O545   O     0.39184   0.63471   0.07211   0.00000  Uiso   1.00
O546   O     0.49245   0.11234   0.56210   0.00000  Uiso   1.00
N547   N     0.38594   0.76358   0.22815   0.00000  Uiso   1.00
N548   N     0.40580   0.63675   0.90782   0.00000  Uiso   1.00
N549   N     0.47749   0.97710   0.54442   0.00000  Uiso   1.00
N550   N     0.37196   0.88513   0.27621   0.00000  Uiso   1.00
N551   N     0.39182   0.75830   0.95588   0.00000  Uiso   1.00
N552   N     0.46352   0.09865   0.59248   0.00000  Uiso   1.00
C553   C     0.57569   0.21820   0.55584   0.00000  Uiso   1.00
C554   C     0.58968   0.19351   0.47727   0.00000  Uiso   1.00
C555   C     0.59366   0.24047   0.38444   0.00000  Uiso   1.00
C556   C     0.60690   0.20699   0.32332   0.00000  Uiso   1.00
C557   C     0.62727   0.18049   0.19667   0.00000  Uiso   1.00
C558   C     0.58421   0.22847   0.66459   0.00000  Uiso   1.00
C559   C     0.58359   0.30482   0.72926   0.00000  Uiso   1.00
C560   C     0.59222   0.30077   0.82582   0.00000  Uiso   1.00
C561   C     0.60408   0.32853   0.99002   0.00000  Uiso   1.00
C562   C     0.56445   0.13467   0.56441   0.00000  Uiso   1.00
C563   C     0.54721   0.13215   0.54489   0.00000  Uiso   1.00
C564   C     0.53921   0.04913   0.55715   0.00000  Uiso   1.00
C565   C     0.52039   0.93124   0.56581   0.00000  Uiso   1.00
C566   C     0.59213   0.07526   0.61236   0.00000  Uiso   1.00
C567   C     0.59861   0.11587   0.50797   0.00000  Uiso   1.00
C568   C     0.61184   0.08232   0.44697   0.00000  Uiso   1.00
C569   C     0.61584   0.12921   0.35407   0.00000  Uiso   1.00
C570   C     0.59314   0.15084   0.69529   0.00000  Uiso   1.00
C571   C     0.60177   0.14667   0.79179   0.00000  Uiso   1.00
C572   C     0.60116   0.22299   0.85658   0.00000  Uiso   1.00
C573   C     0.57338   0.05703   0.59511   0.00000  Uiso   1.00
C574   C     0.56540   0.97400   0.60741   0.00000  Uiso   1.00
C575   C     0.54815   0.97135   0.58790   0.00000  Uiso   1.00
H576   H     0.56874   0.27865   0.53195   0.00000  Uiso   1.00
H577   H     0.58675   0.30055   0.36071   0.00000  Uiso   1.00
H578   H     0.57667   0.36489   0.70548   0.00000  Uiso   1.00
H579   H     0.54031   0.19225   0.52113   0.00000  Uiso   1.00
H580   H     0.61065   0.29061   0.18443   0.00000  Uiso   1.00
H581   H     0.58941   0.42626   0.91140   0.00000  Uiso   1.00
H582   H     0.51272   0.06221   0.52268   0.00000  Uiso   1.00
H583   H     0.59908   0.01481   0.63627   0.00000  Uiso   1.00
H584   H     0.61875   0.02223   0.47075   0.00000  Uiso   1.00
H585   H     0.60868   0.08658   0.81552   0.00000  Uiso   1.00
H586   H     0.57231   0.91393   0.63117   0.00000  Uiso   1.00
H587   H     0.63663   0.06472   0.27374   0.00000  Uiso   1.00
H588   H     0.61538   0.20037   0.00072   0.00000  Uiso   1.00
H589   H     0.53870   0.83632   0.61199   0.00000  Uiso   1.00
O590   O     0.63604   0.18733   0.11834   0.00000  Uiso   1.00
O591   O     0.60816   0.36529   0.07211   0.00000  Uiso   1.00
O592   O     0.50755   0.88766   0.56210   0.00000  Uiso   1.00
N593   N     0.61406   0.23642   0.22815   0.00000  Uiso   1.00
N594   N     0.59420   0.36325   0.90782   0.00000  Uiso   1.00
N595   N     0.52251   0.02290   0.54442   0.00000  Uiso   1.00
N596   N     0.62804   0.11487   0.27621   0.00000  Uiso   1.00
N597   N     0.60818   0.24170   0.95588   0.00000  Uiso   1.00
N598   N     0.53648   0.90135   0.59248   0.00000  Uiso   1.00
C599   C     0.57569   0.71820   0.05584   0.00000  Uiso   1.00
C600   C     0.58968   0.69351   0.97727   0.00000  Uiso   1.00
C601   C     0.59366   0.74047   0.88444   0.00000  Uiso   1.00
C602   C     0.60690   0.70699   0.82332   0.00000  Uiso   1.00
C603   C     0.62727   0.68049   0.69667   0.00000  Uiso   1.00
C604   C     0.58421   0.72847   0.16459   0.00000  Uiso   1.00
C605   C     0.58359   0.80482   0.22926   0.00000  Uiso   1.00
C606   C     0.59222   0.80077   0.32582   0.00000  Uiso   1.00
C607   C     0.60408   0.82853   0.49002   0.00000  Uiso   1.00
C608   C     0.56445   0.63467   0.06441   0.00000  Uiso   1.00
C609   C     0.54721   0.63215   0.04489   0.00000  Uiso   1.00
C610   C     0.53921   0.54913   0.05715   0.00000  Uiso   1.00
C611   C     0.52039   0.43124   0.06581   0.00000  Uiso   1.00
C612   C     0.59213   0.57526   0.11236   0.00000  Uiso   1.00
C613   C     0.59861   0.61587   0.00797   0.00000  Uiso   1.00
C614   C     0.61184   0.58232   0.94697   0.00000  Uiso   1.00
C615   C     0.61584   0.62921   0.85407   0.00000  Uiso   1.00
C616   C     0.59314   0.65084   0.19529   0.00000  Uiso   1.00
C617   C     0.60177   0.64667   0.29179   0.00000  Uiso   1.00
C618   C     0.60116   0.72299   0.35658   0.00000  Uiso   1.00
C619   C     0.57338   0.55703   0.09511   0.00000  Uiso   1.00
C620   C     0.56540   0.47400   0.10741   0.00000  Uiso   1.00
C621   C     0.54815   0.47135   0.08790   0.00000  Uiso   1.00
H622   H     0.56874   0.77865   0.03195   0.00000  Uiso   1.00
H623   H     0.58675   0.80055   0.86071   0.00000  Uiso   1.00
H624   H     0.57667   0.86489   0.20548   0.00000  Uiso   1.00
H625   H     0.54031   0.69225   0.02113   0.00000  Uiso   1.00
H626   H     0.61065   0.79061   0.68443   0.00000  Uiso   1.00
H627   H     0.58941   0.92626   0.41140   0.00000  Uiso   1.00
H628   H     0.51272   0.56221   0.02268   0.00000  Uiso   1.00
H629   H     0.59908   0.51481   0.13627   0.00000  Uiso   1.00
H630   H     0.61875   0.52223   0.97075   0.00000  Uiso   1.00
H631   H     0.60868   0.58658   0.31552   0.00000  Uiso   1.00
H632   H     0.57231   0.41393   0.13117   0.00000  Uiso   1.00
H633   H     0.63663   0.56472   0.77374   0.00000  Uiso   1.00
H634   H     0.61538   0.70037   0.50072   0.00000  Uiso   1.00
H635   H     0.53870   0.33632   0.11199   0.00000  Uiso   1.00
O636   O     0.63604   0.68733   0.61834   0.00000  Uiso   1.00
O637   O     0.60816   0.86529   0.57211   0.00000  Uiso   1.00
O638   O     0.50755   0.38766   0.06210   0.00000  Uiso   1.00
N639   N     0.61406   0.73642   0.72815   0.00000  Uiso   1.00
N640   N     0.59420   0.86325   0.40782   0.00000  Uiso   1.00
N641   N     0.52251   0.52290   0.04442   0.00000  Uiso   1.00
N642   N     0.62804   0.61487   0.77621   0.00000  Uiso   1.00
N643   N     0.60818   0.74170   0.45588   0.00000  Uiso   1.00
N644   N     0.53648   0.40135   0.09248   0.00000  Uiso   1.00
C645   C     0.07569   0.21820   0.05584   0.00000  Uiso   1.00
C646   C     0.08968   0.19351   0.97727   0.00000  Uiso   1.00
C647   C     0.09366   0.24047   0.88444   0.00000  Uiso   1.00
C648   C     0.10690   0.20699   0.82332   0.00000  Uiso   1.00
C649   C     0.12727   0.18049   0.69667   0.00000  Uiso   1.00
C650   C     0.08421   0.22847   0.16459   0.00000  Uiso   1.00
C651   C     0.08359   0.30482   0.22926   0.00000  Uiso   1.00
C652   C     0.09222   0.30077   0.32582   0.00000  Uiso   1.00
C653   C     0.10408   0.32853   0.49002   0.00000  Uiso   1.00
C654   C     0.06445   0.13467   0.06441   0.00000  Uiso   1.00
C655   C     0.04721   0.13215   0.04489   0.00000  Uiso   1.00
C656   C     0.03921   0.04913   0.05715   0.00000  Uiso   1.00
C657   C     0.02039   0.93124   0.06581   0.00000  Uiso   1.00
C658   C     0.09213   0.07526   0.11236   0.00000  Uiso   1.00
C659   C     0.09861   0.11587   0.00797   0.00000  Uiso   1.00
C660   C     0.11184   0.08232   0.94697   0.00000  Uiso   1.00
C661   C     0.11584   0.12921   0.85407   0.00000  Uiso   1.00
C662   C     0.09314   0.15084   0.19529   0.00000  Uiso   1.00
C663   C     0.10177   0.14667   0.29179   0.00000  Uiso   1.00
C664   C     0.10116   0.22299   0.35658   0.00000  Uiso   1.00
C665   C     0.07338   0.05703   0.09511   0.00000  Uiso   1.00
C666   C     0.06540   0.97400   0.10741   0.00000  Uiso   1.00
C667   C     0.04815   0.97135   0.08790   0.00000  Uiso   1.00
H668   H     0.06874   0.27865   0.03195   0.00000  Uiso   1.00
H669   H     0.08675   0.30055   0.86071   0.00000  Uiso   1.00
H670   H     0.07667   0.36489   0.20548   0.00000  Uiso   1.00
H671   H     0.04031   0.19225   0.02113   0.00000  Uiso   1.00
H672   H     0.11065   0.29061   0.68443   0.00000  Uiso   1.00
H673   H     0.08941   0.42626   0.41140   0.00000  Uiso   1.00
H674   H     0.01272   0.06221   0.02268   0.00000  Uiso   1.00
H675   H     0.09908   0.01481   0.13627   0.00000  Uiso   1.00
H676   H     0.11875   0.02223   0.97075   0.00000  Uiso   1.00
H677   H     0.10868   0.08658   0.31552   0.00000  Uiso   1.00
H678   H     0.07231   0.91393   0.13117   0.00000  Uiso   1.00
H679   H     0.13663   0.06472   0.77374   0.00000  Uiso   1.00
H680   H     0.11538   0.20037   0.50072   0.00000  Uiso   1.00
H681   H     0.03870   0.83632   0.11199   0.00000  Uiso   1.00
O682   O     0.13604   0.18733   0.61834   0.00000  Uiso   1.00
O683   O     0.10816   0.36529   0.57211   0.00000  Uiso   1.00
O684   O     0.00755   0.88766   0.06210   0.00000  Uiso   1.00
N685   N     0.11406   0.23642   0.72815   0.00000  Uiso   1.00
N686   N     0.09420   0.36325   0.40782   0.00000  Uiso   1.00
N687   N     0.02251   0.02290   0.04442   0.00000  Uiso   1.00
N688   N     0.12804   0.11487   0.77621   0.00000  Uiso   1.00
N689   N     0.10818   0.24170   0.45588   0.00000  Uiso   1.00
N690   N     0.03648   0.90135   0.09248   0.00000  Uiso   1.00
C691   C     0.07569   0.71820   0.55584   0.00000  Uiso   1.00
C692   C     0.08968   0.69351   0.47727   0.00000  Uiso   1.00
C693   C     0.09366   0.74047   0.38444   0.00000  Uiso   1.00
C694   C     0.10690   0.70699   0.32332   0.00000  Uiso   1.00
C695   C     0.12727   0.68049   0.19667   0.00000  Uiso   1.00
C696   C     0.08421   0.72847   0.66459   0.00000  Uiso   1.00
C697   C     0.08359   0.80482   0.72926   0.00000  Uiso   1.00
C698   C     0.09222   0.80077   0.82582   0.00000  Uiso   1.00
C699   C     0.10408   0.82853   0.99002   0.00000  Uiso   1.00
C700   C     0.06445   0.63467   0.56441   0.00000  Uiso   1.00
C701   C     0.04721   0.63215   0.54489   0.00000  Uiso   1.00
C702   C     0.03921   0.54913   0.55715   0.00000  Uiso   1.00
C703   C     0.02039   0.43124   0.56581   0.00000  Uiso   1.00
C704   C     0.09213   0.57526   0.61236   0.00000  Uiso   1.00
C705   C     0.09861   0.61587   0.50797   0.00000  Uiso   1.00
C706   C     0.11184   0.58232   0.44697   0.00000  Uiso   1.00
C707   C     0.11584   0.62921   0.35407   0.00000  Uiso   1.00
C708   C     0.09314   0.65084   0.69529   0.00000  Uiso   1.00
C709   C     0.10177   0.64667   0.79179   0.00000  Uiso   1.00
C710   C     0.10116   0.72299   0.85658   0.00000  Uiso   1.00
C711   C     0.07338   0.55703   0.59511   0.00000  Uiso   1.00
C712   C     0.06540   0.47400   0.60741   0.00000  Uiso   1.00
C713   C     0.04815   0.47135   0.58790   0.00000  Uiso   1.00
H714   H     0.06874   0.77865   0.53195   0.00000  Uiso   1.00
H715   H     0.08675   0.80055   0.36071   0.00000  Uiso   1.00
H716   H     0.07667   0.86489   0.70548   0.00000  Uiso   1.00
H717   H     0.04031   0.69225   0.52113   0.00000  Uiso   1.00
H718   H     0.11065   0.79061   0.18443   0.00000  Uiso   1.00
H719   H     0.08941   0.92626   0.91140   0.00000  Uiso   1.00
H720   H     0.01272   0.56221   0.52268   0.00000  Uiso   1.00
H721   H     0.09908   0.51481   0.63627   0.00000  Uiso   1.00
H722   H     0.11875   0.52223   0.47075   0.00000  Uiso   1.00
H723   H     0.10868   0.58658   0.81552   0.00000  Uiso   1.00
H724   H     0.07231   0.41393   0.63117   0.00000  Uiso   1.00
H725   H     0.13663   0.56472   0.27374   0.00000  Uiso   1.00
H726   H     0.11538   0.70037   0.00072   0.00000  Uiso   1.00
H727   H     0.03870   0.33632   0.61199   0.00000  Uiso   1.00
O728   O     0.13604   0.68733   0.11834   0.00000  Uiso   1.00
O729   O     0.10816   0.86529   0.07211   0.00000  Uiso   1.00
O730   O     0.00755   0.38766   0.56210   0.00000  Uiso   1.00
N731   N     0.11406   0.73642   0.22815   0.00000  Uiso   1.00
N732   N     0.09420   0.86325   0.90782   0.00000  Uiso   1.00
N733   N     0.02251   0.52290   0.54442   0.00000  Uiso   1.00
N734   N     0.12804   0.61487   0.27621   0.00000  Uiso   1.00
N735   N     0.10818   0.74170   0.95588   0.00000  Uiso   1.00
N736   N     0.03648   0.40135   0.59248   0.00000  Uiso   1.00
