data_job_02757
_audit_creation_date              2018-12-19
_audit_creation_method            'Materials Studio'
_symmetry_space_group_name_H-M    'P1'
_symmetry_Int_Tables_number       1
_symmetry_cell_setting            triclinic
loop_
_symmetry_equiv_pos_as_xyz
  x,y,z
_cell_length_a                    23.1827
_cell_length_b                    16.5487
_cell_length_c                    24.5034
_cell_angle_alpha                 90.0000
_cell_angle_beta                  90.0000
_cell_angle_gamma                 90.0000
loop_
_atom_site_label
_atom_site_type_symbol
_atom_site_fract_x
_atom_site_fract_y
_atom_site_fract_z
_atom_site_U_iso_or_equiv
_atom_site_adp_type
_atom_site_occupancy
C1     C     0.37513   0.77774   0.65516   0.00000  Uiso   1.00
C2     C     0.43629   0.80893   0.64614   0.00000  Uiso   1.00
C3     C     0.46594   0.86124   0.68037   0.00000  Uiso   1.00
C4     C     0.52150   0.88262   0.66493   0.00000  Uiso   1.00
C5     C     0.61266   0.93562   0.65820   0.00000  Uiso   1.00
C6     C     0.34120   0.80077   0.60417   0.00000  Uiso   1.00
C7     C     0.29089   0.84622   0.60312   0.00000  Uiso   1.00
C8     C     0.26641   0.86072   0.55234   0.00000  Uiso   1.00
C9     C     0.20991   0.90101   0.48046   0.00000  Uiso   1.00
C10    C     0.37939   0.68579   0.65466   0.00000  Uiso   1.00
C11    C     0.36118   0.63456   0.69606   0.00000  Uiso   1.00
C12    C     0.36884   0.55225   0.68779   0.00000  Uiso   1.00
C13    C     0.37164   0.41402   0.69430   0.00000  Uiso   1.00
C14    C     0.42108   0.72267   0.56685   0.00000  Uiso   1.00
C15    C     0.46124   0.77902   0.59817   0.00000  Uiso   1.00
C16    C     0.51678   0.80031   0.58267   0.00000  Uiso   1.00
C17    C     0.54651   0.85265   0.61688   0.00000  Uiso   1.00
C18    C     0.36615   0.77086   0.55620   0.00000  Uiso   1.00
C19    C     0.34173   0.78529   0.50541   0.00000  Uiso   1.00
C20    C     0.29141   0.83076   0.50429   0.00000  Uiso   1.00
C21    C     0.40435   0.65588   0.60669   0.00000  Uiso   1.00
C22    C     0.41203   0.57364   0.59835   0.00000  Uiso   1.00
C23    C     0.39384   0.52229   0.63973   0.00000  Uiso   1.00
H24    H     0.35569   0.80103   0.69250   0.00000  Uiso   1.00
H25    H     0.44661   0.88438   0.71749   0.00000  Uiso   1.00
H26    H     0.27159   0.86935   0.64024   0.00000  Uiso   1.00
H27    H     0.34187   0.65773   0.73317   0.00000  Uiso   1.00
H28    H     0.55840   0.96362   0.72403   0.00000  Uiso   1.00
H29    H     0.18935   0.93191   0.56116   0.00000  Uiso   1.00
H30    H     0.33755   0.48566   0.75711   0.00000  Uiso   1.00
H31    H     0.44051   0.69938   0.52950   0.00000  Uiso   1.00
H32    H     0.53608   0.77716   0.54555   0.00000  Uiso   1.00
H33    H     0.36106   0.76213   0.46830   0.00000  Uiso   1.00
H34    H     0.43134   0.55051   0.56123   0.00000  Uiso   1.00
H35    H     0.63102   0.87660   0.58447   0.00000  Uiso   1.00
H36    H     0.26197   0.84489   0.42160   0.00000  Uiso   1.00
H37    H     0.41017   0.39864   0.61756   0.00000  Uiso   1.00
O38    O     0.65604   0.97313   0.66774   0.00000  Uiso   1.00
O39    O     0.17186   0.93151   0.45406   0.00000  Uiso   1.00
O40    O     0.36630   0.34604   0.71114   0.00000  Uiso   1.00
N41    N     0.56238   0.93246   0.68899   0.00000  Uiso   1.00
N42    N     0.21735   0.90282   0.53671   0.00000  Uiso   1.00
N43    N     0.35589   0.48561   0.71991   0.00000  Uiso   1.00
N44    N     0.60146   0.88563   0.61390   0.00000  Uiso   1.00
N45    N     0.25642   0.85599   0.46162   0.00000  Uiso   1.00
N46    N     0.39496   0.43878   0.64481   0.00000  Uiso   1.00
C47    C     0.87513   0.27774   0.65516   0.00000  Uiso   1.00
C48    C     0.93629   0.30893   0.64614   0.00000  Uiso   1.00
C49    C     0.96594   0.36124   0.68037   0.00000  Uiso   1.00
C50    C     0.02150   0.38262   0.66493   0.00000  Uiso   1.00
C51    C     0.11266   0.43562   0.65820   0.00000  Uiso   1.00
C52    C     0.84120   0.30077   0.60417   0.00000  Uiso   1.00
C53    C     0.79089   0.34622   0.60312   0.00000  Uiso   1.00
C54    C     0.76641   0.36072   0.55234   0.00000  Uiso   1.00
C55    C     0.70991   0.40101   0.48046   0.00000  Uiso   1.00
C56    C     0.87939   0.18579   0.65466   0.00000  Uiso   1.00
C57    C     0.86118   0.13456   0.69606   0.00000  Uiso   1.00
C58    C     0.86884   0.05225   0.68779   0.00000  Uiso   1.00
C59    C     0.87164   0.91402   0.69430   0.00000  Uiso   1.00
C60    C     0.92108   0.22267   0.56685   0.00000  Uiso   1.00
C61    C     0.96124   0.27902   0.59817   0.00000  Uiso   1.00
C62    C     0.01678   0.30031   0.58267   0.00000  Uiso   1.00
C63    C     0.04651   0.35265   0.61688   0.00000  Uiso   1.00
C64    C     0.86615   0.27086   0.55620   0.00000  Uiso   1.00
C65    C     0.84173   0.28529   0.50541   0.00000  Uiso   1.00
C66    C     0.79141   0.33076   0.50429   0.00000  Uiso   1.00
C67    C     0.90435   0.15588   0.60669   0.00000  Uiso   1.00
C68    C     0.91203   0.07364   0.59835   0.00000  Uiso   1.00
C69    C     0.89384   0.02229   0.63973   0.00000  Uiso   1.00
H70    H     0.85569   0.30103   0.69250   0.00000  Uiso   1.00
H71    H     0.94661   0.38438   0.71749   0.00000  Uiso   1.00
H72    H     0.77159   0.36935   0.64024   0.00000  Uiso   1.00
H73    H     0.84187   0.15773   0.73317   0.00000  Uiso   1.00
H74    H     0.05840   0.46362   0.72403   0.00000  Uiso   1.00
H75    H     0.68935   0.43191   0.56116   0.00000  Uiso   1.00
H76    H     0.83755   0.98566   0.75711   0.00000  Uiso   1.00
H77    H     0.94051   0.19938   0.52950   0.00000  Uiso   1.00
H78    H     0.03608   0.27716   0.54555   0.00000  Uiso   1.00
H79    H     0.86106   0.26213   0.46830   0.00000  Uiso   1.00
H80    H     0.93134   0.05051   0.56123   0.00000  Uiso   1.00
H81    H     0.13102   0.37660   0.58447   0.00000  Uiso   1.00
H82    H     0.76197   0.34489   0.42160   0.00000  Uiso   1.00
H83    H     0.91017   0.89864   0.61756   0.00000  Uiso   1.00
O84    O     0.15604   0.47313   0.66774   0.00000  Uiso   1.00
O85    O     0.67186   0.43151   0.45406   0.00000  Uiso   1.00
O86    O     0.86630   0.84604   0.71114   0.00000  Uiso   1.00
N87    N     0.06238   0.43246   0.68899   0.00000  Uiso   1.00
N88    N     0.71735   0.40282   0.53671   0.00000  Uiso   1.00
N89    N     0.85589   0.98561   0.71991   0.00000  Uiso   1.00
N90    N     0.10146   0.38563   0.61390   0.00000  Uiso   1.00
N91    N     0.75642   0.35599   0.46162   0.00000  Uiso   1.00
N92    N     0.89496   0.93878   0.64481   0.00000  Uiso   1.00
C93    C     0.12487   0.72226   0.65516   0.00000  Uiso   1.00
C94    C     0.06371   0.69107   0.64614   0.00000  Uiso   1.00
C95    C     0.03406   0.63876   0.68037   0.00000  Uiso   1.00
C96    C     0.97850   0.61738   0.66493   0.00000  Uiso   1.00
C97    C     0.88734   0.56438   0.65820   0.00000  Uiso   1.00
C98    C     0.15880   0.69923   0.60417   0.00000  Uiso   1.00
C99    C     0.20911   0.65378   0.60312   0.00000  Uiso   1.00
C100   C     0.23359   0.63928   0.55234   0.00000  Uiso   1.00
C101   C     0.29009   0.59899   0.48046   0.00000  Uiso   1.00
C102   C     0.12061   0.81421   0.65466   0.00000  Uiso   1.00
C103   C     0.13882   0.86544   0.69606   0.00000  Uiso   1.00
C104   C     0.13116   0.94775   0.68779   0.00000  Uiso   1.00
C105   C     0.12836   0.08598   0.69430   0.00000  Uiso   1.00
C106   C     0.07892   0.77733   0.56685   0.00000  Uiso   1.00
C107   C     0.03876   0.72098   0.59817   0.00000  Uiso   1.00
C108   C     0.98322   0.69969   0.58267   0.00000  Uiso   1.00
C109   C     0.95349   0.64735   0.61688   0.00000  Uiso   1.00
C110   C     0.13385   0.72914   0.55620   0.00000  Uiso   1.00
C111   C     0.15827   0.71471   0.50541   0.00000  Uiso   1.00
C112   C     0.20859   0.66924   0.50429   0.00000  Uiso   1.00
C113   C     0.09565   0.84412   0.60669   0.00000  Uiso   1.00
C114   C     0.08797   0.92636   0.59835   0.00000  Uiso   1.00
C115   C     0.10616   0.97771   0.63973   0.00000  Uiso   1.00
H116   H     0.14431   0.69897   0.69250   0.00000  Uiso   1.00
H117   H     0.05339   0.61562   0.71749   0.00000  Uiso   1.00
H118   H     0.22841   0.63065   0.64024   0.00000  Uiso   1.00
H119   H     0.15813   0.84227   0.73317   0.00000  Uiso   1.00
H120   H     0.94160   0.53638   0.72403   0.00000  Uiso   1.00
H121   H     0.31065   0.56809   0.56116   0.00000  Uiso   1.00
H122   H     0.16245   0.01434   0.75711   0.00000  Uiso   1.00
H123   H     0.05949   0.80062   0.52950   0.00000  Uiso   1.00
H124   H     0.96392   0.72284   0.54555   0.00000  Uiso   1.00
H125   H     0.13894   0.73787   0.46830   0.00000  Uiso   1.00
H126   H     0.06866   0.94949   0.56123   0.00000  Uiso   1.00
H127   H     0.86898   0.62340   0.58447   0.00000  Uiso   1.00
H128   H     0.23803   0.65511   0.42160   0.00000  Uiso   1.00
H129   H     0.08983   0.10136   0.61756   0.00000  Uiso   1.00
O130   O     0.84396   0.52687   0.66774   0.00000  Uiso   1.00
O131   O     0.32814   0.56849   0.45406   0.00000  Uiso   1.00
O132   O     0.13370   0.15396   0.71114   0.00000  Uiso   1.00
N133   N     0.93762   0.56754   0.68899   0.00000  Uiso   1.00
N134   N     0.28265   0.59718   0.53671   0.00000  Uiso   1.00
N135   N     0.14411   0.01439   0.71991   0.00000  Uiso   1.00
N136   N     0.89854   0.61437   0.61390   0.00000  Uiso   1.00
N137   N     0.24358   0.64401   0.46162   0.00000  Uiso   1.00
N138   N     0.10504   0.06122   0.64481   0.00000  Uiso   1.00
C139   C     0.62487   0.22226   0.65516   0.00000  Uiso   1.00
C140   C     0.56371   0.19107   0.64614   0.00000  Uiso   1.00
C141   C     0.53406   0.13876   0.68037   0.00000  Uiso   1.00
C142   C     0.47850   0.11738   0.66493   0.00000  Uiso   1.00
C143   C     0.38734   0.06438   0.65820   0.00000  Uiso   1.00
C144   C     0.65880   0.19923   0.60417   0.00000  Uiso   1.00
C145   C     0.70911   0.15378   0.60312   0.00000  Uiso   1.00
C146   C     0.73359   0.13928   0.55234   0.00000  Uiso   1.00
C147   C     0.79009   0.09899   0.48046   0.00000  Uiso   1.00
C148   C     0.62061   0.31421   0.65466   0.00000  Uiso   1.00
C149   C     0.63882   0.36544   0.69606   0.00000  Uiso   1.00
C150   C     0.63116   0.44775   0.68779   0.00000  Uiso   1.00
C151   C     0.62836   0.58598   0.69430   0.00000  Uiso   1.00
C152   C     0.57892   0.27733   0.56685   0.00000  Uiso   1.00
C153   C     0.53876   0.22098   0.59817   0.00000  Uiso   1.00
C154   C     0.48322   0.19969   0.58267   0.00000  Uiso   1.00
C155   C     0.45349   0.14735   0.61688   0.00000  Uiso   1.00
C156   C     0.63385   0.22914   0.55620   0.00000  Uiso   1.00
C157   C     0.65827   0.21471   0.50541   0.00000  Uiso   1.00
C158   C     0.70859   0.16924   0.50429   0.00000  Uiso   1.00
C159   C     0.59565   0.34412   0.60669   0.00000  Uiso   1.00
C160   C     0.58797   0.42636   0.59835   0.00000  Uiso   1.00
C161   C     0.60616   0.47771   0.63973   0.00000  Uiso   1.00
H162   H     0.64431   0.19897   0.69250   0.00000  Uiso   1.00
H163   H     0.55339   0.11562   0.71749   0.00000  Uiso   1.00
H164   H     0.72841   0.13065   0.64024   0.00000  Uiso   1.00
H165   H     0.65813   0.34227   0.73317   0.00000  Uiso   1.00
H166   H     0.44160   0.03638   0.72403   0.00000  Uiso   1.00
H167   H     0.81065   0.06809   0.56116   0.00000  Uiso   1.00
H168   H     0.66245   0.51434   0.75711   0.00000  Uiso   1.00
H169   H     0.55949   0.30062   0.52950   0.00000  Uiso   1.00
H170   H     0.46392   0.22284   0.54555   0.00000  Uiso   1.00
H171   H     0.63894   0.23787   0.46830   0.00000  Uiso   1.00
H172   H     0.56866   0.44949   0.56123   0.00000  Uiso   1.00
H173   H     0.36898   0.12340   0.58447   0.00000  Uiso   1.00
H174   H     0.73803   0.15511   0.42160   0.00000  Uiso   1.00
H175   H     0.58983   0.60136   0.61756   0.00000  Uiso   1.00
O176   O     0.34396   0.02687   0.66774   0.00000  Uiso   1.00
O177   O     0.82814   0.06849   0.45406   0.00000  Uiso   1.00
O178   O     0.63370   0.65396   0.71114   0.00000  Uiso   1.00
N179   N     0.43762   0.06754   0.68899   0.00000  Uiso   1.00
N180   N     0.78265   0.09718   0.53671   0.00000  Uiso   1.00
N181   N     0.64411   0.51439   0.71991   0.00000  Uiso   1.00
N182   N     0.39854   0.11437   0.61390   0.00000  Uiso   1.00
N183   N     0.74358   0.14401   0.46162   0.00000  Uiso   1.00
N184   N     0.60504   0.56122   0.64481   0.00000  Uiso   1.00
C185   C     0.62487   0.77774   0.34484   0.00000  Uiso   1.00
C186   C     0.56371   0.80893   0.35386   0.00000  Uiso   1.00
C187   C     0.53406   0.86124   0.31963   0.00000  Uiso   1.00
C188   C     0.47850   0.88262   0.33507   0.00000  Uiso   1.00
C189   C     0.38734   0.93562   0.34180   0.00000  Uiso   1.00
C190   C     0.65880   0.80077   0.39583   0.00000  Uiso   1.00
C191   C     0.70911   0.84622   0.39688   0.00000  Uiso   1.00
C192   C     0.73359   0.86072   0.44766   0.00000  Uiso   1.00
C193   C     0.79009   0.90101   0.51954   0.00000  Uiso   1.00
C194   C     0.62061   0.68579   0.34534   0.00000  Uiso   1.00
C195   C     0.63882   0.63456   0.30394   0.00000  Uiso   1.00
C196   C     0.63116   0.55225   0.31221   0.00000  Uiso   1.00
C197   C     0.62836   0.41402   0.30570   0.00000  Uiso   1.00
C198   C     0.57892   0.72267   0.43315   0.00000  Uiso   1.00
C199   C     0.53876   0.77902   0.40183   0.00000  Uiso   1.00
C200   C     0.48322   0.80031   0.41733   0.00000  Uiso   1.00
C201   C     0.45349   0.85265   0.38312   0.00000  Uiso   1.00
C202   C     0.63385   0.77086   0.44380   0.00000  Uiso   1.00
C203   C     0.65827   0.78529   0.49459   0.00000  Uiso   1.00
C204   C     0.70859   0.83076   0.49571   0.00000  Uiso   1.00
C205   C     0.59565   0.65588   0.39331   0.00000  Uiso   1.00
C206   C     0.58797   0.57364   0.40165   0.00000  Uiso   1.00
C207   C     0.60616   0.52229   0.36027   0.00000  Uiso   1.00
H208   H     0.64431   0.80103   0.30750   0.00000  Uiso   1.00
H209   H     0.55339   0.88438   0.28251   0.00000  Uiso   1.00
H210   H     0.72841   0.86935   0.35976   0.00000  Uiso   1.00
H211   H     0.65813   0.65773   0.26683   0.00000  Uiso   1.00
H212   H     0.44160   0.96362   0.27597   0.00000  Uiso   1.00
H213   H     0.81065   0.93191   0.43884   0.00000  Uiso   1.00
H214   H     0.66245   0.48566   0.24289   0.00000  Uiso   1.00
H215   H     0.55949   0.69938   0.47050   0.00000  Uiso   1.00
H216   H     0.46392   0.77716   0.45445   0.00000  Uiso   1.00
H217   H     0.63894   0.76213   0.53170   0.00000  Uiso   1.00
H218   H     0.56866   0.55051   0.43877   0.00000  Uiso   1.00
H219   H     0.36898   0.87660   0.41553   0.00000  Uiso   1.00
H220   H     0.73803   0.84489   0.57840   0.00000  Uiso   1.00
H221   H     0.58983   0.39864   0.38244   0.00000  Uiso   1.00
O222   O     0.34396   0.97313   0.33226   0.00000  Uiso   1.00
O223   O     0.82814   0.93151   0.54594   0.00000  Uiso   1.00
O224   O     0.63370   0.34604   0.28886   0.00000  Uiso   1.00
N225   N     0.43762   0.93246   0.31101   0.00000  Uiso   1.00
N226   N     0.78265   0.90282   0.46329   0.00000  Uiso   1.00
N227   N     0.64411   0.48561   0.28009   0.00000  Uiso   1.00
N228   N     0.39854   0.88563   0.38610   0.00000  Uiso   1.00
N229   N     0.74358   0.85599   0.53838   0.00000  Uiso   1.00
N230   N     0.60504   0.43878   0.35519   0.00000  Uiso   1.00
C231   C     0.12487   0.27774   0.34484   0.00000  Uiso   1.00
C232   C     0.06371   0.30893   0.35386   0.00000  Uiso   1.00
C233   C     0.03406   0.36124   0.31963   0.00000  Uiso   1.00
C234   C     0.97850   0.38262   0.33507   0.00000  Uiso   1.00
C235   C     0.88734   0.43562   0.34180   0.00000  Uiso   1.00
C236   C     0.15880   0.30077   0.39583   0.00000  Uiso   1.00
C237   C     0.20911   0.34622   0.39688   0.00000  Uiso   1.00
C238   C     0.23359   0.36072   0.44766   0.00000  Uiso   1.00
C239   C     0.29009   0.40101   0.51954   0.00000  Uiso   1.00
C240   C     0.12061   0.18579   0.34534   0.00000  Uiso   1.00
C241   C     0.13882   0.13456   0.30394   0.00000  Uiso   1.00
C242   C     0.13116   0.05225   0.31221   0.00000  Uiso   1.00
C243   C     0.12836   0.91402   0.30570   0.00000  Uiso   1.00
C244   C     0.07892   0.22267   0.43315   0.00000  Uiso   1.00
C245   C     0.03876   0.27902   0.40183   0.00000  Uiso   1.00
C246   C     0.98322   0.30031   0.41733   0.00000  Uiso   1.00
C247   C     0.95349   0.35265   0.38312   0.00000  Uiso   1.00
C248   C     0.13385   0.27086   0.44380   0.00000  Uiso   1.00
C249   C     0.15827   0.28529   0.49459   0.00000  Uiso   1.00
C250   C     0.20859   0.33076   0.49571   0.00000  Uiso   1.00
C251   C     0.09565   0.15588   0.39331   0.00000  Uiso   1.00
C252   C     0.08797   0.07364   0.40165   0.00000  Uiso   1.00
C253   C     0.10616   0.02229   0.36027   0.00000  Uiso   1.00
H254   H     0.14431   0.30103   0.30750   0.00000  Uiso   1.00
H255   H     0.05339   0.38438   0.28251   0.00000  Uiso   1.00
H256   H     0.22841   0.36935   0.35976   0.00000  Uiso   1.00
H257   H     0.15813   0.15773   0.26683   0.00000  Uiso   1.00
H258   H     0.94160   0.46362   0.27597   0.00000  Uiso   1.00
H259   H     0.31065   0.43191   0.43884   0.00000  Uiso   1.00
H260   H     0.16245   0.98566   0.24289   0.00000  Uiso   1.00
H261   H     0.05949   0.19938   0.47050   0.00000  Uiso   1.00
H262   H     0.96392   0.27716   0.45445   0.00000  Uiso   1.00
H263   H     0.13894   0.26213   0.53170   0.00000  Uiso   1.00
H264   H     0.06866   0.05051   0.43877   0.00000  Uiso   1.00
H265   H     0.86898   0.37660   0.41553   0.00000  Uiso   1.00
H266   H     0.23803   0.34489   0.57840   0.00000  Uiso   1.00
H267   H     0.08983   0.89864   0.38244   0.00000  Uiso   1.00
O268   O     0.84396   0.47313   0.33226   0.00000  Uiso   1.00
O269   O     0.32814   0.43151   0.54594   0.00000  Uiso   1.00
O270   O     0.13370   0.84604   0.28886   0.00000  Uiso   1.00
N271   N     0.93762   0.43246   0.31101   0.00000  Uiso   1.00
N272   N     0.28265   0.40282   0.46329   0.00000  Uiso   1.00
N273   N     0.14411   0.98561   0.28009   0.00000  Uiso   1.00
N274   N     0.89854   0.38563   0.38610   0.00000  Uiso   1.00
N275   N     0.24358   0.35599   0.53838   0.00000  Uiso   1.00
N276   N     0.10504   0.93878   0.35519   0.00000  Uiso   1.00
C277   C     0.87513   0.72226   0.34484   0.00000  Uiso   1.00
C278   C     0.93629   0.69107   0.35386   0.00000  Uiso   1.00
C279   C     0.96594   0.63876   0.31963   0.00000  Uiso   1.00
C280   C     0.02150   0.61738   0.33507   0.00000  Uiso   1.00
C281   C     0.11266   0.56438   0.34180   0.00000  Uiso   1.00
C282   C     0.84120   0.69923   0.39583   0.00000  Uiso   1.00
C283   C     0.79089   0.65378   0.39688   0.00000  Uiso   1.00
C284   C     0.76641   0.63928   0.44766   0.00000  Uiso   1.00
C285   C     0.70991   0.59899   0.51954   0.00000  Uiso   1.00
C286   C     0.87939   0.81421   0.34534   0.00000  Uiso   1.00
C287   C     0.86118   0.86544   0.30394   0.00000  Uiso   1.00
C288   C     0.86884   0.94775   0.31221   0.00000  Uiso   1.00
C289   C     0.87164   0.08598   0.30570   0.00000  Uiso   1.00
C290   C     0.92108   0.77733   0.43315   0.00000  Uiso   1.00
C291   C     0.96124   0.72098   0.40183   0.00000  Uiso   1.00
C292   C     0.01678   0.69969   0.41733   0.00000  Uiso   1.00
C293   C     0.04651   0.64735   0.38312   0.00000  Uiso   1.00
C294   C     0.86615   0.72914   0.44380   0.00000  Uiso   1.00
C295   C     0.84173   0.71471   0.49459   0.00000  Uiso   1.00
C296   C     0.79141   0.66924   0.49571   0.00000  Uiso   1.00
C297   C     0.90435   0.84412   0.39331   0.00000  Uiso   1.00
C298   C     0.91203   0.92636   0.40165   0.00000  Uiso   1.00
C299   C     0.89384   0.97771   0.36027   0.00000  Uiso   1.00
H300   H     0.85569   0.69897   0.30750   0.00000  Uiso   1.00
H301   H     0.94661   0.61562   0.28251   0.00000  Uiso   1.00
H302   H     0.77159   0.63065   0.35976   0.00000  Uiso   1.00
H303   H     0.84187   0.84227   0.26683   0.00000  Uiso   1.00
H304   H     0.05840   0.53638   0.27597   0.00000  Uiso   1.00
H305   H     0.68935   0.56809   0.43884   0.00000  Uiso   1.00
H306   H     0.83755   0.01434   0.24289   0.00000  Uiso   1.00
H307   H     0.94051   0.80062   0.47050   0.00000  Uiso   1.00
H308   H     0.03608   0.72284   0.45445   0.00000  Uiso   1.00
H309   H     0.86106   0.73787   0.53170   0.00000  Uiso   1.00
H310   H     0.93134   0.94949   0.43877   0.00000  Uiso   1.00
H311   H     0.13102   0.62340   0.41553   0.00000  Uiso   1.00
H312   H     0.76197   0.65511   0.57840   0.00000  Uiso   1.00
H313   H     0.91017   0.10136   0.38244   0.00000  Uiso   1.00
O314   O     0.15604   0.52687   0.33226   0.00000  Uiso   1.00
O315   O     0.67186   0.56849   0.54594   0.00000  Uiso   1.00
O316   O     0.86630   0.15396   0.28886   0.00000  Uiso   1.00
N317   N     0.06238   0.56754   0.31101   0.00000  Uiso   1.00
N318   N     0.71735   0.59718   0.46329   0.00000  Uiso   1.00
N319   N     0.85589   0.01439   0.28009   0.00000  Uiso   1.00
N320   N     0.10146   0.61437   0.38610   0.00000  Uiso   1.00
N321   N     0.75642   0.64401   0.53838   0.00000  Uiso   1.00
N322   N     0.89496   0.06122   0.35519   0.00000  Uiso   1.00
C323   C     0.37513   0.22226   0.34484   0.00000  Uiso   1.00
C324   C     0.43629   0.19107   0.35386   0.00000  Uiso   1.00
C325   C     0.46594   0.13876   0.31963   0.00000  Uiso   1.00
C326   C     0.52150   0.11738   0.33507   0.00000  Uiso   1.00
C327   C     0.61266   0.06438   0.34180   0.00000  Uiso   1.00
C328   C     0.34120   0.19923   0.39583   0.00000  Uiso   1.00
C329   C     0.29089   0.15378   0.39688   0.00000  Uiso   1.00
C330   C     0.26641   0.13928   0.44766   0.00000  Uiso   1.00
C331   C     0.20991   0.09899   0.51954   0.00000  Uiso   1.00
C332   C     0.37939   0.31421   0.34534   0.00000  Uiso   1.00
C333   C     0.36118   0.36544   0.30394   0.00000  Uiso   1.00
C334   C     0.36884   0.44775   0.31221   0.00000  Uiso   1.00
C335   C     0.37164   0.58598   0.30570   0.00000  Uiso   1.00
C336   C     0.42108   0.27733   0.43315   0.00000  Uiso   1.00
C337   C     0.46124   0.22098   0.40183   0.00000  Uiso   1.00
C338   C     0.51678   0.19969   0.41733   0.00000  Uiso   1.00
C339   C     0.54651   0.14735   0.38312   0.00000  Uiso   1.00
C340   C     0.36615   0.22914   0.44380   0.00000  Uiso   1.00
C341   C     0.34173   0.21471   0.49459   0.00000  Uiso   1.00
C342   C     0.29141   0.16924   0.49571   0.00000  Uiso   1.00
C343   C     0.40435   0.34412   0.39331   0.00000  Uiso   1.00
C344   C     0.41203   0.42636   0.40165   0.00000  Uiso   1.00
C345   C     0.39384   0.47771   0.36027   0.00000  Uiso   1.00
H346   H     0.35569   0.19897   0.30750   0.00000  Uiso   1.00
H347   H     0.44661   0.11562   0.28251   0.00000  Uiso   1.00
H348   H     0.27159   0.13065   0.35976   0.00000  Uiso   1.00
H349   H     0.34187   0.34227   0.26683   0.00000  Uiso   1.00
H350   H     0.55840   0.03638   0.27597   0.00000  Uiso   1.00
H351   H     0.18935   0.06809   0.43884   0.00000  Uiso   1.00
H352   H     0.33755   0.51434   0.24289   0.00000  Uiso   1.00
H353   H     0.44051   0.30062   0.47050   0.00000  Uiso   1.00
H354   H     0.53608   0.22284   0.45445   0.00000  Uiso   1.00
H355   H     0.36106   0.23787   0.53170   0.00000  Uiso   1.00
H356   H     0.43134   0.44949   0.43877   0.00000  Uiso   1.00
H357   H     0.63102   0.12340   0.41553   0.00000  Uiso   1.00
H358   H     0.26197   0.15511   0.57840   0.00000  Uiso   1.00
H359   H     0.41017   0.60136   0.38244   0.00000  Uiso   1.00
O360   O     0.65604   0.02687   0.33226   0.00000  Uiso   1.00
O361   O     0.17186   0.06849   0.54594   0.00000  Uiso   1.00
O362   O     0.36630   0.65396   0.28886   0.00000  Uiso   1.00
N363   N     0.56238   0.06754   0.31101   0.00000  Uiso   1.00
N364   N     0.21735   0.09718   0.46329   0.00000  Uiso   1.00
N365   N     0.35589   0.51439   0.28009   0.00000  Uiso   1.00
N366   N     0.60146   0.11437   0.38610   0.00000  Uiso   1.00
N367   N     0.25642   0.14401   0.53838   0.00000  Uiso   1.00
N368   N     0.39496   0.56122   0.35519   0.00000  Uiso   1.00
C369   C     0.62487   0.72226   0.84484   0.00000  Uiso   1.00
C370   C     0.56371   0.69107   0.85386   0.00000  Uiso   1.00
C371   C     0.53406   0.63876   0.81963   0.00000  Uiso   1.00
C372   C     0.47850   0.61738   0.83507   0.00000  Uiso   1.00
C373   C     0.38734   0.56438   0.84180   0.00000  Uiso   1.00
C374   C     0.65880   0.69923   0.89583   0.00000  Uiso   1.00
C375   C     0.70911   0.65378   0.89688   0.00000  Uiso   1.00
C376   C     0.73359   0.63928   0.94766   0.00000  Uiso   1.00
C377   C     0.79009   0.59899   0.01954   0.00000  Uiso   1.00
C378   C     0.62061   0.81421   0.84534   0.00000  Uiso   1.00
C379   C     0.63882   0.86544   0.80394   0.00000  Uiso   1.00
C380   C     0.63116   0.94775   0.81221   0.00000  Uiso   1.00
C381   C     0.62836   0.08598   0.80570   0.00000  Uiso   1.00
C382   C     0.57892   0.77733   0.93315   0.00000  Uiso   1.00
C383   C     0.53876   0.72098   0.90183   0.00000  Uiso   1.00
C384   C     0.48322   0.69969   0.91733   0.00000  Uiso   1.00
C385   C     0.45349   0.64735   0.88312   0.00000  Uiso   1.00
C386   C     0.63385   0.72914   0.94380   0.00000  Uiso   1.00
C387   C     0.65827   0.71471   0.99459   0.00000  Uiso   1.00
C388   C     0.70859   0.66924   0.99571   0.00000  Uiso   1.00
C389   C     0.59565   0.84412   0.89331   0.00000  Uiso   1.00
C390   C     0.58797   0.92636   0.90165   0.00000  Uiso   1.00
C391   C     0.60616   0.97771   0.86027   0.00000  Uiso   1.00
H392   H     0.64431   0.69897   0.80750   0.00000  Uiso   1.00
H393   H     0.55339   0.61562   0.78251   0.00000  Uiso   1.00
H394   H     0.72841   0.63065   0.85976   0.00000  Uiso   1.00
H395   H     0.65813   0.84227   0.76683   0.00000  Uiso   1.00
H396   H     0.44160   0.53638   0.77597   0.00000  Uiso   1.00
H397   H     0.81065   0.56809   0.93884   0.00000  Uiso   1.00
H398   H     0.66245   0.01434   0.74289   0.00000  Uiso   1.00
H399   H     0.55949   0.80062   0.97050   0.00000  Uiso   1.00
H400   H     0.46392   0.72284   0.95445   0.00000  Uiso   1.00
H401   H     0.63894   0.73787   0.03170   0.00000  Uiso   1.00
H402   H     0.56866   0.94949   0.93877   0.00000  Uiso   1.00
H403   H     0.36898   0.62340   0.91553   0.00000  Uiso   1.00
H404   H     0.73803   0.65511   0.07840   0.00000  Uiso   1.00
H405   H     0.58983   0.10136   0.88244   0.00000  Uiso   1.00
O406   O     0.34396   0.52687   0.83226   0.00000  Uiso   1.00
O407   O     0.82814   0.56849   0.04594   0.00000  Uiso   1.00
O408   O     0.63370   0.15396   0.78886   0.00000  Uiso   1.00
N409   N     0.43762   0.56754   0.81101   0.00000  Uiso   1.00
N410   N     0.78265   0.59718   0.96329   0.00000  Uiso   1.00
N411   N     0.64411   0.01439   0.78009   0.00000  Uiso   1.00
N412   N     0.39854   0.61437   0.88610   0.00000  Uiso   1.00
N413   N     0.74358   0.64401   0.03838   0.00000  Uiso   1.00
N414   N     0.60504   0.06122   0.85519   0.00000  Uiso   1.00
C415   C     0.12487   0.22226   0.84484   0.00000  Uiso   1.00
C416   C     0.06371   0.19107   0.85386   0.00000  Uiso   1.00
C417   C     0.03406   0.13876   0.81963   0.00000  Uiso   1.00
C418   C     0.97850   0.11738   0.83507   0.00000  Uiso   1.00
C419   C     0.88734   0.06438   0.84180   0.00000  Uiso   1.00
C420   C     0.15880   0.19923   0.89583   0.00000  Uiso   1.00
C421   C     0.20911   0.15378   0.89688   0.00000  Uiso   1.00
C422   C     0.23359   0.13928   0.94766   0.00000  Uiso   1.00
C423   C     0.29009   0.09899   0.01954   0.00000  Uiso   1.00
C424   C     0.12061   0.31421   0.84534   0.00000  Uiso   1.00
C425   C     0.13882   0.36544   0.80394   0.00000  Uiso   1.00
C426   C     0.13116   0.44775   0.81221   0.00000  Uiso   1.00
C427   C     0.12836   0.58598   0.80570   0.00000  Uiso   1.00
C428   C     0.07892   0.27733   0.93315   0.00000  Uiso   1.00
C429   C     0.03876   0.22098   0.90183   0.00000  Uiso   1.00
C430   C     0.98322   0.19969   0.91733   0.00000  Uiso   1.00
C431   C     0.95349   0.14735   0.88312   0.00000  Uiso   1.00
C432   C     0.13385   0.22914   0.94380   0.00000  Uiso   1.00
C433   C     0.15827   0.21471   0.99459   0.00000  Uiso   1.00
C434   C     0.20859   0.16924   0.99571   0.00000  Uiso   1.00
C435   C     0.09565   0.34412   0.89331   0.00000  Uiso   1.00
C436   C     0.08797   0.42636   0.90165   0.00000  Uiso   1.00
C437   C     0.10616   0.47771   0.86027   0.00000  Uiso   1.00
H438   H     0.14431   0.19897   0.80750   0.00000  Uiso   1.00
H439   H     0.05339   0.11562   0.78251   0.00000  Uiso   1.00
H440   H     0.22841   0.13065   0.85976   0.00000  Uiso   1.00
H441   H     0.15813   0.34227   0.76683   0.00000  Uiso   1.00
H442   H     0.94160   0.03638   0.77597   0.00000  Uiso   1.00
H443   H     0.31065   0.06809   0.93884   0.00000  Uiso   1.00
H444   H     0.16245   0.51434   0.74289   0.00000  Uiso   1.00
H445   H     0.05949   0.30062   0.97050   0.00000  Uiso   1.00
H446   H     0.96392   0.22284   0.95445   0.00000  Uiso   1.00
H447   H     0.13894   0.23787   0.03170   0.00000  Uiso   1.00
H448   H     0.06866   0.44949   0.93877   0.00000  Uiso   1.00
H449   H     0.86898   0.12340   0.91553   0.00000  Uiso   1.00
H450   H     0.23803   0.15511   0.07840   0.00000  Uiso   1.00
H451   H     0.08983   0.60136   0.88244   0.00000  Uiso   1.00
O452   O     0.84396   0.02687   0.83226   0.00000  Uiso   1.00
O453   O     0.32814   0.06849   0.04594   0.00000  Uiso   1.00
O454   O     0.13370   0.65396   0.78886   0.00000  Uiso   1.00
N455   N     0.93762   0.06754   0.81101   0.00000  Uiso   1.00
N456   N     0.28265   0.09718   0.96329   0.00000  Uiso   1.00
N457   N     0.14411   0.51439   0.78009   0.00000  Uiso   1.00
N458   N     0.89854   0.11437   0.88610   0.00000  Uiso   1.00
N459   N     0.24358   0.14401   0.03838   0.00000  Uiso   1.00
N460   N     0.10504   0.56122   0.85519   0.00000  Uiso   1.00
C461   C     0.87513   0.77774   0.84484   0.00000  Uiso   1.00
C462   C     0.93629   0.80893   0.85386   0.00000  Uiso   1.00
C463   C     0.96594   0.86124   0.81963   0.00000  Uiso   1.00
C464   C     0.02150   0.88262   0.83507   0.00000  Uiso   1.00
C465   C     0.11266   0.93562   0.84180   0.00000  Uiso   1.00
C466   C     0.84120   0.80077   0.89583   0.00000  Uiso   1.00
C467   C     0.79089   0.84622   0.89688   0.00000  Uiso   1.00
C468   C     0.76641   0.86072   0.94766   0.00000  Uiso   1.00
C469   C     0.70991   0.90101   0.01954   0.00000  Uiso   1.00
C470   C     0.87939   0.68579   0.84534   0.00000  Uiso   1.00
C471   C     0.86118   0.63456   0.80394   0.00000  Uiso   1.00
C472   C     0.86884   0.55225   0.81221   0.00000  Uiso   1.00
C473   C     0.87164   0.41402   0.80570   0.00000  Uiso   1.00
C474   C     0.92108   0.72267   0.93315   0.00000  Uiso   1.00
C475   C     0.96124   0.77902   0.90183   0.00000  Uiso   1.00
C476   C     0.01678   0.80031   0.91733   0.00000  Uiso   1.00
C477   C     0.04651   0.85265   0.88312   0.00000  Uiso   1.00
C478   C     0.86615   0.77086   0.94380   0.00000  Uiso   1.00
C479   C     0.84173   0.78529   0.99459   0.00000  Uiso   1.00
C480   C     0.79141   0.83076   0.99571   0.00000  Uiso   1.00
C481   C     0.90435   0.65588   0.89331   0.00000  Uiso   1.00
C482   C     0.91203   0.57364   0.90165   0.00000  Uiso   1.00
C483   C     0.89384   0.52229   0.86027   0.00000  Uiso   1.00
H484   H     0.85569   0.80103   0.80750   0.00000  Uiso   1.00
H485   H     0.94661   0.88438   0.78251   0.00000  Uiso   1.00
H486   H     0.77159   0.86935   0.85976   0.00000  Uiso   1.00
H487   H     0.84187   0.65773   0.76683   0.00000  Uiso   1.00
H488   H     0.05840   0.96362   0.77597   0.00000  Uiso   1.00
H489   H     0.68935   0.93191   0.93884   0.00000  Uiso   1.00
H490   H     0.83755   0.48566   0.74289   0.00000  Uiso   1.00
H491   H     0.94051   0.69938   0.97050   0.00000  Uiso   1.00
H492   H     0.03608   0.77716   0.95445   0.00000  Uiso   1.00
H493   H     0.86106   0.76213   0.03170   0.00000  Uiso   1.00
H494   H     0.93134   0.55051   0.93877   0.00000  Uiso   1.00
H495   H     0.13102   0.87660   0.91553   0.00000  Uiso   1.00
H496   H     0.76197   0.84489   0.07840   0.00000  Uiso   1.00
H497   H     0.91017   0.39864   0.88244   0.00000  Uiso   1.00
O498   O     0.15604   0.97313   0.83226   0.00000  Uiso   1.00
O499   O     0.67186   0.93151   0.04594   0.00000  Uiso   1.00
O500   O     0.86630   0.34604   0.78886   0.00000  Uiso   1.00
N501   N     0.06238   0.93246   0.81101   0.00000  Uiso   1.00
N502   N     0.71735   0.90282   0.96329   0.00000  Uiso   1.00
N503   N     0.85589   0.48561   0.78009   0.00000  Uiso   1.00
N504   N     0.10146   0.88563   0.88610   0.00000  Uiso   1.00
N505   N     0.75642   0.85599   0.03838   0.00000  Uiso   1.00
N506   N     0.89496   0.43878   0.85519   0.00000  Uiso   1.00
C507   C     0.37513   0.27774   0.84484   0.00000  Uiso   1.00
C508   C     0.43629   0.30893   0.85386   0.00000  Uiso   1.00
C509   C     0.46594   0.36124   0.81963   0.00000  Uiso   1.00
C510   C     0.52150   0.38262   0.83507   0.00000  Uiso   1.00
C511   C     0.61266   0.43562   0.84180   0.00000  Uiso   1.00
C512   C     0.34120   0.30077   0.89583   0.00000  Uiso   1.00
C513   C     0.29089   0.34622   0.89688   0.00000  Uiso   1.00
C514   C     0.26641   0.36072   0.94766   0.00000  Uiso   1.00
C515   C     0.20991   0.40101   0.01954   0.00000  Uiso   1.00
C516   C     0.37939   0.18579   0.84534   0.00000  Uiso   1.00
C517   C     0.36118   0.13456   0.80394   0.00000  Uiso   1.00
C518   C     0.36884   0.05225   0.81221   0.00000  Uiso   1.00
C519   C     0.37164   0.91402   0.80570   0.00000  Uiso   1.00
C520   C     0.42108   0.22267   0.93315   0.00000  Uiso   1.00
C521   C     0.46124   0.27902   0.90183   0.00000  Uiso   1.00
C522   C     0.51678   0.30031   0.91733   0.00000  Uiso   1.00
C523   C     0.54651   0.35265   0.88312   0.00000  Uiso   1.00
C524   C     0.36615   0.27086   0.94380   0.00000  Uiso   1.00
C525   C     0.34173   0.28529   0.99459   0.00000  Uiso   1.00
C526   C     0.29141   0.33076   0.99571   0.00000  Uiso   1.00
C527   C     0.40435   0.15588   0.89331   0.00000  Uiso   1.00
C528   C     0.41203   0.07364   0.90165   0.00000  Uiso   1.00
C529   C     0.39384   0.02229   0.86027   0.00000  Uiso   1.00
H530   H     0.35569   0.30103   0.80750   0.00000  Uiso   1.00
H531   H     0.44661   0.38438   0.78251   0.00000  Uiso   1.00
H532   H     0.27159   0.36935   0.85976   0.00000  Uiso   1.00
H533   H     0.34187   0.15773   0.76683   0.00000  Uiso   1.00
H534   H     0.55840   0.46362   0.77597   0.00000  Uiso   1.00
H535   H     0.18935   0.43191   0.93884   0.00000  Uiso   1.00
H536   H     0.33755   0.98566   0.74289   0.00000  Uiso   1.00
H537   H     0.44051   0.19938   0.97050   0.00000  Uiso   1.00
H538   H     0.53608   0.27716   0.95445   0.00000  Uiso   1.00
H539   H     0.36106   0.26213   0.03170   0.00000  Uiso   1.00
H540   H     0.43134   0.05051   0.93877   0.00000  Uiso   1.00
H541   H     0.63102   0.37660   0.91553   0.00000  Uiso   1.00
H542   H     0.26197   0.34489   0.07840   0.00000  Uiso   1.00
H543   H     0.41017   0.89864   0.88244   0.00000  Uiso   1.00
O544   O     0.65604   0.47313   0.83226   0.00000  Uiso   1.00
O545   O     0.17186   0.43151   0.04594   0.00000  Uiso   1.00
O546   O     0.36630   0.84604   0.78886   0.00000  Uiso   1.00
N547   N     0.56238   0.43246   0.81101   0.00000  Uiso   1.00
N548   N     0.21735   0.40282   0.96329   0.00000  Uiso   1.00
N549   N     0.35589   0.98561   0.78009   0.00000  Uiso   1.00
N550   N     0.60146   0.38563   0.88610   0.00000  Uiso   1.00
N551   N     0.25642   0.35599   0.03838   0.00000  Uiso   1.00
N552   N     0.39496   0.93878   0.85519   0.00000  Uiso   1.00
C553   C     0.37513   0.72226   0.15516   0.00000  Uiso   1.00
C554   C     0.43629   0.69107   0.14614   0.00000  Uiso   1.00
C555   C     0.46594   0.63876   0.18037   0.00000  Uiso   1.00
C556   C     0.52150   0.61738   0.16493   0.00000  Uiso   1.00
C557   C     0.61266   0.56438   0.15820   0.00000  Uiso   1.00
C558   C     0.34120   0.69923   0.10417   0.00000  Uiso   1.00
C559   C     0.29089   0.65378   0.10312   0.00000  Uiso   1.00
C560   C     0.26641   0.63928   0.05234   0.00000  Uiso   1.00
C561   C     0.20991   0.59899   0.98046   0.00000  Uiso   1.00
C562   C     0.37939   0.81421   0.15466   0.00000  Uiso   1.00
C563   C     0.36118   0.86544   0.19606   0.00000  Uiso   1.00
C564   C     0.36884   0.94775   0.18779   0.00000  Uiso   1.00
C565   C     0.37164   0.08598   0.19430   0.00000  Uiso   1.00
C566   C     0.42108   0.77733   0.06685   0.00000  Uiso   1.00
C567   C     0.46124   0.72098   0.09817   0.00000  Uiso   1.00
C568   C     0.51678   0.69969   0.08267   0.00000  Uiso   1.00
C569   C     0.54651   0.64735   0.11688   0.00000  Uiso   1.00
C570   C     0.36615   0.72914   0.05620   0.00000  Uiso   1.00
C571   C     0.34173   0.71471   0.00541   0.00000  Uiso   1.00
C572   C     0.29141   0.66924   0.00429   0.00000  Uiso   1.00
C573   C     0.40435   0.84412   0.10669   0.00000  Uiso   1.00
C574   C     0.41203   0.92636   0.09835   0.00000  Uiso   1.00
C575   C     0.39384   0.97771   0.13973   0.00000  Uiso   1.00
H576   H     0.35569   0.69897   0.19250   0.00000  Uiso   1.00
H577   H     0.44661   0.61562   0.21749   0.00000  Uiso   1.00
H578   H     0.27159   0.63065   0.14024   0.00000  Uiso   1.00
H579   H     0.34187   0.84227   0.23317   0.00000  Uiso   1.00
H580   H     0.55840   0.53638   0.22403   0.00000  Uiso   1.00
H581   H     0.18935   0.56809   0.06116   0.00000  Uiso   1.00
H582   H     0.33755   0.01434   0.25711   0.00000  Uiso   1.00
H583   H     0.44051   0.80062   0.02950   0.00000  Uiso   1.00
H584   H     0.53608   0.72284   0.04555   0.00000  Uiso   1.00
H585   H     0.36106   0.73787   0.96830   0.00000  Uiso   1.00
H586   H     0.43134   0.94949   0.06123   0.00000  Uiso   1.00
H587   H     0.63102   0.62340   0.08447   0.00000  Uiso   1.00
H588   H     0.26197   0.65511   0.92160   0.00000  Uiso   1.00
H589   H     0.41017   0.10136   0.11756   0.00000  Uiso   1.00
O590   O     0.65604   0.52687   0.16774   0.00000  Uiso   1.00
O591   O     0.17186   0.56849   0.95406   0.00000  Uiso   1.00
O592   O     0.36630   0.15396   0.21114   0.00000  Uiso   1.00
N593   N     0.56238   0.56754   0.18899   0.00000  Uiso   1.00
N594   N     0.21735   0.59718   0.03671   0.00000  Uiso   1.00
N595   N     0.35589   0.01439   0.21991   0.00000  Uiso   1.00
N596   N     0.60146   0.61437   0.11390   0.00000  Uiso   1.00
N597   N     0.25642   0.64401   0.96162   0.00000  Uiso   1.00
N598   N     0.39496   0.06122   0.14481   0.00000  Uiso   1.00
C599   C     0.87513   0.22226   0.15516   0.00000  Uiso   1.00
C600   C     0.93629   0.19107   0.14614   0.00000  Uiso   1.00
C601   C     0.96594   0.13876   0.18037   0.00000  Uiso   1.00
C602   C     0.02150   0.11738   0.16493   0.00000  Uiso   1.00
C603   C     0.11266   0.06438   0.15820   0.00000  Uiso   1.00
C604   C     0.84120   0.19923   0.10417   0.00000  Uiso   1.00
C605   C     0.79089   0.15378   0.10312   0.00000  Uiso   1.00
C606   C     0.76641   0.13928   0.05234   0.00000  Uiso   1.00
C607   C     0.70991   0.09899   0.98046   0.00000  Uiso   1.00
C608   C     0.87939   0.31421   0.15466   0.00000  Uiso   1.00
C609   C     0.86118   0.36544   0.19606   0.00000  Uiso   1.00
C610   C     0.86884   0.44775   0.18779   0.00000  Uiso   1.00
C611   C     0.87164   0.58598   0.19430   0.00000  Uiso   1.00
C612   C     0.92108   0.27733   0.06685   0.00000  Uiso   1.00
C613   C     0.96124   0.22098   0.09817   0.00000  Uiso   1.00
C614   C     0.01678   0.19969   0.08267   0.00000  Uiso   1.00
C615   C     0.04651   0.14735   0.11688   0.00000  Uiso   1.00
C616   C     0.86615   0.22914   0.05620   0.00000  Uiso   1.00
C617   C     0.84173   0.21471   0.00541   0.00000  Uiso   1.00
C618   C     0.79141   0.16924   0.00429   0.00000  Uiso   1.00
C619   C     0.90435   0.34412   0.10669   0.00000  Uiso   1.00
C620   C     0.91203   0.42636   0.09835   0.00000  Uiso   1.00
C621   C     0.89384   0.47771   0.13973   0.00000  Uiso   1.00
H622   H     0.85569   0.19897   0.19250   0.00000  Uiso   1.00
H623   H     0.94661   0.11562   0.21749   0.00000  Uiso   1.00
H624   H     0.77159   0.13065   0.14024   0.00000  Uiso   1.00
H625   H     0.84187   0.34227   0.23317   0.00000  Uiso   1.00
H626   H     0.05840   0.03638   0.22403   0.00000  Uiso   1.00
H627   H     0.68935   0.06809   0.06116   0.00000  Uiso   1.00
H628   H     0.83755   0.51434   0.25711   0.00000  Uiso   1.00
H629   H     0.94051   0.30062   0.02950   0.00000  Uiso   1.00
H630   H     0.03608   0.22284   0.04555   0.00000  Uiso   1.00
H631   H     0.86106   0.23787   0.96830   0.00000  Uiso   1.00
H632   H     0.93134   0.44949   0.06123   0.00000  Uiso   1.00
H633   H     0.13102   0.12340   0.08447   0.00000  Uiso   1.00
H634   H     0.76197   0.15511   0.92160   0.00000  Uiso   1.00
H635   H     0.91017   0.60136   0.11756   0.00000  Uiso   1.00
O636   O     0.15604   0.02687   0.16774   0.00000  Uiso   1.00
O637   O     0.67186   0.06849   0.95406   0.00000  Uiso   1.00
O638   O     0.86630   0.65396   0.21114   0.00000  Uiso   1.00
N639   N     0.06238   0.06754   0.18899   0.00000  Uiso   1.00
N640   N     0.71735   0.09718   0.03671   0.00000  Uiso   1.00
N641   N     0.85589   0.51439   0.21991   0.00000  Uiso   1.00
N642   N     0.10146   0.11437   0.11390   0.00000  Uiso   1.00
N643   N     0.75642   0.14401   0.96162   0.00000  Uiso   1.00
N644   N     0.89496   0.56122   0.14481   0.00000  Uiso   1.00
C645   C     0.12487   0.77774   0.15516   0.00000  Uiso   1.00
C646   C     0.06371   0.80893   0.14614   0.00000  Uiso   1.00
C647   C     0.03406   0.86124   0.18037   0.00000  Uiso   1.00
C648   C     0.97850   0.88262   0.16493   0.00000  Uiso   1.00
C649   C     0.88734   0.93562   0.15820   0.00000  Uiso   1.00
C650   C     0.15880   0.80077   0.10417   0.00000  Uiso   1.00
C651   C     0.20911   0.84622   0.10312   0.00000  Uiso   1.00
C652   C     0.23359   0.86072   0.05234   0.00000  Uiso   1.00
C653   C     0.29009   0.90101   0.98046   0.00000  Uiso   1.00
C654   C     0.12061   0.68579   0.15466   0.00000  Uiso   1.00
C655   C     0.13882   0.63456   0.19606   0.00000  Uiso   1.00
C656   C     0.13116   0.55225   0.18779   0.00000  Uiso   1.00
C657   C     0.12836   0.41402   0.19430   0.00000  Uiso   1.00
C658   C     0.07892   0.72267   0.06685   0.00000  Uiso   1.00
C659   C     0.03876   0.77902   0.09817   0.00000  Uiso   1.00
C660   C     0.98322   0.80031   0.08267   0.00000  Uiso   1.00
C661   C     0.95349   0.85265   0.11688   0.00000  Uiso   1.00
C662   C     0.13385   0.77086   0.05620   0.00000  Uiso   1.00
C663   C     0.15827   0.78529   0.00541   0.00000  Uiso   1.00
C664   C     0.20859   0.83076   0.00429   0.00000  Uiso   1.00
C665   C     0.09565   0.65588   0.10669   0.00000  Uiso   1.00
C666   C     0.08797   0.57364   0.09835   0.00000  Uiso   1.00
C667   C     0.10616   0.52229   0.13973   0.00000  Uiso   1.00
H668   H     0.14431   0.80103   0.19250   0.00000  Uiso   1.00
H669   H     0.05339   0.88438   0.21749   0.00000  Uiso   1.00
H670   H     0.22841   0.86935   0.14024   0.00000  Uiso   1.00
H671   H     0.15813   0.65773   0.23317   0.00000  Uiso   1.00
H672   H     0.94160   0.96362   0.22403   0.00000  Uiso   1.00
H673   H     0.31065   0.93191   0.06116   0.00000  Uiso   1.00
H674   H     0.16245   0.48566   0.25711   0.00000  Uiso   1.00
H675   H     0.05949   0.69938   0.02950   0.00000  Uiso   1.00
H676   H     0.96392   0.77716   0.04555   0.00000  Uiso   1.00
H677   H     0.13894   0.76213   0.96830   0.00000  Uiso   1.00
H678   H     0.06866   0.55051   0.06123   0.00000  Uiso   1.00
H679   H     0.86898   0.87660   0.08447   0.00000  Uiso   1.00
H680   H     0.23803   0.84489   0.92160   0.00000  Uiso   1.00
H681   H     0.08983   0.39864   0.11756   0.00000  Uiso   1.00
O682   O     0.84396   0.97313   0.16774   0.00000  Uiso   1.00
O683   O     0.32814   0.93151   0.95406   0.00000  Uiso   1.00
O684   O     0.13370   0.34604   0.21114   0.00000  Uiso   1.00
N685   N     0.93762   0.93246   0.18899   0.00000  Uiso   1.00
N686   N     0.28265   0.90282   0.03671   0.00000  Uiso   1.00
N687   N     0.14411   0.48561   0.21991   0.00000  Uiso   1.00
N688   N     0.89854   0.88563   0.11390   0.00000  Uiso   1.00
N689   N     0.24358   0.85599   0.96162   0.00000  Uiso   1.00
N690   N     0.10504   0.43878   0.14481   0.00000  Uiso   1.00
C691   C     0.62487   0.27774   0.15516   0.00000  Uiso   1.00
C692   C     0.56371   0.30893   0.14614   0.00000  Uiso   1.00
C693   C     0.53406   0.36124   0.18037   0.00000  Uiso   1.00
C694   C     0.47850   0.38262   0.16493   0.00000  Uiso   1.00
C695   C     0.38734   0.43562   0.15820   0.00000  Uiso   1.00
C696   C     0.65880   0.30077   0.10417   0.00000  Uiso   1.00
C697   C     0.70911   0.34622   0.10312   0.00000  Uiso   1.00
C698   C     0.73359   0.36072   0.05234   0.00000  Uiso   1.00
C699   C     0.79009   0.40101   0.98046   0.00000  Uiso   1.00
C700   C     0.62061   0.18579   0.15466   0.00000  Uiso   1.00
C701   C     0.63882   0.13456   0.19606   0.00000  Uiso   1.00
C702   C     0.63116   0.05225   0.18779   0.00000  Uiso   1.00
C703   C     0.62836   0.91402   0.19430   0.00000  Uiso   1.00
C704   C     0.57892   0.22267   0.06685   0.00000  Uiso   1.00
C705   C     0.53876   0.27902   0.09817   0.00000  Uiso   1.00
C706   C     0.48322   0.30031   0.08267   0.00000  Uiso   1.00
C707   C     0.45349   0.35265   0.11688   0.00000  Uiso   1.00
C708   C     0.63385   0.27086   0.05620   0.00000  Uiso   1.00
C709   C     0.65827   0.28529   0.00541   0.00000  Uiso   1.00
C710   C     0.70859   0.33076   0.00429   0.00000  Uiso   1.00
C711   C     0.59565   0.15588   0.10669   0.00000  Uiso   1.00
C712   C     0.58797   0.07364   0.09835   0.00000  Uiso   1.00
C713   C     0.60616   0.02229   0.13973   0.00000  Uiso   1.00
H714   H     0.64431   0.30103   0.19250   0.00000  Uiso   1.00
H715   H     0.55339   0.38438   0.21749   0.00000  Uiso   1.00
H716   H     0.72841   0.36935   0.14024   0.00000  Uiso   1.00
H717   H     0.65813   0.15773   0.23317   0.00000  Uiso   1.00
H718   H     0.44160   0.46362   0.22403   0.00000  Uiso   1.00
H719   H     0.81065   0.43191   0.06116   0.00000  Uiso   1.00
H720   H     0.66245   0.98566   0.25711   0.00000  Uiso   1.00
H721   H     0.55949   0.19938   0.02950   0.00000  Uiso   1.00
H722   H     0.46392   0.27716   0.04555   0.00000  Uiso   1.00
H723   H     0.63894   0.26213   0.96830   0.00000  Uiso   1.00
H724   H     0.56866   0.05051   0.06123   0.00000  Uiso   1.00
H725   H     0.36898   0.37660   0.08447   0.00000  Uiso   1.00
H726   H     0.73803   0.34489   0.92160   0.00000  Uiso   1.00
H727   H     0.58983   0.89864   0.11756   0.00000  Uiso   1.00
O728   O     0.34396   0.47313   0.16774   0.00000  Uiso   1.00
O729   O     0.82814   0.43151   0.95406   0.00000  Uiso   1.00
O730   O     0.63370   0.84604   0.21114   0.00000  Uiso   1.00
N731   N     0.43762   0.43246   0.18899   0.00000  Uiso   1.00
N732   N     0.78265   0.40282   0.03671   0.00000  Uiso   1.00
N733   N     0.64411   0.98561   0.21991   0.00000  Uiso   1.00
N734   N     0.39854   0.38563   0.11390   0.00000  Uiso   1.00
N735   N     0.74358   0.35599   0.96162   0.00000  Uiso   1.00
N736   N     0.60504   0.93878   0.14481   0.00000  Uiso   1.00
