data_job_03339
_audit_creation_date              2018-12-19
_audit_creation_method            'Materials Studio'
_symmetry_space_group_name_H-M    'P1'
_symmetry_Int_Tables_number       1
_symmetry_cell_setting            triclinic
loop_
_symmetry_equiv_pos_as_xyz
  x,y,z
_cell_length_a                    28.2977
_cell_length_b                    28.2977
_cell_length_c                    12.8370
_cell_angle_alpha                 90.0000
_cell_angle_beta                  90.0000
_cell_angle_gamma                 90.0000
loop_
_atom_site_label
_atom_site_type_symbol
_atom_site_fract_x
_atom_site_fract_y
_atom_site_fract_z
_atom_site_U_iso_or_equiv
_atom_site_adp_type
_atom_site_occupancy
C1     C     0.16743   0.56946   0.70110   0.00000  Uiso   1.00
C2     C     0.20175   0.59804   0.63459   0.00000  Uiso   1.00
C3     C     0.22587   0.63825   0.66624   0.00000  Uiso   1.00
C4     C     0.25564   0.65927   0.59383   0.00000  Uiso   1.00
C5     C     0.30808   0.70647   0.50583   0.00000  Uiso   1.00
C6     C     0.12112   0.56797   0.64045   0.00000  Uiso   1.00
C7     C     0.07745   0.58289   0.67705   0.00000  Uiso   1.00
C8     C     0.03934   0.57859   0.60957   0.00000  Uiso   1.00
C9     C     0.96660   0.57908   0.53069   0.00000  Uiso   1.00
C10    C     0.18627   0.51897   0.70154   0.00000  Uiso   1.00
C11    C     0.19736   0.49270   0.78949   0.00000  Uiso   1.00
C12    C     0.21409   0.44715   0.77345   0.00000  Uiso   1.00
C13    C     0.24249   0.37157   0.78942   0.00000  Uiso   1.00
C14    C     0.17741   0.53529   0.51621   0.00000  Uiso   1.00
C15    C     0.20716   0.57947   0.53417   0.00000  Uiso   1.00
C16    C     0.23691   0.60044   0.46169   0.00000  Uiso   1.00
C17    C     0.26107   0.64068   0.49323   0.00000  Uiso   1.00
C18    C     0.12654   0.54941   0.54004   0.00000  Uiso   1.00
C19    C     0.08849   0.54508   0.47249   0.00000  Uiso   1.00
C20    C     0.04477   0.56000   0.50897   0.00000  Uiso   1.00
C21    C     0.19168   0.50041   0.60112   0.00000  Uiso   1.00
C22    C     0.20840   0.45489   0.58493   0.00000  Uiso   1.00
C23    C     0.21952   0.42856   0.67284   0.00000  Uiso   1.00
H24    H     0.16321   0.58391   0.77928   0.00000  Uiso   1.00
H25    H     0.22166   0.65260   0.74396   0.00000  Uiso   1.00
H26    H     0.07327   0.59725   0.75476   0.00000  Uiso   1.00
H27    H     0.19316   0.50708   0.86719   0.00000  Uiso   1.00
H28    H     0.28884   0.72058   0.66051   0.00000  Uiso   1.00
H29    H     0.97594   0.60385   0.68330   0.00000  Uiso   1.00
H30    H     0.22875   0.41370   0.92038   0.00000  Uiso   1.00
H31    H     0.18163   0.52084   0.43803   0.00000  Uiso   1.00
H32    H     0.24109   0.58607   0.38398   0.00000  Uiso   1.00
H33    H     0.09269   0.53071   0.39479   0.00000  Uiso   1.00
H34    H     0.21259   0.44054   0.50721   0.00000  Uiso   1.00
H35    H     0.30461   0.66658   0.36834   0.00000  Uiso   1.00
H36    H     0.99170   0.54985   0.39113   0.00000  Uiso   1.00
H37    H     0.24452   0.35970   0.62820   0.00000  Uiso   1.00
O38    O     0.33550   0.73764   0.48502   0.00000  Uiso   1.00
O39    O     0.92498   0.58448   0.51493   0.00000  Uiso   1.00
O40    O     0.25667   0.33501   0.82596   0.00000  Uiso   1.00
N41    N     0.28440   0.69892   0.59917   0.00000  Uiso   1.00
N42    N     0.99185   0.58978   0.62047   0.00000  Uiso   1.00
N43    N     0.22820   0.41201   0.84212   0.00000  Uiso   1.00
N44    N     0.29289   0.66986   0.44196   0.00000  Uiso   1.00
N45    N     0.00034   0.56073   0.46326   0.00000  Uiso   1.00
N46    N     0.23669   0.38295   0.68490   0.00000  Uiso   1.00
C47    C     0.66743   0.06946   0.20110   0.00000  Uiso   1.00
C48    C     0.70175   0.09804   0.13459   0.00000  Uiso   1.00
C49    C     0.72587   0.13825   0.16624   0.00000  Uiso   1.00
C50    C     0.75564   0.15927   0.09383   0.00000  Uiso   1.00
C51    C     0.80808   0.20647   0.00583   0.00000  Uiso   1.00
C52    C     0.62112   0.06797   0.14045   0.00000  Uiso   1.00
C53    C     0.57745   0.08289   0.17705   0.00000  Uiso   1.00
C54    C     0.53934   0.07859   0.10957   0.00000  Uiso   1.00
C55    C     0.46660   0.07908   0.03069   0.00000  Uiso   1.00
C56    C     0.68627   0.01897   0.20154   0.00000  Uiso   1.00
C57    C     0.69736   0.99270   0.28949   0.00000  Uiso   1.00
C58    C     0.71409   0.94715   0.27345   0.00000  Uiso   1.00
C59    C     0.74249   0.87157   0.28942   0.00000  Uiso   1.00
C60    C     0.67741   0.03529   0.01621   0.00000  Uiso   1.00
C61    C     0.70716   0.07947   0.03417   0.00000  Uiso   1.00
C62    C     0.73691   0.10044   0.96169   0.00000  Uiso   1.00
C63    C     0.76107   0.14068   0.99323   0.00000  Uiso   1.00
C64    C     0.62654   0.04941   0.04004   0.00000  Uiso   1.00
C65    C     0.58849   0.04508   0.97249   0.00000  Uiso   1.00
C66    C     0.54477   0.06000   0.00897   0.00000  Uiso   1.00
C67    C     0.69168   0.00041   0.10112   0.00000  Uiso   1.00
C68    C     0.70840   0.95489   0.08493   0.00000  Uiso   1.00
C69    C     0.71952   0.92856   0.17284   0.00000  Uiso   1.00
H70    H     0.66321   0.08391   0.27928   0.00000  Uiso   1.00
H71    H     0.72166   0.15260   0.24396   0.00000  Uiso   1.00
H72    H     0.57327   0.09725   0.25476   0.00000  Uiso   1.00
H73    H     0.69316   0.00708   0.36719   0.00000  Uiso   1.00
H74    H     0.78884   0.22058   0.16051   0.00000  Uiso   1.00
H75    H     0.47594   0.10385   0.18330   0.00000  Uiso   1.00
H76    H     0.72875   0.91370   0.42038   0.00000  Uiso   1.00
H77    H     0.68163   0.02084   0.93803   0.00000  Uiso   1.00
H78    H     0.74109   0.08607   0.88398   0.00000  Uiso   1.00
H79    H     0.59269   0.03071   0.89479   0.00000  Uiso   1.00
H80    H     0.71259   0.94054   0.00721   0.00000  Uiso   1.00
H81    H     0.80461   0.16658   0.86834   0.00000  Uiso   1.00
H82    H     0.49170   0.04985   0.89113   0.00000  Uiso   1.00
H83    H     0.74452   0.85970   0.12820   0.00000  Uiso   1.00
O84    O     0.83550   0.23764   0.98502   0.00000  Uiso   1.00
O85    O     0.42498   0.08448   0.01493   0.00000  Uiso   1.00
O86    O     0.75667   0.83501   0.32596   0.00000  Uiso   1.00
N87    N     0.78440   0.19892   0.09917   0.00000  Uiso   1.00
N88    N     0.49185   0.08978   0.12047   0.00000  Uiso   1.00
N89    N     0.72820   0.91201   0.34212   0.00000  Uiso   1.00
N90    N     0.79289   0.16986   0.94196   0.00000  Uiso   1.00
N91    N     0.50034   0.06073   0.96326   0.00000  Uiso   1.00
N92    N     0.73669   0.88295   0.18490   0.00000  Uiso   1.00
C93    C     0.33257   0.93054   0.20110   0.00000  Uiso   1.00
C94    C     0.29825   0.90196   0.13459   0.00000  Uiso   1.00
C95    C     0.27413   0.86175   0.16624   0.00000  Uiso   1.00
C96    C     0.24436   0.84073   0.09383   0.00000  Uiso   1.00
C97    C     0.19192   0.79353   0.00583   0.00000  Uiso   1.00
C98    C     0.37888   0.93203   0.14045   0.00000  Uiso   1.00
C99    C     0.42255   0.91711   0.17705   0.00000  Uiso   1.00
C100   C     0.46066   0.92141   0.10957   0.00000  Uiso   1.00
C101   C     0.53340   0.92092   0.03069   0.00000  Uiso   1.00
C102   C     0.31373   0.98103   0.20154   0.00000  Uiso   1.00
C103   C     0.30264   0.00730   0.28949   0.00000  Uiso   1.00
C104   C     0.28591   0.05285   0.27345   0.00000  Uiso   1.00
C105   C     0.25751   0.12843   0.28942   0.00000  Uiso   1.00
C106   C     0.32259   0.96471   0.01621   0.00000  Uiso   1.00
C107   C     0.29284   0.92053   0.03417   0.00000  Uiso   1.00
C108   C     0.26309   0.89956   0.96169   0.00000  Uiso   1.00
C109   C     0.23893   0.85932   0.99323   0.00000  Uiso   1.00
C110   C     0.37346   0.95059   0.04004   0.00000  Uiso   1.00
C111   C     0.41151   0.95492   0.97249   0.00000  Uiso   1.00
C112   C     0.45523   0.94000   0.00897   0.00000  Uiso   1.00
C113   C     0.30832   0.99959   0.10112   0.00000  Uiso   1.00
C114   C     0.29160   0.04511   0.08493   0.00000  Uiso   1.00
C115   C     0.28048   0.07144   0.17284   0.00000  Uiso   1.00
H116   H     0.33679   0.91609   0.27928   0.00000  Uiso   1.00
H117   H     0.27834   0.84740   0.24396   0.00000  Uiso   1.00
H118   H     0.42673   0.90275   0.25476   0.00000  Uiso   1.00
H119   H     0.30684   0.99292   0.36719   0.00000  Uiso   1.00
H120   H     0.21116   0.77942   0.16051   0.00000  Uiso   1.00
H121   H     0.52406   0.89615   0.18330   0.00000  Uiso   1.00
H122   H     0.27125   0.08630   0.42038   0.00000  Uiso   1.00
H123   H     0.31837   0.97916   0.93803   0.00000  Uiso   1.00
H124   H     0.25891   0.91393   0.88398   0.00000  Uiso   1.00
H125   H     0.40731   0.96929   0.89479   0.00000  Uiso   1.00
H126   H     0.28741   0.05946   0.00721   0.00000  Uiso   1.00
H127   H     0.19539   0.83342   0.86834   0.00000  Uiso   1.00
H128   H     0.50830   0.95015   0.89113   0.00000  Uiso   1.00
H129   H     0.25548   0.14030   0.12820   0.00000  Uiso   1.00
O130   O     0.16450   0.76236   0.98502   0.00000  Uiso   1.00
O131   O     0.57502   0.91552   0.01493   0.00000  Uiso   1.00
O132   O     0.24333   0.16499   0.32596   0.00000  Uiso   1.00
N133   N     0.21560   0.80108   0.09917   0.00000  Uiso   1.00
N134   N     0.50815   0.91022   0.12047   0.00000  Uiso   1.00
N135   N     0.27180   0.08799   0.34212   0.00000  Uiso   1.00
N136   N     0.20711   0.83014   0.94196   0.00000  Uiso   1.00
N137   N     0.49966   0.93927   0.96326   0.00000  Uiso   1.00
N138   N     0.26331   0.11705   0.18490   0.00000  Uiso   1.00
C139   C     0.83257   0.43054   0.70110   0.00000  Uiso   1.00
C140   C     0.79825   0.40196   0.63459   0.00000  Uiso   1.00
C141   C     0.77413   0.36175   0.66624   0.00000  Uiso   1.00
C142   C     0.74436   0.34073   0.59383   0.00000  Uiso   1.00
C143   C     0.69192   0.29353   0.50583   0.00000  Uiso   1.00
C144   C     0.87888   0.43203   0.64045   0.00000  Uiso   1.00
C145   C     0.92255   0.41711   0.67705   0.00000  Uiso   1.00
C146   C     0.96066   0.42141   0.60957   0.00000  Uiso   1.00
C147   C     0.03340   0.42092   0.53069   0.00000  Uiso   1.00
C148   C     0.81373   0.48103   0.70154   0.00000  Uiso   1.00
C149   C     0.80264   0.50730   0.78949   0.00000  Uiso   1.00
C150   C     0.78591   0.55285   0.77345   0.00000  Uiso   1.00
C151   C     0.75751   0.62843   0.78942   0.00000  Uiso   1.00
C152   C     0.82259   0.46471   0.51621   0.00000  Uiso   1.00
C153   C     0.79284   0.42053   0.53417   0.00000  Uiso   1.00
C154   C     0.76309   0.39956   0.46169   0.00000  Uiso   1.00
C155   C     0.73893   0.35932   0.49323   0.00000  Uiso   1.00
C156   C     0.87346   0.45059   0.54004   0.00000  Uiso   1.00
C157   C     0.91151   0.45492   0.47249   0.00000  Uiso   1.00
C158   C     0.95523   0.44000   0.50897   0.00000  Uiso   1.00
C159   C     0.80832   0.49959   0.60112   0.00000  Uiso   1.00
C160   C     0.79160   0.54511   0.58493   0.00000  Uiso   1.00
C161   C     0.78048   0.57144   0.67284   0.00000  Uiso   1.00
H162   H     0.83679   0.41609   0.77928   0.00000  Uiso   1.00
H163   H     0.77834   0.34740   0.74396   0.00000  Uiso   1.00
H164   H     0.92673   0.40275   0.75476   0.00000  Uiso   1.00
H165   H     0.80684   0.49292   0.86719   0.00000  Uiso   1.00
H166   H     0.71116   0.27942   0.66051   0.00000  Uiso   1.00
H167   H     0.02406   0.39615   0.68330   0.00000  Uiso   1.00
H168   H     0.77125   0.58630   0.92038   0.00000  Uiso   1.00
H169   H     0.81837   0.47916   0.43803   0.00000  Uiso   1.00
H170   H     0.75891   0.41393   0.38398   0.00000  Uiso   1.00
H171   H     0.90731   0.46929   0.39479   0.00000  Uiso   1.00
H172   H     0.78741   0.55946   0.50721   0.00000  Uiso   1.00
H173   H     0.69539   0.33342   0.36834   0.00000  Uiso   1.00
H174   H     0.00830   0.45015   0.39113   0.00000  Uiso   1.00
H175   H     0.75548   0.64030   0.62820   0.00000  Uiso   1.00
O176   O     0.66450   0.26236   0.48502   0.00000  Uiso   1.00
O177   O     0.07502   0.41552   0.51493   0.00000  Uiso   1.00
O178   O     0.74333   0.66499   0.82596   0.00000  Uiso   1.00
N179   N     0.71560   0.30108   0.59917   0.00000  Uiso   1.00
N180   N     0.00815   0.41022   0.62047   0.00000  Uiso   1.00
N181   N     0.77180   0.58799   0.84212   0.00000  Uiso   1.00
N182   N     0.70711   0.33014   0.44196   0.00000  Uiso   1.00
N183   N     0.99966   0.43927   0.46326   0.00000  Uiso   1.00
N184   N     0.76331   0.61705   0.68490   0.00000  Uiso   1.00
C185   C     0.43054   0.66743   0.95110   0.00000  Uiso   1.00
C186   C     0.40196   0.70175   0.88459   0.00000  Uiso   1.00
C187   C     0.36175   0.72587   0.91624   0.00000  Uiso   1.00
C188   C     0.34073   0.75564   0.84383   0.00000  Uiso   1.00
C189   C     0.29353   0.80808   0.75583   0.00000  Uiso   1.00
C190   C     0.43203   0.62112   0.89045   0.00000  Uiso   1.00
C191   C     0.41711   0.57745   0.92705   0.00000  Uiso   1.00
C192   C     0.42141   0.53934   0.85957   0.00000  Uiso   1.00
C193   C     0.42092   0.46660   0.78069   0.00000  Uiso   1.00
C194   C     0.48103   0.68627   0.95154   0.00000  Uiso   1.00
C195   C     0.50730   0.69736   0.03949   0.00000  Uiso   1.00
C196   C     0.55285   0.71409   0.02345   0.00000  Uiso   1.00
C197   C     0.62843   0.74249   0.03942   0.00000  Uiso   1.00
C198   C     0.46471   0.67741   0.76621   0.00000  Uiso   1.00
C199   C     0.42053   0.70716   0.78417   0.00000  Uiso   1.00
C200   C     0.39956   0.73691   0.71169   0.00000  Uiso   1.00
C201   C     0.35932   0.76107   0.74323   0.00000  Uiso   1.00
C202   C     0.45059   0.62654   0.79004   0.00000  Uiso   1.00
C203   C     0.45492   0.58849   0.72249   0.00000  Uiso   1.00
C204   C     0.44000   0.54477   0.75897   0.00000  Uiso   1.00
C205   C     0.49959   0.69168   0.85112   0.00000  Uiso   1.00
C206   C     0.54511   0.70840   0.83493   0.00000  Uiso   1.00
C207   C     0.57144   0.71952   0.92284   0.00000  Uiso   1.00
H208   H     0.41609   0.66321   0.02928   0.00000  Uiso   1.00
H209   H     0.34740   0.72166   0.99396   0.00000  Uiso   1.00
H210   H     0.40275   0.57327   0.00476   0.00000  Uiso   1.00
H211   H     0.49292   0.69316   0.11719   0.00000  Uiso   1.00
H212   H     0.27942   0.78884   0.91051   0.00000  Uiso   1.00
H213   H     0.39615   0.47594   0.93330   0.00000  Uiso   1.00
H214   H     0.58630   0.72875   0.17038   0.00000  Uiso   1.00
H215   H     0.47916   0.68163   0.68803   0.00000  Uiso   1.00
H216   H     0.41393   0.74109   0.63398   0.00000  Uiso   1.00
H217   H     0.46929   0.59269   0.64479   0.00000  Uiso   1.00
H218   H     0.55946   0.71259   0.75721   0.00000  Uiso   1.00
H219   H     0.33342   0.80461   0.61834   0.00000  Uiso   1.00
H220   H     0.45015   0.49170   0.64113   0.00000  Uiso   1.00
H221   H     0.64030   0.74452   0.87820   0.00000  Uiso   1.00
O222   O     0.26236   0.83550   0.73502   0.00000  Uiso   1.00
O223   O     0.41552   0.42498   0.76493   0.00000  Uiso   1.00
O224   O     0.66499   0.75667   0.07596   0.00000  Uiso   1.00
N225   N     0.30108   0.78440   0.84917   0.00000  Uiso   1.00
N226   N     0.41022   0.49185   0.87047   0.00000  Uiso   1.00
N227   N     0.58799   0.72820   0.09212   0.00000  Uiso   1.00
N228   N     0.33014   0.79289   0.69196   0.00000  Uiso   1.00
N229   N     0.43927   0.50034   0.71326   0.00000  Uiso   1.00
N230   N     0.61705   0.73669   0.93490   0.00000  Uiso   1.00
C231   C     0.93054   0.16743   0.45110   0.00000  Uiso   1.00
C232   C     0.90196   0.20175   0.38459   0.00000  Uiso   1.00
C233   C     0.86175   0.22587   0.41624   0.00000  Uiso   1.00
C234   C     0.84073   0.25564   0.34383   0.00000  Uiso   1.00
C235   C     0.79353   0.30808   0.25583   0.00000  Uiso   1.00
C236   C     0.93203   0.12112   0.39045   0.00000  Uiso   1.00
C237   C     0.91711   0.07745   0.42705   0.00000  Uiso   1.00
C238   C     0.92141   0.03934   0.35957   0.00000  Uiso   1.00
C239   C     0.92092   0.96660   0.28069   0.00000  Uiso   1.00
C240   C     0.98103   0.18627   0.45154   0.00000  Uiso   1.00
C241   C     0.00730   0.19736   0.53949   0.00000  Uiso   1.00
C242   C     0.05285   0.21409   0.52345   0.00000  Uiso   1.00
C243   C     0.12843   0.24249   0.53942   0.00000  Uiso   1.00
C244   C     0.96471   0.17741   0.26621   0.00000  Uiso   1.00
C245   C     0.92053   0.20716   0.28417   0.00000  Uiso   1.00
C246   C     0.89956   0.23691   0.21169   0.00000  Uiso   1.00
C247   C     0.85932   0.26107   0.24323   0.00000  Uiso   1.00
C248   C     0.95059   0.12654   0.29004   0.00000  Uiso   1.00
C249   C     0.95492   0.08849   0.22249   0.00000  Uiso   1.00
C250   C     0.94000   0.04477   0.25897   0.00000  Uiso   1.00
C251   C     0.99959   0.19168   0.35112   0.00000  Uiso   1.00
C252   C     0.04511   0.20840   0.33493   0.00000  Uiso   1.00
C253   C     0.07144   0.21952   0.42284   0.00000  Uiso   1.00
H254   H     0.91609   0.16321   0.52928   0.00000  Uiso   1.00
H255   H     0.84740   0.22166   0.49396   0.00000  Uiso   1.00
H256   H     0.90275   0.07327   0.50476   0.00000  Uiso   1.00
H257   H     0.99292   0.19316   0.61719   0.00000  Uiso   1.00
H258   H     0.77942   0.28884   0.41051   0.00000  Uiso   1.00
H259   H     0.89615   0.97594   0.43330   0.00000  Uiso   1.00
H260   H     0.08630   0.22875   0.67038   0.00000  Uiso   1.00
H261   H     0.97916   0.18163   0.18803   0.00000  Uiso   1.00
H262   H     0.91393   0.24109   0.13398   0.00000  Uiso   1.00
H263   H     0.96929   0.09269   0.14479   0.00000  Uiso   1.00
H264   H     0.05946   0.21259   0.25721   0.00000  Uiso   1.00
H265   H     0.83342   0.30461   0.11834   0.00000  Uiso   1.00
H266   H     0.95015   0.99170   0.14113   0.00000  Uiso   1.00
H267   H     0.14030   0.24452   0.37820   0.00000  Uiso   1.00
O268   O     0.76236   0.33550   0.23502   0.00000  Uiso   1.00
O269   O     0.91552   0.92498   0.26493   0.00000  Uiso   1.00
O270   O     0.16499   0.25667   0.57596   0.00000  Uiso   1.00
N271   N     0.80108   0.28440   0.34917   0.00000  Uiso   1.00
N272   N     0.91022   0.99185   0.37047   0.00000  Uiso   1.00
N273   N     0.08799   0.22820   0.59212   0.00000  Uiso   1.00
N274   N     0.83014   0.29289   0.19196   0.00000  Uiso   1.00
N275   N     0.93927   0.00034   0.21326   0.00000  Uiso   1.00
N276   N     0.11705   0.23669   0.43490   0.00000  Uiso   1.00
C277   C     0.06946   0.83257   0.45110   0.00000  Uiso   1.00
C278   C     0.09804   0.79825   0.38459   0.00000  Uiso   1.00
C279   C     0.13825   0.77413   0.41624   0.00000  Uiso   1.00
C280   C     0.15927   0.74436   0.34383   0.00000  Uiso   1.00
C281   C     0.20647   0.69192   0.25583   0.00000  Uiso   1.00
C282   C     0.06797   0.87888   0.39045   0.00000  Uiso   1.00
C283   C     0.08289   0.92255   0.42705   0.00000  Uiso   1.00
C284   C     0.07859   0.96066   0.35957   0.00000  Uiso   1.00
C285   C     0.07908   0.03340   0.28069   0.00000  Uiso   1.00
C286   C     0.01897   0.81373   0.45154   0.00000  Uiso   1.00
C287   C     0.99270   0.80264   0.53949   0.00000  Uiso   1.00
C288   C     0.94715   0.78591   0.52345   0.00000  Uiso   1.00
C289   C     0.87157   0.75751   0.53942   0.00000  Uiso   1.00
C290   C     0.03529   0.82259   0.26621   0.00000  Uiso   1.00
C291   C     0.07947   0.79284   0.28417   0.00000  Uiso   1.00
C292   C     0.10044   0.76309   0.21169   0.00000  Uiso   1.00
C293   C     0.14068   0.73893   0.24323   0.00000  Uiso   1.00
C294   C     0.04941   0.87346   0.29004   0.00000  Uiso   1.00
C295   C     0.04508   0.91151   0.22249   0.00000  Uiso   1.00
C296   C     0.06000   0.95523   0.25897   0.00000  Uiso   1.00
C297   C     0.00041   0.80832   0.35112   0.00000  Uiso   1.00
C298   C     0.95489   0.79160   0.33493   0.00000  Uiso   1.00
C299   C     0.92856   0.78048   0.42284   0.00000  Uiso   1.00
H300   H     0.08391   0.83679   0.52928   0.00000  Uiso   1.00
H301   H     0.15260   0.77834   0.49396   0.00000  Uiso   1.00
H302   H     0.09725   0.92673   0.50476   0.00000  Uiso   1.00
H303   H     0.00708   0.80684   0.61719   0.00000  Uiso   1.00
H304   H     0.22058   0.71116   0.41051   0.00000  Uiso   1.00
H305   H     0.10385   0.02406   0.43330   0.00000  Uiso   1.00
H306   H     0.91370   0.77125   0.67038   0.00000  Uiso   1.00
H307   H     0.02084   0.81837   0.18803   0.00000  Uiso   1.00
H308   H     0.08607   0.75891   0.13398   0.00000  Uiso   1.00
H309   H     0.03071   0.90731   0.14479   0.00000  Uiso   1.00
H310   H     0.94054   0.78741   0.25721   0.00000  Uiso   1.00
H311   H     0.16658   0.69539   0.11834   0.00000  Uiso   1.00
H312   H     0.04985   0.00830   0.14113   0.00000  Uiso   1.00
H313   H     0.85970   0.75548   0.37820   0.00000  Uiso   1.00
O314   O     0.23764   0.66450   0.23502   0.00000  Uiso   1.00
O315   O     0.08448   0.07502   0.26493   0.00000  Uiso   1.00
O316   O     0.83501   0.74333   0.57596   0.00000  Uiso   1.00
N317   N     0.19892   0.71560   0.34917   0.00000  Uiso   1.00
N318   N     0.08978   0.00815   0.37047   0.00000  Uiso   1.00
N319   N     0.91201   0.77180   0.59212   0.00000  Uiso   1.00
N320   N     0.16986   0.70711   0.19196   0.00000  Uiso   1.00
N321   N     0.06073   0.99966   0.21326   0.00000  Uiso   1.00
N322   N     0.88295   0.76331   0.43490   0.00000  Uiso   1.00
C323   C     0.56946   0.33257   0.95110   0.00000  Uiso   1.00
C324   C     0.59804   0.29825   0.88459   0.00000  Uiso   1.00
C325   C     0.63825   0.27413   0.91624   0.00000  Uiso   1.00
C326   C     0.65927   0.24436   0.84383   0.00000  Uiso   1.00
C327   C     0.70647   0.19192   0.75583   0.00000  Uiso   1.00
C328   C     0.56797   0.37888   0.89045   0.00000  Uiso   1.00
C329   C     0.58289   0.42255   0.92705   0.00000  Uiso   1.00
C330   C     0.57859   0.46066   0.85957   0.00000  Uiso   1.00
C331   C     0.57908   0.53340   0.78069   0.00000  Uiso   1.00
C332   C     0.51897   0.31373   0.95154   0.00000  Uiso   1.00
C333   C     0.49270   0.30264   0.03949   0.00000  Uiso   1.00
C334   C     0.44715   0.28591   0.02345   0.00000  Uiso   1.00
C335   C     0.37157   0.25751   0.03942   0.00000  Uiso   1.00
C336   C     0.53529   0.32259   0.76621   0.00000  Uiso   1.00
C337   C     0.57947   0.29284   0.78417   0.00000  Uiso   1.00
C338   C     0.60044   0.26309   0.71169   0.00000  Uiso   1.00
C339   C     0.64068   0.23893   0.74323   0.00000  Uiso   1.00
C340   C     0.54941   0.37346   0.79004   0.00000  Uiso   1.00
C341   C     0.54508   0.41151   0.72249   0.00000  Uiso   1.00
C342   C     0.56000   0.45523   0.75897   0.00000  Uiso   1.00
C343   C     0.50041   0.30832   0.85112   0.00000  Uiso   1.00
C344   C     0.45489   0.29160   0.83493   0.00000  Uiso   1.00
C345   C     0.42856   0.28048   0.92284   0.00000  Uiso   1.00
H346   H     0.58391   0.33679   0.02928   0.00000  Uiso   1.00
H347   H     0.65260   0.27834   0.99396   0.00000  Uiso   1.00
H348   H     0.59725   0.42673   0.00476   0.00000  Uiso   1.00
H349   H     0.50708   0.30684   0.11719   0.00000  Uiso   1.00
H350   H     0.72058   0.21116   0.91051   0.00000  Uiso   1.00
H351   H     0.60385   0.52406   0.93330   0.00000  Uiso   1.00
H352   H     0.41370   0.27125   0.17038   0.00000  Uiso   1.00
H353   H     0.52084   0.31837   0.68803   0.00000  Uiso   1.00
H354   H     0.58607   0.25891   0.63398   0.00000  Uiso   1.00
H355   H     0.53071   0.40731   0.64479   0.00000  Uiso   1.00
H356   H     0.44054   0.28741   0.75721   0.00000  Uiso   1.00
H357   H     0.66658   0.19539   0.61834   0.00000  Uiso   1.00
H358   H     0.54985   0.50830   0.64113   0.00000  Uiso   1.00
H359   H     0.35970   0.25548   0.87820   0.00000  Uiso   1.00
O360   O     0.73764   0.16450   0.73502   0.00000  Uiso   1.00
O361   O     0.58448   0.57502   0.76493   0.00000  Uiso   1.00
O362   O     0.33501   0.24333   0.07596   0.00000  Uiso   1.00
N363   N     0.69892   0.21560   0.84917   0.00000  Uiso   1.00
N364   N     0.58978   0.50815   0.87047   0.00000  Uiso   1.00
N365   N     0.41201   0.27180   0.09212   0.00000  Uiso   1.00
N366   N     0.66986   0.20711   0.69196   0.00000  Uiso   1.00
N367   N     0.56073   0.49966   0.71326   0.00000  Uiso   1.00
N368   N     0.38295   0.26331   0.93490   0.00000  Uiso   1.00
C369   C     0.83257   0.93054   0.54890   0.00000  Uiso   1.00
C370   C     0.79825   0.90196   0.61541   0.00000  Uiso   1.00
C371   C     0.77413   0.86175   0.58376   0.00000  Uiso   1.00
C372   C     0.74436   0.84073   0.65617   0.00000  Uiso   1.00
C373   C     0.69192   0.79353   0.74417   0.00000  Uiso   1.00
C374   C     0.87888   0.93203   0.60955   0.00000  Uiso   1.00
C375   C     0.92255   0.91711   0.57295   0.00000  Uiso   1.00
C376   C     0.96066   0.92141   0.64043   0.00000  Uiso   1.00
C377   C     0.03340   0.92092   0.71931   0.00000  Uiso   1.00
C378   C     0.81373   0.98103   0.54846   0.00000  Uiso   1.00
C379   C     0.80264   0.00730   0.46051   0.00000  Uiso   1.00
C380   C     0.78591   0.05285   0.47655   0.00000  Uiso   1.00
C381   C     0.75751   0.12843   0.46058   0.00000  Uiso   1.00
C382   C     0.82259   0.96471   0.73379   0.00000  Uiso   1.00
C383   C     0.79284   0.92053   0.71583   0.00000  Uiso   1.00
C384   C     0.76309   0.89956   0.78831   0.00000  Uiso   1.00
C385   C     0.73893   0.85932   0.75677   0.00000  Uiso   1.00
C386   C     0.87346   0.95059   0.70996   0.00000  Uiso   1.00
C387   C     0.91151   0.95492   0.77751   0.00000  Uiso   1.00
C388   C     0.95523   0.94000   0.74103   0.00000  Uiso   1.00
C389   C     0.80832   0.99959   0.64888   0.00000  Uiso   1.00
C390   C     0.79160   0.04511   0.66507   0.00000  Uiso   1.00
C391   C     0.78048   0.07144   0.57716   0.00000  Uiso   1.00
H392   H     0.83679   0.91609   0.47072   0.00000  Uiso   1.00
H393   H     0.77834   0.84740   0.50604   0.00000  Uiso   1.00
H394   H     0.92673   0.90275   0.49524   0.00000  Uiso   1.00
H395   H     0.80684   0.99292   0.38281   0.00000  Uiso   1.00
H396   H     0.71116   0.77942   0.58949   0.00000  Uiso   1.00
H397   H     0.02406   0.89615   0.56670   0.00000  Uiso   1.00
H398   H     0.77125   0.08630   0.32962   0.00000  Uiso   1.00
H399   H     0.81837   0.97916   0.81197   0.00000  Uiso   1.00
H400   H     0.75891   0.91393   0.86602   0.00000  Uiso   1.00
H401   H     0.90731   0.96929   0.85521   0.00000  Uiso   1.00
H402   H     0.78741   0.05946   0.74279   0.00000  Uiso   1.00
H403   H     0.69539   0.83342   0.88166   0.00000  Uiso   1.00
H404   H     0.00830   0.95015   0.85887   0.00000  Uiso   1.00
H405   H     0.75548   0.14030   0.62180   0.00000  Uiso   1.00
O406   O     0.66450   0.76236   0.76498   0.00000  Uiso   1.00
O407   O     0.07502   0.91552   0.73507   0.00000  Uiso   1.00
O408   O     0.74333   0.16499   0.42404   0.00000  Uiso   1.00
N409   N     0.71560   0.80108   0.65083   0.00000  Uiso   1.00
N410   N     0.00815   0.91022   0.62953   0.00000  Uiso   1.00
N411   N     0.77180   0.08799   0.40788   0.00000  Uiso   1.00
N412   N     0.70711   0.83014   0.80804   0.00000  Uiso   1.00
N413   N     0.99966   0.93927   0.78674   0.00000  Uiso   1.00
N414   N     0.76331   0.11705   0.56510   0.00000  Uiso   1.00
C415   C     0.33257   0.43054   0.04890   0.00000  Uiso   1.00
C416   C     0.29825   0.40196   0.11541   0.00000  Uiso   1.00
C417   C     0.27413   0.36175   0.08376   0.00000  Uiso   1.00
C418   C     0.24436   0.34073   0.15617   0.00000  Uiso   1.00
C419   C     0.19192   0.29353   0.24417   0.00000  Uiso   1.00
C420   C     0.37888   0.43203   0.10955   0.00000  Uiso   1.00
C421   C     0.42255   0.41711   0.07295   0.00000  Uiso   1.00
C422   C     0.46066   0.42141   0.14043   0.00000  Uiso   1.00
C423   C     0.53340   0.42092   0.21931   0.00000  Uiso   1.00
C424   C     0.31373   0.48103   0.04846   0.00000  Uiso   1.00
C425   C     0.30264   0.50730   0.96051   0.00000  Uiso   1.00
C426   C     0.28591   0.55285   0.97655   0.00000  Uiso   1.00
C427   C     0.25751   0.62843   0.96058   0.00000  Uiso   1.00
C428   C     0.32259   0.46471   0.23379   0.00000  Uiso   1.00
C429   C     0.29284   0.42053   0.21583   0.00000  Uiso   1.00
C430   C     0.26309   0.39956   0.28831   0.00000  Uiso   1.00
C431   C     0.23893   0.35932   0.25677   0.00000  Uiso   1.00
C432   C     0.37346   0.45059   0.20996   0.00000  Uiso   1.00
C433   C     0.41151   0.45492   0.27751   0.00000  Uiso   1.00
C434   C     0.45523   0.44000   0.24103   0.00000  Uiso   1.00
C435   C     0.30832   0.49959   0.14888   0.00000  Uiso   1.00
C436   C     0.29160   0.54511   0.16507   0.00000  Uiso   1.00
C437   C     0.28048   0.57144   0.07716   0.00000  Uiso   1.00
H438   H     0.33679   0.41609   0.97072   0.00000  Uiso   1.00
H439   H     0.27834   0.34740   0.00604   0.00000  Uiso   1.00
H440   H     0.42673   0.40275   0.99524   0.00000  Uiso   1.00
H441   H     0.30684   0.49292   0.88281   0.00000  Uiso   1.00
H442   H     0.21116   0.27942   0.08949   0.00000  Uiso   1.00
H443   H     0.52406   0.39615   0.06670   0.00000  Uiso   1.00
H444   H     0.27125   0.58630   0.82962   0.00000  Uiso   1.00
H445   H     0.31837   0.47916   0.31197   0.00000  Uiso   1.00
H446   H     0.25891   0.41393   0.36602   0.00000  Uiso   1.00
H447   H     0.40731   0.46929   0.35521   0.00000  Uiso   1.00
H448   H     0.28741   0.55946   0.24279   0.00000  Uiso   1.00
H449   H     0.19539   0.33342   0.38166   0.00000  Uiso   1.00
H450   H     0.50830   0.45015   0.35887   0.00000  Uiso   1.00
H451   H     0.25548   0.64030   0.12180   0.00000  Uiso   1.00
O452   O     0.16450   0.26236   0.26498   0.00000  Uiso   1.00
O453   O     0.57502   0.41552   0.23507   0.00000  Uiso   1.00
O454   O     0.24333   0.66499   0.92404   0.00000  Uiso   1.00
N455   N     0.21560   0.30108   0.15083   0.00000  Uiso   1.00
N456   N     0.50815   0.41022   0.12953   0.00000  Uiso   1.00
N457   N     0.27180   0.58799   0.90788   0.00000  Uiso   1.00
N458   N     0.20711   0.33014   0.30804   0.00000  Uiso   1.00
N459   N     0.49966   0.43927   0.28674   0.00000  Uiso   1.00
N460   N     0.26331   0.61705   0.06510   0.00000  Uiso   1.00
C461   C     0.66743   0.56946   0.04890   0.00000  Uiso   1.00
C462   C     0.70175   0.59804   0.11541   0.00000  Uiso   1.00
C463   C     0.72587   0.63825   0.08376   0.00000  Uiso   1.00
C464   C     0.75564   0.65927   0.15617   0.00000  Uiso   1.00
C465   C     0.80808   0.70647   0.24417   0.00000  Uiso   1.00
C466   C     0.62112   0.56797   0.10955   0.00000  Uiso   1.00
C467   C     0.57745   0.58289   0.07295   0.00000  Uiso   1.00
C468   C     0.53934   0.57859   0.14043   0.00000  Uiso   1.00
C469   C     0.46660   0.57908   0.21931   0.00000  Uiso   1.00
C470   C     0.68627   0.51897   0.04846   0.00000  Uiso   1.00
C471   C     0.69736   0.49270   0.96051   0.00000  Uiso   1.00
C472   C     0.71409   0.44715   0.97655   0.00000  Uiso   1.00
C473   C     0.74249   0.37157   0.96058   0.00000  Uiso   1.00
C474   C     0.67741   0.53529   0.23379   0.00000  Uiso   1.00
C475   C     0.70716   0.57947   0.21583   0.00000  Uiso   1.00
C476   C     0.73691   0.60044   0.28831   0.00000  Uiso   1.00
C477   C     0.76107   0.64068   0.25677   0.00000  Uiso   1.00
C478   C     0.62654   0.54941   0.20996   0.00000  Uiso   1.00
C479   C     0.58849   0.54508   0.27751   0.00000  Uiso   1.00
C480   C     0.54477   0.56000   0.24103   0.00000  Uiso   1.00
C481   C     0.69168   0.50041   0.14888   0.00000  Uiso   1.00
C482   C     0.70840   0.45489   0.16507   0.00000  Uiso   1.00
C483   C     0.71952   0.42856   0.07716   0.00000  Uiso   1.00
H484   H     0.66321   0.58391   0.97072   0.00000  Uiso   1.00
H485   H     0.72166   0.65260   0.00604   0.00000  Uiso   1.00
H486   H     0.57327   0.59725   0.99524   0.00000  Uiso   1.00
H487   H     0.69316   0.50708   0.88281   0.00000  Uiso   1.00
H488   H     0.78884   0.72058   0.08949   0.00000  Uiso   1.00
H489   H     0.47594   0.60385   0.06670   0.00000  Uiso   1.00
H490   H     0.72875   0.41370   0.82962   0.00000  Uiso   1.00
H491   H     0.68163   0.52084   0.31197   0.00000  Uiso   1.00
H492   H     0.74109   0.58607   0.36602   0.00000  Uiso   1.00
H493   H     0.59269   0.53071   0.35521   0.00000  Uiso   1.00
H494   H     0.71259   0.44054   0.24279   0.00000  Uiso   1.00
H495   H     0.80461   0.66658   0.38166   0.00000  Uiso   1.00
H496   H     0.49170   0.54985   0.35887   0.00000  Uiso   1.00
H497   H     0.74452   0.35970   0.12180   0.00000  Uiso   1.00
O498   O     0.83550   0.73764   0.26498   0.00000  Uiso   1.00
O499   O     0.42498   0.58448   0.23507   0.00000  Uiso   1.00
O500   O     0.75667   0.33501   0.92404   0.00000  Uiso   1.00
N501   N     0.78440   0.69892   0.15083   0.00000  Uiso   1.00
N502   N     0.49185   0.58978   0.12953   0.00000  Uiso   1.00
N503   N     0.72820   0.41201   0.90788   0.00000  Uiso   1.00
N504   N     0.79289   0.66986   0.30804   0.00000  Uiso   1.00
N505   N     0.50034   0.56073   0.28674   0.00000  Uiso   1.00
N506   N     0.73669   0.38295   0.06510   0.00000  Uiso   1.00
C507   C     0.16743   0.06946   0.54890   0.00000  Uiso   1.00
C508   C     0.20175   0.09804   0.61541   0.00000  Uiso   1.00
C509   C     0.22587   0.13825   0.58376   0.00000  Uiso   1.00
C510   C     0.25564   0.15927   0.65617   0.00000  Uiso   1.00
C511   C     0.30808   0.20647   0.74417   0.00000  Uiso   1.00
C512   C     0.12112   0.06797   0.60955   0.00000  Uiso   1.00
C513   C     0.07745   0.08289   0.57295   0.00000  Uiso   1.00
C514   C     0.03934   0.07859   0.64043   0.00000  Uiso   1.00
C515   C     0.96660   0.07908   0.71931   0.00000  Uiso   1.00
C516   C     0.18627   0.01897   0.54846   0.00000  Uiso   1.00
C517   C     0.19736   0.99270   0.46051   0.00000  Uiso   1.00
C518   C     0.21409   0.94715   0.47655   0.00000  Uiso   1.00
C519   C     0.24249   0.87157   0.46058   0.00000  Uiso   1.00
C520   C     0.17741   0.03529   0.73379   0.00000  Uiso   1.00
C521   C     0.20716   0.07947   0.71583   0.00000  Uiso   1.00
C522   C     0.23691   0.10044   0.78831   0.00000  Uiso   1.00
C523   C     0.26107   0.14068   0.75677   0.00000  Uiso   1.00
C524   C     0.12654   0.04941   0.70996   0.00000  Uiso   1.00
C525   C     0.08849   0.04508   0.77751   0.00000  Uiso   1.00
C526   C     0.04477   0.06000   0.74103   0.00000  Uiso   1.00
C527   C     0.19168   0.00041   0.64888   0.00000  Uiso   1.00
C528   C     0.20840   0.95489   0.66507   0.00000  Uiso   1.00
C529   C     0.21952   0.92856   0.57716   0.00000  Uiso   1.00
H530   H     0.16321   0.08391   0.47072   0.00000  Uiso   1.00
H531   H     0.22166   0.15260   0.50604   0.00000  Uiso   1.00
H532   H     0.07327   0.09725   0.49524   0.00000  Uiso   1.00
H533   H     0.19316   0.00708   0.38281   0.00000  Uiso   1.00
H534   H     0.28884   0.22058   0.58949   0.00000  Uiso   1.00
H535   H     0.97594   0.10385   0.56670   0.00000  Uiso   1.00
H536   H     0.22875   0.91370   0.32962   0.00000  Uiso   1.00
H537   H     0.18163   0.02084   0.81197   0.00000  Uiso   1.00
H538   H     0.24109   0.08607   0.86602   0.00000  Uiso   1.00
H539   H     0.09269   0.03071   0.85521   0.00000  Uiso   1.00
H540   H     0.21259   0.94054   0.74279   0.00000  Uiso   1.00
H541   H     0.30461   0.16658   0.88166   0.00000  Uiso   1.00
H542   H     0.99170   0.04985   0.85887   0.00000  Uiso   1.00
H543   H     0.24452   0.85970   0.62180   0.00000  Uiso   1.00
O544   O     0.33550   0.23764   0.76498   0.00000  Uiso   1.00
O545   O     0.92498   0.08448   0.73507   0.00000  Uiso   1.00
O546   O     0.25667   0.83501   0.42404   0.00000  Uiso   1.00
N547   N     0.28440   0.19892   0.65083   0.00000  Uiso   1.00
N548   N     0.99185   0.08978   0.62953   0.00000  Uiso   1.00
N549   N     0.22820   0.91201   0.40788   0.00000  Uiso   1.00
N550   N     0.29289   0.16986   0.80804   0.00000  Uiso   1.00
N551   N     0.00034   0.06073   0.78674   0.00000  Uiso   1.00
N552   N     0.23669   0.88295   0.56510   0.00000  Uiso   1.00
C553   C     0.56946   0.83257   0.29890   0.00000  Uiso   1.00
C554   C     0.59804   0.79825   0.36541   0.00000  Uiso   1.00
C555   C     0.63825   0.77413   0.33376   0.00000  Uiso   1.00
C556   C     0.65927   0.74436   0.40617   0.00000  Uiso   1.00
C557   C     0.70647   0.69192   0.49417   0.00000  Uiso   1.00
C558   C     0.56797   0.87888   0.35955   0.00000  Uiso   1.00
C559   C     0.58289   0.92255   0.32295   0.00000  Uiso   1.00
C560   C     0.57859   0.96066   0.39043   0.00000  Uiso   1.00
C561   C     0.57908   0.03340   0.46931   0.00000  Uiso   1.00
C562   C     0.51897   0.81373   0.29846   0.00000  Uiso   1.00
C563   C     0.49270   0.80264   0.21051   0.00000  Uiso   1.00
C564   C     0.44715   0.78591   0.22655   0.00000  Uiso   1.00
C565   C     0.37157   0.75751   0.21058   0.00000  Uiso   1.00
C566   C     0.53529   0.82259   0.48379   0.00000  Uiso   1.00
C567   C     0.57947   0.79284   0.46583   0.00000  Uiso   1.00
C568   C     0.60044   0.76309   0.53831   0.00000  Uiso   1.00
C569   C     0.64068   0.73893   0.50677   0.00000  Uiso   1.00
C570   C     0.54941   0.87346   0.45996   0.00000  Uiso   1.00
C571   C     0.54508   0.91151   0.52751   0.00000  Uiso   1.00
C572   C     0.56000   0.95523   0.49103   0.00000  Uiso   1.00
C573   C     0.50041   0.80832   0.39888   0.00000  Uiso   1.00
C574   C     0.45489   0.79160   0.41507   0.00000  Uiso   1.00
C575   C     0.42856   0.78048   0.32716   0.00000  Uiso   1.00
H576   H     0.58391   0.83679   0.22072   0.00000  Uiso   1.00
H577   H     0.65260   0.77834   0.25604   0.00000  Uiso   1.00
H578   H     0.59725   0.92673   0.24524   0.00000  Uiso   1.00
H579   H     0.50708   0.80684   0.13281   0.00000  Uiso   1.00
H580   H     0.72058   0.71116   0.33949   0.00000  Uiso   1.00
H581   H     0.60385   0.02406   0.31670   0.00000  Uiso   1.00
H582   H     0.41370   0.77125   0.07962   0.00000  Uiso   1.00
H583   H     0.52084   0.81837   0.56197   0.00000  Uiso   1.00
H584   H     0.58607   0.75891   0.61602   0.00000  Uiso   1.00
H585   H     0.53071   0.90731   0.60521   0.00000  Uiso   1.00
H586   H     0.44054   0.78741   0.49279   0.00000  Uiso   1.00
H587   H     0.66658   0.69539   0.63166   0.00000  Uiso   1.00
H588   H     0.54985   0.00830   0.60887   0.00000  Uiso   1.00
H589   H     0.35970   0.75548   0.37180   0.00000  Uiso   1.00
O590   O     0.73764   0.66450   0.51498   0.00000  Uiso   1.00
O591   O     0.58448   0.07502   0.48507   0.00000  Uiso   1.00
O592   O     0.33501   0.74333   0.17404   0.00000  Uiso   1.00
N593   N     0.69892   0.71560   0.40083   0.00000  Uiso   1.00
N594   N     0.58978   0.00815   0.37953   0.00000  Uiso   1.00
N595   N     0.41201   0.77180   0.15788   0.00000  Uiso   1.00
N596   N     0.66986   0.70711   0.55804   0.00000  Uiso   1.00
N597   N     0.56073   0.99966   0.53674   0.00000  Uiso   1.00
N598   N     0.38295   0.76331   0.31510   0.00000  Uiso   1.00
C599   C     0.06946   0.33257   0.79890   0.00000  Uiso   1.00
C600   C     0.09804   0.29825   0.86541   0.00000  Uiso   1.00
C601   C     0.13825   0.27413   0.83376   0.00000  Uiso   1.00
C602   C     0.15927   0.24436   0.90617   0.00000  Uiso   1.00
C603   C     0.20647   0.19192   0.99417   0.00000  Uiso   1.00
C604   C     0.06797   0.37888   0.85955   0.00000  Uiso   1.00
C605   C     0.08289   0.42255   0.82295   0.00000  Uiso   1.00
C606   C     0.07859   0.46066   0.89043   0.00000  Uiso   1.00
C607   C     0.07908   0.53340   0.96931   0.00000  Uiso   1.00
C608   C     0.01897   0.31373   0.79846   0.00000  Uiso   1.00
C609   C     0.99270   0.30264   0.71051   0.00000  Uiso   1.00
C610   C     0.94715   0.28591   0.72655   0.00000  Uiso   1.00
C611   C     0.87157   0.25751   0.71058   0.00000  Uiso   1.00
C612   C     0.03529   0.32259   0.98379   0.00000  Uiso   1.00
C613   C     0.07947   0.29284   0.96583   0.00000  Uiso   1.00
C614   C     0.10044   0.26309   0.03831   0.00000  Uiso   1.00
C615   C     0.14068   0.23893   0.00677   0.00000  Uiso   1.00
C616   C     0.04941   0.37346   0.95996   0.00000  Uiso   1.00
C617   C     0.04508   0.41151   0.02751   0.00000  Uiso   1.00
C618   C     0.06000   0.45523   0.99103   0.00000  Uiso   1.00
C619   C     0.00041   0.30832   0.89888   0.00000  Uiso   1.00
C620   C     0.95489   0.29160   0.91507   0.00000  Uiso   1.00
C621   C     0.92856   0.28048   0.82716   0.00000  Uiso   1.00
H622   H     0.08391   0.33679   0.72072   0.00000  Uiso   1.00
H623   H     0.15260   0.27834   0.75604   0.00000  Uiso   1.00
H624   H     0.09725   0.42673   0.74524   0.00000  Uiso   1.00
H625   H     0.00708   0.30684   0.63281   0.00000  Uiso   1.00
H626   H     0.22058   0.21116   0.83949   0.00000  Uiso   1.00
H627   H     0.10385   0.52406   0.81670   0.00000  Uiso   1.00
H628   H     0.91370   0.27125   0.57962   0.00000  Uiso   1.00
H629   H     0.02084   0.31837   0.06197   0.00000  Uiso   1.00
H630   H     0.08607   0.25891   0.11602   0.00000  Uiso   1.00
H631   H     0.03071   0.40731   0.10521   0.00000  Uiso   1.00
H632   H     0.94054   0.28741   0.99279   0.00000  Uiso   1.00
H633   H     0.16658   0.19539   0.13166   0.00000  Uiso   1.00
H634   H     0.04985   0.50830   0.10887   0.00000  Uiso   1.00
H635   H     0.85970   0.25548   0.87180   0.00000  Uiso   1.00
O636   O     0.23764   0.16450   0.01498   0.00000  Uiso   1.00
O637   O     0.08448   0.57502   0.98507   0.00000  Uiso   1.00
O638   O     0.83501   0.24333   0.67404   0.00000  Uiso   1.00
N639   N     0.19892   0.21560   0.90083   0.00000  Uiso   1.00
N640   N     0.08978   0.50815   0.87953   0.00000  Uiso   1.00
N641   N     0.91201   0.27180   0.65788   0.00000  Uiso   1.00
N642   N     0.16986   0.20711   0.05804   0.00000  Uiso   1.00
N643   N     0.06073   0.49966   0.03674   0.00000  Uiso   1.00
N644   N     0.88295   0.26331   0.81510   0.00000  Uiso   1.00
C645   C     0.93054   0.66743   0.79890   0.00000  Uiso   1.00
C646   C     0.90196   0.70175   0.86541   0.00000  Uiso   1.00
C647   C     0.86175   0.72587   0.83376   0.00000  Uiso   1.00
C648   C     0.84073   0.75564   0.90617   0.00000  Uiso   1.00
C649   C     0.79353   0.80808   0.99417   0.00000  Uiso   1.00
C650   C     0.93203   0.62112   0.85955   0.00000  Uiso   1.00
C651   C     0.91711   0.57745   0.82295   0.00000  Uiso   1.00
C652   C     0.92141   0.53934   0.89043   0.00000  Uiso   1.00
C653   C     0.92092   0.46660   0.96931   0.00000  Uiso   1.00
C654   C     0.98103   0.68627   0.79846   0.00000  Uiso   1.00
C655   C     0.00730   0.69736   0.71051   0.00000  Uiso   1.00
C656   C     0.05285   0.71409   0.72655   0.00000  Uiso   1.00
C657   C     0.12843   0.74249   0.71058   0.00000  Uiso   1.00
C658   C     0.96471   0.67741   0.98379   0.00000  Uiso   1.00
C659   C     0.92053   0.70716   0.96583   0.00000  Uiso   1.00
C660   C     0.89956   0.73691   0.03831   0.00000  Uiso   1.00
C661   C     0.85932   0.76107   0.00677   0.00000  Uiso   1.00
C662   C     0.95059   0.62654   0.95996   0.00000  Uiso   1.00
C663   C     0.95492   0.58849   0.02751   0.00000  Uiso   1.00
C664   C     0.94000   0.54477   0.99103   0.00000  Uiso   1.00
C665   C     0.99959   0.69168   0.89888   0.00000  Uiso   1.00
C666   C     0.04511   0.70840   0.91507   0.00000  Uiso   1.00
C667   C     0.07144   0.71952   0.82716   0.00000  Uiso   1.00
H668   H     0.91609   0.66321   0.72072   0.00000  Uiso   1.00
H669   H     0.84740   0.72166   0.75604   0.00000  Uiso   1.00
H670   H     0.90275   0.57327   0.74524   0.00000  Uiso   1.00
H671   H     0.99292   0.69316   0.63281   0.00000  Uiso   1.00
H672   H     0.77942   0.78884   0.83949   0.00000  Uiso   1.00
H673   H     0.89615   0.47594   0.81670   0.00000  Uiso   1.00
H674   H     0.08630   0.72875   0.57962   0.00000  Uiso   1.00
H675   H     0.97916   0.68163   0.06197   0.00000  Uiso   1.00
H676   H     0.91393   0.74109   0.11602   0.00000  Uiso   1.00
H677   H     0.96929   0.59269   0.10521   0.00000  Uiso   1.00
H678   H     0.05946   0.71259   0.99279   0.00000  Uiso   1.00
H679   H     0.83342   0.80461   0.13166   0.00000  Uiso   1.00
H680   H     0.95015   0.49170   0.10887   0.00000  Uiso   1.00
H681   H     0.14030   0.74452   0.87180   0.00000  Uiso   1.00
O682   O     0.76236   0.83550   0.01498   0.00000  Uiso   1.00
O683   O     0.91552   0.42498   0.98507   0.00000  Uiso   1.00
O684   O     0.16499   0.75667   0.67404   0.00000  Uiso   1.00
N685   N     0.80108   0.78440   0.90083   0.00000  Uiso   1.00
N686   N     0.91022   0.49185   0.87953   0.00000  Uiso   1.00
N687   N     0.08799   0.72820   0.65788   0.00000  Uiso   1.00
N688   N     0.83014   0.79289   0.05804   0.00000  Uiso   1.00
N689   N     0.93927   0.50034   0.03674   0.00000  Uiso   1.00
N690   N     0.11705   0.73669   0.81510   0.00000  Uiso   1.00
C691   C     0.43054   0.16743   0.29890   0.00000  Uiso   1.00
C692   C     0.40196   0.20175   0.36541   0.00000  Uiso   1.00
C693   C     0.36175   0.22587   0.33376   0.00000  Uiso   1.00
C694   C     0.34073   0.25564   0.40617   0.00000  Uiso   1.00
C695   C     0.29353   0.30808   0.49417   0.00000  Uiso   1.00
C696   C     0.43203   0.12112   0.35955   0.00000  Uiso   1.00
C697   C     0.41711   0.07745   0.32295   0.00000  Uiso   1.00
C698   C     0.42141   0.03934   0.39043   0.00000  Uiso   1.00
C699   C     0.42092   0.96660   0.46931   0.00000  Uiso   1.00
C700   C     0.48103   0.18627   0.29846   0.00000  Uiso   1.00
C701   C     0.50730   0.19736   0.21051   0.00000  Uiso   1.00
C702   C     0.55285   0.21409   0.22655   0.00000  Uiso   1.00
C703   C     0.62843   0.24249   0.21058   0.00000  Uiso   1.00
C704   C     0.46471   0.17741   0.48379   0.00000  Uiso   1.00
C705   C     0.42053   0.20716   0.46583   0.00000  Uiso   1.00
C706   C     0.39956   0.23691   0.53831   0.00000  Uiso   1.00
C707   C     0.35932   0.26107   0.50677   0.00000  Uiso   1.00
C708   C     0.45059   0.12654   0.45996   0.00000  Uiso   1.00
C709   C     0.45492   0.08849   0.52751   0.00000  Uiso   1.00
C710   C     0.44000   0.04477   0.49103   0.00000  Uiso   1.00
C711   C     0.49959   0.19168   0.39888   0.00000  Uiso   1.00
C712   C     0.54511   0.20840   0.41507   0.00000  Uiso   1.00
C713   C     0.57144   0.21952   0.32716   0.00000  Uiso   1.00
H714   H     0.41609   0.16321   0.22072   0.00000  Uiso   1.00
H715   H     0.34740   0.22166   0.25604   0.00000  Uiso   1.00
H716   H     0.40275   0.07327   0.24524   0.00000  Uiso   1.00
H717   H     0.49292   0.19316   0.13281   0.00000  Uiso   1.00
H718   H     0.27942   0.28884   0.33949   0.00000  Uiso   1.00
H719   H     0.39615   0.97594   0.31670   0.00000  Uiso   1.00
H720   H     0.58630   0.22875   0.07962   0.00000  Uiso   1.00
H721   H     0.47916   0.18163   0.56197   0.00000  Uiso   1.00
H722   H     0.41393   0.24109   0.61602   0.00000  Uiso   1.00
H723   H     0.46929   0.09269   0.60521   0.00000  Uiso   1.00
H724   H     0.55946   0.21259   0.49279   0.00000  Uiso   1.00
H725   H     0.33342   0.30461   0.63166   0.00000  Uiso   1.00
H726   H     0.45015   0.99170   0.60887   0.00000  Uiso   1.00
H727   H     0.64030   0.24452   0.37180   0.00000  Uiso   1.00
O728   O     0.26236   0.33550   0.51498   0.00000  Uiso   1.00
O729   O     0.41552   0.92498   0.48507   0.00000  Uiso   1.00
O730   O     0.66499   0.25667   0.17404   0.00000  Uiso   1.00
N731   N     0.30108   0.28440   0.40083   0.00000  Uiso   1.00
N732   N     0.41022   0.99185   0.37953   0.00000  Uiso   1.00
N733   N     0.58799   0.22820   0.15788   0.00000  Uiso   1.00
N734   N     0.33014   0.29289   0.55804   0.00000  Uiso   1.00
N735   N     0.43927   0.00034   0.53674   0.00000  Uiso   1.00
N736   N     0.61705   0.23669   0.31510   0.00000  Uiso   1.00
