data_job_04535
_audit_creation_date              2018-12-19
_audit_creation_method            'Materials Studio'
_symmetry_space_group_name_H-M    'P1'
_symmetry_Int_Tables_number       1
_symmetry_cell_setting            triclinic
loop_
_symmetry_equiv_pos_as_xyz
  x,y,z
_cell_length_a                    20.8133
_cell_length_b                    20.8133
_cell_length_c                    24.2689
_cell_angle_alpha                 90.0000
_cell_angle_beta                  90.0000
_cell_angle_gamma                 90.0000
loop_
_atom_site_label
_atom_site_type_symbol
_atom_site_fract_x
_atom_site_fract_y
_atom_site_fract_z
_atom_site_U_iso_or_equiv
_atom_site_adp_type
_atom_site_occupancy
C1     C     0.07982   0.31990   0.14758   0.00000  Uiso   1.00
C2     C     0.12699   0.35375   0.18591   0.00000  Uiso   1.00
C3     C     0.11066   0.39435   0.22906   0.00000  Uiso   1.00
C4     C     0.16086   0.42058   0.25927   0.00000  Uiso   1.00
C5     C     0.22433   0.47529   0.32068   0.00000  Uiso   1.00
C6     C     0.09837   0.34001   0.08928   0.00000  Uiso   1.00
C7     C     0.05798   0.36903   0.05119   0.00000  Uiso   1.00
C8     C     0.08409   0.38368   0.00007   0.00000  Uiso   1.00
C9     C     0.10311   0.41700   0.91145   0.00000  Uiso   1.00
C10    C     0.09510   0.24841   0.15172   0.00000  Uiso   1.00
C11    C     0.05196   0.20042   0.16612   0.00000  Uiso   1.00
C12    C     0.07532   0.13795   0.16755   0.00000  Uiso   1.00
C13    C     0.08927   0.02906   0.17588   0.00000  Uiso   1.00
C14    C     0.19801   0.29431   0.12451   0.00000  Uiso   1.00
C15    C     0.19118   0.33985   0.17337   0.00000  Uiso   1.00
C16    C     0.24142   0.36603   0.20354   0.00000  Uiso   1.00
C17    C     0.22517   0.40666   0.24672   0.00000  Uiso   1.00
C18    C     0.16256   0.32611   0.07675   0.00000  Uiso   1.00
C19    C     0.18873   0.34072   0.02567   0.00000  Uiso   1.00
C20    C     0.14840   0.36976   0.98752   0.00000  Uiso   1.00
C21    C     0.15930   0.23451   0.13919   0.00000  Uiso   1.00
C22    C     0.18272   0.17210   0.14060   0.00000  Uiso   1.00
C23    C     0.13963   0.12403   0.15500   0.00000  Uiso   1.00
H24    H     0.02985   0.33073   0.15733   0.00000  Uiso   1.00
H25    H     0.06098   0.40510   0.23874   0.00000  Uiso   1.00
H26    H     0.00830   0.37978   0.06090   0.00000  Uiso   1.00
H27    H     0.00229   0.21119   0.17581   0.00000  Uiso   1.00
H28    H     0.12381   0.48144   0.32346   0.00000  Uiso   1.00
H29    H     0.01273   0.42803   0.94847   0.00000  Uiso   1.00
H30    H     0.00005   0.07254   0.19078   0.00000  Uiso   1.00
H31    H     0.24798   0.28349   0.11475   0.00000  Uiso   1.00
H32    H     0.29109   0.35527   0.19383   0.00000  Uiso   1.00
H33    H     0.23841   0.32995   0.01599   0.00000  Uiso   1.00
H34    H     0.23240   0.16136   0.13090   0.00000  Uiso   1.00
H35    H     0.31057   0.44100   0.28701   0.00000  Uiso   1.00
H36    H     0.19949   0.38759   0.91202   0.00000  Uiso   1.00
H37    H     0.18681   0.03210   0.15433   0.00000  Uiso   1.00
O38    O     0.24161   0.50931   0.35801   0.00000  Uiso   1.00
O39    O     0.09587   0.43923   0.86604   0.00000  Uiso   1.00
O40    O     0.07924   0.97283   0.18395   0.00000  Uiso   1.00
N41    N     0.16185   0.46206   0.30404   0.00000  Uiso   1.00
N42    N     0.05800   0.41214   0.95345   0.00000  Uiso   1.00
N43    N     0.04614   0.07978   0.17997   0.00000  Uiso   1.00
N44    N     0.26234   0.44030   0.28442   0.00000  Uiso   1.00
N45    N     0.15849   0.39037   0.93383   0.00000  Uiso   1.00
N46    N     0.14664   0.05802   0.16036   0.00000  Uiso   1.00
C47    C     0.92018   0.68010   0.14758   0.00000  Uiso   1.00
C48    C     0.87301   0.64625   0.18591   0.00000  Uiso   1.00
C49    C     0.88934   0.60565   0.22906   0.00000  Uiso   1.00
C50    C     0.83914   0.57942   0.25927   0.00000  Uiso   1.00
C51    C     0.77567   0.52471   0.32068   0.00000  Uiso   1.00
C52    C     0.90163   0.65999   0.08928   0.00000  Uiso   1.00
C53    C     0.94202   0.63097   0.05119   0.00000  Uiso   1.00
C54    C     0.91591   0.61632   0.00007   0.00000  Uiso   1.00
C55    C     0.89689   0.58300   0.91145   0.00000  Uiso   1.00
C56    C     0.90490   0.75159   0.15172   0.00000  Uiso   1.00
C57    C     0.94804   0.79958   0.16612   0.00000  Uiso   1.00
C58    C     0.92468   0.86205   0.16755   0.00000  Uiso   1.00
C59    C     0.91073   0.97094   0.17588   0.00000  Uiso   1.00
C60    C     0.80199   0.70569   0.12451   0.00000  Uiso   1.00
C61    C     0.80882   0.66015   0.17337   0.00000  Uiso   1.00
C62    C     0.75858   0.63397   0.20354   0.00000  Uiso   1.00
C63    C     0.77483   0.59334   0.24672   0.00000  Uiso   1.00
C64    C     0.83744   0.67389   0.07675   0.00000  Uiso   1.00
C65    C     0.81127   0.65928   0.02567   0.00000  Uiso   1.00
C66    C     0.85160   0.63024   0.98752   0.00000  Uiso   1.00
C67    C     0.84070   0.76549   0.13919   0.00000  Uiso   1.00
C68    C     0.81728   0.82790   0.14060   0.00000  Uiso   1.00
C69    C     0.86037   0.87597   0.15500   0.00000  Uiso   1.00
H70    H     0.97015   0.66927   0.15733   0.00000  Uiso   1.00
H71    H     0.93902   0.59490   0.23874   0.00000  Uiso   1.00
H72    H     0.99170   0.62022   0.06090   0.00000  Uiso   1.00
H73    H     0.99771   0.78881   0.17581   0.00000  Uiso   1.00
H74    H     0.87619   0.51856   0.32346   0.00000  Uiso   1.00
H75    H     0.98727   0.57197   0.94847   0.00000  Uiso   1.00
H76    H     0.99995   0.92746   0.19078   0.00000  Uiso   1.00
H77    H     0.75202   0.71651   0.11475   0.00000  Uiso   1.00
H78    H     0.70891   0.64473   0.19383   0.00000  Uiso   1.00
H79    H     0.76159   0.67005   0.01599   0.00000  Uiso   1.00
H80    H     0.76760   0.83864   0.13090   0.00000  Uiso   1.00
H81    H     0.68943   0.55900   0.28701   0.00000  Uiso   1.00
H82    H     0.80051   0.61241   0.91202   0.00000  Uiso   1.00
H83    H     0.81319   0.96790   0.15433   0.00000  Uiso   1.00
O84    O     0.75839   0.49069   0.35801   0.00000  Uiso   1.00
O85    O     0.90413   0.56077   0.86604   0.00000  Uiso   1.00
O86    O     0.92076   0.02717   0.18395   0.00000  Uiso   1.00
N87    N     0.83815   0.53794   0.30404   0.00000  Uiso   1.00
N88    N     0.94200   0.58786   0.95345   0.00000  Uiso   1.00
N89    N     0.95386   0.92022   0.17997   0.00000  Uiso   1.00
N90    N     0.73766   0.55970   0.28442   0.00000  Uiso   1.00
N91    N     0.84151   0.60963   0.93383   0.00000  Uiso   1.00
N92    N     0.85336   0.94198   0.16036   0.00000  Uiso   1.00
C93    C     0.18010   0.57982   0.14758   0.00000  Uiso   1.00
C94    C     0.14625   0.62699   0.18591   0.00000  Uiso   1.00
C95    C     0.10565   0.61066   0.22906   0.00000  Uiso   1.00
C96    C     0.07942   0.66086   0.25927   0.00000  Uiso   1.00
C97    C     0.02471   0.72433   0.32068   0.00000  Uiso   1.00
C98    C     0.15999   0.59837   0.08928   0.00000  Uiso   1.00
C99    C     0.13097   0.55798   0.05119   0.00000  Uiso   1.00
C100   C     0.11632   0.58409   0.00007   0.00000  Uiso   1.00
C101   C     0.08300   0.60311   0.91145   0.00000  Uiso   1.00
C102   C     0.25159   0.59510   0.15172   0.00000  Uiso   1.00
C103   C     0.29958   0.55196   0.16612   0.00000  Uiso   1.00
C104   C     0.36205   0.57532   0.16755   0.00000  Uiso   1.00
C105   C     0.47094   0.58927   0.17588   0.00000  Uiso   1.00
C106   C     0.20569   0.69801   0.12451   0.00000  Uiso   1.00
C107   C     0.16015   0.69118   0.17337   0.00000  Uiso   1.00
C108   C     0.13397   0.74142   0.20354   0.00000  Uiso   1.00
C109   C     0.09334   0.72517   0.24672   0.00000  Uiso   1.00
C110   C     0.17389   0.66256   0.07675   0.00000  Uiso   1.00
C111   C     0.15928   0.68873   0.02567   0.00000  Uiso   1.00
C112   C     0.13024   0.64840   0.98752   0.00000  Uiso   1.00
C113   C     0.26549   0.65930   0.13919   0.00000  Uiso   1.00
C114   C     0.32790   0.68272   0.14060   0.00000  Uiso   1.00
C115   C     0.37597   0.63963   0.15500   0.00000  Uiso   1.00
H116   H     0.16927   0.52985   0.15733   0.00000  Uiso   1.00
H117   H     0.09490   0.56098   0.23874   0.00000  Uiso   1.00
H118   H     0.12022   0.50830   0.06090   0.00000  Uiso   1.00
H119   H     0.28881   0.50229   0.17581   0.00000  Uiso   1.00
H120   H     0.01856   0.62381   0.32346   0.00000  Uiso   1.00
H121   H     0.07197   0.51273   0.94847   0.00000  Uiso   1.00
H122   H     0.42746   0.50005   0.19078   0.00000  Uiso   1.00
H123   H     0.21651   0.74798   0.11475   0.00000  Uiso   1.00
H124   H     0.14473   0.79109   0.19383   0.00000  Uiso   1.00
H125   H     0.17005   0.73841   0.01599   0.00000  Uiso   1.00
H126   H     0.33864   0.73240   0.13090   0.00000  Uiso   1.00
H127   H     0.05900   0.81057   0.28701   0.00000  Uiso   1.00
H128   H     0.11241   0.69949   0.91202   0.00000  Uiso   1.00
H129   H     0.46790   0.68681   0.15433   0.00000  Uiso   1.00
O130   O     0.99069   0.74161   0.35801   0.00000  Uiso   1.00
O131   O     0.06077   0.59587   0.86604   0.00000  Uiso   1.00
O132   O     0.52717   0.57924   0.18395   0.00000  Uiso   1.00
N133   N     0.03794   0.66185   0.30404   0.00000  Uiso   1.00
N134   N     0.08786   0.55800   0.95345   0.00000  Uiso   1.00
N135   N     0.42022   0.54614   0.17997   0.00000  Uiso   1.00
N136   N     0.05970   0.76234   0.28442   0.00000  Uiso   1.00
N137   N     0.10963   0.65849   0.93383   0.00000  Uiso   1.00
N138   N     0.44198   0.64664   0.16036   0.00000  Uiso   1.00
C139   C     0.81990   0.42018   0.14758   0.00000  Uiso   1.00
C140   C     0.85375   0.37301   0.18591   0.00000  Uiso   1.00
C141   C     0.89435   0.38934   0.22906   0.00000  Uiso   1.00
C142   C     0.92058   0.33914   0.25927   0.00000  Uiso   1.00
C143   C     0.97529   0.27567   0.32068   0.00000  Uiso   1.00
C144   C     0.84001   0.40163   0.08928   0.00000  Uiso   1.00
C145   C     0.86903   0.44202   0.05119   0.00000  Uiso   1.00
C146   C     0.88368   0.41591   0.00007   0.00000  Uiso   1.00
C147   C     0.91700   0.39689   0.91145   0.00000  Uiso   1.00
C148   C     0.74841   0.40490   0.15172   0.00000  Uiso   1.00
C149   C     0.70042   0.44804   0.16612   0.00000  Uiso   1.00
C150   C     0.63795   0.42468   0.16755   0.00000  Uiso   1.00
C151   C     0.52906   0.41073   0.17588   0.00000  Uiso   1.00
C152   C     0.79431   0.30199   0.12451   0.00000  Uiso   1.00
C153   C     0.83985   0.30882   0.17337   0.00000  Uiso   1.00
C154   C     0.86603   0.25858   0.20354   0.00000  Uiso   1.00
C155   C     0.90666   0.27483   0.24672   0.00000  Uiso   1.00
C156   C     0.82611   0.33744   0.07675   0.00000  Uiso   1.00
C157   C     0.84072   0.31127   0.02567   0.00000  Uiso   1.00
C158   C     0.86976   0.35160   0.98752   0.00000  Uiso   1.00
C159   C     0.73451   0.34070   0.13919   0.00000  Uiso   1.00
C160   C     0.67210   0.31728   0.14060   0.00000  Uiso   1.00
C161   C     0.62403   0.36037   0.15500   0.00000  Uiso   1.00
H162   H     0.83073   0.47015   0.15733   0.00000  Uiso   1.00
H163   H     0.90510   0.43902   0.23874   0.00000  Uiso   1.00
H164   H     0.87978   0.49170   0.06090   0.00000  Uiso   1.00
H165   H     0.71119   0.49771   0.17581   0.00000  Uiso   1.00
H166   H     0.98144   0.37619   0.32346   0.00000  Uiso   1.00
H167   H     0.92803   0.48727   0.94847   0.00000  Uiso   1.00
H168   H     0.57254   0.49995   0.19078   0.00000  Uiso   1.00
H169   H     0.78349   0.25202   0.11475   0.00000  Uiso   1.00
H170   H     0.85527   0.20891   0.19383   0.00000  Uiso   1.00
H171   H     0.82995   0.26159   0.01599   0.00000  Uiso   1.00
H172   H     0.66136   0.26760   0.13090   0.00000  Uiso   1.00
H173   H     0.94100   0.18943   0.28701   0.00000  Uiso   1.00
H174   H     0.88759   0.30051   0.91202   0.00000  Uiso   1.00
H175   H     0.53210   0.31319   0.15433   0.00000  Uiso   1.00
O176   O     0.00931   0.25839   0.35801   0.00000  Uiso   1.00
O177   O     0.93923   0.40413   0.86604   0.00000  Uiso   1.00
O178   O     0.47283   0.42076   0.18395   0.00000  Uiso   1.00
N179   N     0.96206   0.33815   0.30404   0.00000  Uiso   1.00
N180   N     0.91214   0.44200   0.95345   0.00000  Uiso   1.00
N181   N     0.57978   0.45386   0.17997   0.00000  Uiso   1.00
N182   N     0.94030   0.23766   0.28442   0.00000  Uiso   1.00
N183   N     0.89037   0.34151   0.93383   0.00000  Uiso   1.00
N184   N     0.55802   0.35336   0.16036   0.00000  Uiso   1.00
C185   C     0.42018   0.81990   0.35242   0.00000  Uiso   1.00
C186   C     0.37301   0.85375   0.31409   0.00000  Uiso   1.00
C187   C     0.38934   0.89435   0.27094   0.00000  Uiso   1.00
C188   C     0.33914   0.92058   0.24073   0.00000  Uiso   1.00
C189   C     0.27567   0.97529   0.17932   0.00000  Uiso   1.00
C190   C     0.40163   0.84001   0.41072   0.00000  Uiso   1.00
C191   C     0.44202   0.86903   0.44881   0.00000  Uiso   1.00
C192   C     0.41591   0.88368   0.49993   0.00000  Uiso   1.00
C193   C     0.39689   0.91700   0.58855   0.00000  Uiso   1.00
C194   C     0.40490   0.74841   0.34828   0.00000  Uiso   1.00
C195   C     0.44804   0.70042   0.33388   0.00000  Uiso   1.00
C196   C     0.42468   0.63795   0.33245   0.00000  Uiso   1.00
C197   C     0.41073   0.52906   0.32412   0.00000  Uiso   1.00
C198   C     0.30199   0.79431   0.37549   0.00000  Uiso   1.00
C199   C     0.30882   0.83985   0.32663   0.00000  Uiso   1.00
C200   C     0.25858   0.86603   0.29646   0.00000  Uiso   1.00
C201   C     0.27483   0.90666   0.25328   0.00000  Uiso   1.00
C202   C     0.33744   0.82611   0.42325   0.00000  Uiso   1.00
C203   C     0.31127   0.84072   0.47433   0.00000  Uiso   1.00
C204   C     0.35160   0.86976   0.51248   0.00000  Uiso   1.00
C205   C     0.34070   0.73451   0.36081   0.00000  Uiso   1.00
C206   C     0.31728   0.67210   0.35940   0.00000  Uiso   1.00
C207   C     0.36037   0.62403   0.34500   0.00000  Uiso   1.00
H208   H     0.47015   0.83073   0.34267   0.00000  Uiso   1.00
H209   H     0.43902   0.90510   0.26126   0.00000  Uiso   1.00
H210   H     0.49170   0.87978   0.43910   0.00000  Uiso   1.00
H211   H     0.49771   0.71119   0.32419   0.00000  Uiso   1.00
H212   H     0.37619   0.98144   0.17654   0.00000  Uiso   1.00
H213   H     0.48727   0.92803   0.55153   0.00000  Uiso   1.00
H214   H     0.49995   0.57254   0.30922   0.00000  Uiso   1.00
H215   H     0.25202   0.78349   0.38525   0.00000  Uiso   1.00
H216   H     0.20891   0.85527   0.30617   0.00000  Uiso   1.00
H217   H     0.26159   0.82995   0.48401   0.00000  Uiso   1.00
H218   H     0.26760   0.66136   0.36910   0.00000  Uiso   1.00
H219   H     0.18943   0.94100   0.21299   0.00000  Uiso   1.00
H220   H     0.30051   0.88759   0.58798   0.00000  Uiso   1.00
H221   H     0.31319   0.53210   0.34567   0.00000  Uiso   1.00
O222   O     0.25839   0.00931   0.14199   0.00000  Uiso   1.00
O223   O     0.40413   0.93923   0.63396   0.00000  Uiso   1.00
O224   O     0.42076   0.47283   0.31605   0.00000  Uiso   1.00
N225   N     0.33815   0.96206   0.19596   0.00000  Uiso   1.00
N226   N     0.44200   0.91214   0.54655   0.00000  Uiso   1.00
N227   N     0.45386   0.57978   0.32003   0.00000  Uiso   1.00
N228   N     0.23766   0.94030   0.21558   0.00000  Uiso   1.00
N229   N     0.34151   0.89037   0.56617   0.00000  Uiso   1.00
N230   N     0.35336   0.55802   0.33964   0.00000  Uiso   1.00
C231   C     0.57982   0.18010   0.35242   0.00000  Uiso   1.00
C232   C     0.62699   0.14625   0.31409   0.00000  Uiso   1.00
C233   C     0.61066   0.10565   0.27094   0.00000  Uiso   1.00
C234   C     0.66086   0.07942   0.24073   0.00000  Uiso   1.00
C235   C     0.72433   0.02471   0.17932   0.00000  Uiso   1.00
C236   C     0.59837   0.15999   0.41072   0.00000  Uiso   1.00
C237   C     0.55798   0.13097   0.44881   0.00000  Uiso   1.00
C238   C     0.58409   0.11632   0.49993   0.00000  Uiso   1.00
C239   C     0.60311   0.08300   0.58855   0.00000  Uiso   1.00
C240   C     0.59510   0.25159   0.34828   0.00000  Uiso   1.00
C241   C     0.55196   0.29958   0.33388   0.00000  Uiso   1.00
C242   C     0.57532   0.36205   0.33245   0.00000  Uiso   1.00
C243   C     0.58927   0.47094   0.32412   0.00000  Uiso   1.00
C244   C     0.69801   0.20569   0.37549   0.00000  Uiso   1.00
C245   C     0.69118   0.16015   0.32663   0.00000  Uiso   1.00
C246   C     0.74142   0.13397   0.29646   0.00000  Uiso   1.00
C247   C     0.72517   0.09334   0.25328   0.00000  Uiso   1.00
C248   C     0.66256   0.17389   0.42325   0.00000  Uiso   1.00
C249   C     0.68873   0.15928   0.47433   0.00000  Uiso   1.00
C250   C     0.64840   0.13024   0.51248   0.00000  Uiso   1.00
C251   C     0.65930   0.26549   0.36081   0.00000  Uiso   1.00
C252   C     0.68272   0.32790   0.35940   0.00000  Uiso   1.00
C253   C     0.63963   0.37597   0.34500   0.00000  Uiso   1.00
H254   H     0.52985   0.16927   0.34267   0.00000  Uiso   1.00
H255   H     0.56098   0.09490   0.26126   0.00000  Uiso   1.00
H256   H     0.50830   0.12022   0.43910   0.00000  Uiso   1.00
H257   H     0.50229   0.28881   0.32419   0.00000  Uiso   1.00
H258   H     0.62381   0.01856   0.17654   0.00000  Uiso   1.00
H259   H     0.51273   0.07197   0.55153   0.00000  Uiso   1.00
H260   H     0.50005   0.42746   0.30922   0.00000  Uiso   1.00
H261   H     0.74798   0.21651   0.38525   0.00000  Uiso   1.00
H262   H     0.79109   0.14473   0.30617   0.00000  Uiso   1.00
H263   H     0.73841   0.17005   0.48401   0.00000  Uiso   1.00
H264   H     0.73240   0.33864   0.36910   0.00000  Uiso   1.00
H265   H     0.81057   0.05900   0.21299   0.00000  Uiso   1.00
H266   H     0.69949   0.11241   0.58798   0.00000  Uiso   1.00
H267   H     0.68681   0.46790   0.34567   0.00000  Uiso   1.00
O268   O     0.74161   0.99069   0.14199   0.00000  Uiso   1.00
O269   O     0.59587   0.06077   0.63396   0.00000  Uiso   1.00
O270   O     0.57924   0.52717   0.31605   0.00000  Uiso   1.00
N271   N     0.66185   0.03794   0.19596   0.00000  Uiso   1.00
N272   N     0.55800   0.08786   0.54655   0.00000  Uiso   1.00
N273   N     0.54614   0.42022   0.32003   0.00000  Uiso   1.00
N274   N     0.76234   0.05970   0.21558   0.00000  Uiso   1.00
N275   N     0.65849   0.10963   0.56617   0.00000  Uiso   1.00
N276   N     0.64664   0.44198   0.33964   0.00000  Uiso   1.00
C277   C     0.31990   0.07982   0.35242   0.00000  Uiso   1.00
C278   C     0.35375   0.12699   0.31409   0.00000  Uiso   1.00
C279   C     0.39435   0.11066   0.27094   0.00000  Uiso   1.00
C280   C     0.42058   0.16086   0.24073   0.00000  Uiso   1.00
C281   C     0.47529   0.22433   0.17932   0.00000  Uiso   1.00
C282   C     0.34001   0.09837   0.41072   0.00000  Uiso   1.00
C283   C     0.36903   0.05798   0.44881   0.00000  Uiso   1.00
C284   C     0.38368   0.08409   0.49993   0.00000  Uiso   1.00
C285   C     0.41700   0.10311   0.58855   0.00000  Uiso   1.00
C286   C     0.24841   0.09510   0.34828   0.00000  Uiso   1.00
C287   C     0.20042   0.05196   0.33388   0.00000  Uiso   1.00
C288   C     0.13795   0.07532   0.33245   0.00000  Uiso   1.00
C289   C     0.02906   0.08927   0.32412   0.00000  Uiso   1.00
C290   C     0.29431   0.19801   0.37549   0.00000  Uiso   1.00
C291   C     0.33985   0.19118   0.32663   0.00000  Uiso   1.00
C292   C     0.36603   0.24142   0.29646   0.00000  Uiso   1.00
C293   C     0.40666   0.22517   0.25328   0.00000  Uiso   1.00
C294   C     0.32611   0.16256   0.42325   0.00000  Uiso   1.00
C295   C     0.34072   0.18873   0.47433   0.00000  Uiso   1.00
C296   C     0.36976   0.14840   0.51248   0.00000  Uiso   1.00
C297   C     0.23451   0.15930   0.36081   0.00000  Uiso   1.00
C298   C     0.17210   0.18272   0.35940   0.00000  Uiso   1.00
C299   C     0.12403   0.13963   0.34500   0.00000  Uiso   1.00
H300   H     0.33073   0.02985   0.34267   0.00000  Uiso   1.00
H301   H     0.40510   0.06098   0.26126   0.00000  Uiso   1.00
H302   H     0.37978   0.00830   0.43910   0.00000  Uiso   1.00
H303   H     0.21119   0.00229   0.32419   0.00000  Uiso   1.00
H304   H     0.48144   0.12381   0.17654   0.00000  Uiso   1.00
H305   H     0.42803   0.01273   0.55153   0.00000  Uiso   1.00
H306   H     0.07254   0.00005   0.30922   0.00000  Uiso   1.00
H307   H     0.28349   0.24798   0.38525   0.00000  Uiso   1.00
H308   H     0.35527   0.29109   0.30617   0.00000  Uiso   1.00
H309   H     0.32995   0.23841   0.48401   0.00000  Uiso   1.00
H310   H     0.16136   0.23240   0.36910   0.00000  Uiso   1.00
H311   H     0.44100   0.31057   0.21299   0.00000  Uiso   1.00
H312   H     0.38759   0.19949   0.58798   0.00000  Uiso   1.00
H313   H     0.03210   0.18681   0.34567   0.00000  Uiso   1.00
O314   O     0.50931   0.24161   0.14199   0.00000  Uiso   1.00
O315   O     0.43923   0.09587   0.63396   0.00000  Uiso   1.00
O316   O     0.97283   0.07924   0.31605   0.00000  Uiso   1.00
N317   N     0.46206   0.16185   0.19596   0.00000  Uiso   1.00
N318   N     0.41214   0.05800   0.54655   0.00000  Uiso   1.00
N319   N     0.07978   0.04614   0.32003   0.00000  Uiso   1.00
N320   N     0.44030   0.26234   0.21558   0.00000  Uiso   1.00
N321   N     0.39037   0.15849   0.56617   0.00000  Uiso   1.00
N322   N     0.05802   0.14664   0.33964   0.00000  Uiso   1.00
C323   C     0.68010   0.92018   0.35242   0.00000  Uiso   1.00
C324   C     0.64625   0.87301   0.31409   0.00000  Uiso   1.00
C325   C     0.60565   0.88934   0.27094   0.00000  Uiso   1.00
C326   C     0.57942   0.83914   0.24073   0.00000  Uiso   1.00
C327   C     0.52471   0.77567   0.17932   0.00000  Uiso   1.00
C328   C     0.65999   0.90163   0.41072   0.00000  Uiso   1.00
C329   C     0.63097   0.94202   0.44881   0.00000  Uiso   1.00
C330   C     0.61632   0.91591   0.49993   0.00000  Uiso   1.00
C331   C     0.58300   0.89689   0.58855   0.00000  Uiso   1.00
C332   C     0.75159   0.90490   0.34828   0.00000  Uiso   1.00
C333   C     0.79958   0.94804   0.33388   0.00000  Uiso   1.00
C334   C     0.86205   0.92468   0.33245   0.00000  Uiso   1.00
C335   C     0.97094   0.91073   0.32412   0.00000  Uiso   1.00
C336   C     0.70569   0.80199   0.37549   0.00000  Uiso   1.00
C337   C     0.66015   0.80882   0.32663   0.00000  Uiso   1.00
C338   C     0.63397   0.75858   0.29646   0.00000  Uiso   1.00
C339   C     0.59334   0.77483   0.25328   0.00000  Uiso   1.00
C340   C     0.67389   0.83744   0.42325   0.00000  Uiso   1.00
C341   C     0.65928   0.81127   0.47433   0.00000  Uiso   1.00
C342   C     0.63024   0.85160   0.51248   0.00000  Uiso   1.00
C343   C     0.76549   0.84070   0.36081   0.00000  Uiso   1.00
C344   C     0.82790   0.81728   0.35940   0.00000  Uiso   1.00
C345   C     0.87597   0.86037   0.34500   0.00000  Uiso   1.00
H346   H     0.66927   0.97015   0.34267   0.00000  Uiso   1.00
H347   H     0.59490   0.93902   0.26126   0.00000  Uiso   1.00
H348   H     0.62022   0.99170   0.43910   0.00000  Uiso   1.00
H349   H     0.78881   0.99771   0.32419   0.00000  Uiso   1.00
H350   H     0.51856   0.87619   0.17654   0.00000  Uiso   1.00
H351   H     0.57197   0.98727   0.55153   0.00000  Uiso   1.00
H352   H     0.92746   0.99995   0.30922   0.00000  Uiso   1.00
H353   H     0.71651   0.75202   0.38525   0.00000  Uiso   1.00
H354   H     0.64473   0.70891   0.30617   0.00000  Uiso   1.00
H355   H     0.67005   0.76159   0.48401   0.00000  Uiso   1.00
H356   H     0.83864   0.76760   0.36910   0.00000  Uiso   1.00
H357   H     0.55900   0.68943   0.21299   0.00000  Uiso   1.00
H358   H     0.61241   0.80051   0.58798   0.00000  Uiso   1.00
H359   H     0.96790   0.81319   0.34567   0.00000  Uiso   1.00
O360   O     0.49069   0.75839   0.14199   0.00000  Uiso   1.00
O361   O     0.56077   0.90413   0.63396   0.00000  Uiso   1.00
O362   O     0.02717   0.92076   0.31605   0.00000  Uiso   1.00
N363   N     0.53794   0.83815   0.19596   0.00000  Uiso   1.00
N364   N     0.58786   0.94200   0.54655   0.00000  Uiso   1.00
N365   N     0.92022   0.95386   0.32003   0.00000  Uiso   1.00
N366   N     0.55970   0.73766   0.21558   0.00000  Uiso   1.00
N367   N     0.60963   0.84151   0.56617   0.00000  Uiso   1.00
N368   N     0.94198   0.85336   0.33964   0.00000  Uiso   1.00
C369   C     0.42018   0.18010   0.85242   0.00000  Uiso   1.00
C370   C     0.37301   0.14625   0.81409   0.00000  Uiso   1.00
C371   C     0.38934   0.10565   0.77094   0.00000  Uiso   1.00
C372   C     0.33914   0.07942   0.74073   0.00000  Uiso   1.00
C373   C     0.27567   0.02471   0.67932   0.00000  Uiso   1.00
C374   C     0.40163   0.15999   0.91072   0.00000  Uiso   1.00
C375   C     0.44202   0.13097   0.94881   0.00000  Uiso   1.00
C376   C     0.41591   0.11632   0.99993   0.00000  Uiso   1.00
C377   C     0.39689   0.08300   0.08855   0.00000  Uiso   1.00
C378   C     0.40490   0.25159   0.84828   0.00000  Uiso   1.00
C379   C     0.44804   0.29958   0.83388   0.00000  Uiso   1.00
C380   C     0.42468   0.36205   0.83245   0.00000  Uiso   1.00
C381   C     0.41073   0.47094   0.82412   0.00000  Uiso   1.00
C382   C     0.30199   0.20569   0.87549   0.00000  Uiso   1.00
C383   C     0.30882   0.16015   0.82663   0.00000  Uiso   1.00
C384   C     0.25858   0.13397   0.79646   0.00000  Uiso   1.00
C385   C     0.27483   0.09334   0.75328   0.00000  Uiso   1.00
C386   C     0.33744   0.17389   0.92325   0.00000  Uiso   1.00
C387   C     0.31127   0.15928   0.97433   0.00000  Uiso   1.00
C388   C     0.35160   0.13024   0.01248   0.00000  Uiso   1.00
C389   C     0.34070   0.26549   0.86081   0.00000  Uiso   1.00
C390   C     0.31728   0.32790   0.85940   0.00000  Uiso   1.00
C391   C     0.36037   0.37597   0.84500   0.00000  Uiso   1.00
H392   H     0.47015   0.16927   0.84267   0.00000  Uiso   1.00
H393   H     0.43902   0.09490   0.76126   0.00000  Uiso   1.00
H394   H     0.49170   0.12022   0.93910   0.00000  Uiso   1.00
H395   H     0.49771   0.28881   0.82419   0.00000  Uiso   1.00
H396   H     0.37619   0.01856   0.67654   0.00000  Uiso   1.00
H397   H     0.48727   0.07197   0.05153   0.00000  Uiso   1.00
H398   H     0.49995   0.42746   0.80922   0.00000  Uiso   1.00
H399   H     0.25202   0.21651   0.88525   0.00000  Uiso   1.00
H400   H     0.20891   0.14473   0.80617   0.00000  Uiso   1.00
H401   H     0.26159   0.17005   0.98401   0.00000  Uiso   1.00
H402   H     0.26760   0.33864   0.86910   0.00000  Uiso   1.00
H403   H     0.18943   0.05900   0.71299   0.00000  Uiso   1.00
H404   H     0.30051   0.11241   0.08798   0.00000  Uiso   1.00
H405   H     0.31319   0.46790   0.84567   0.00000  Uiso   1.00
O406   O     0.25839   0.99069   0.64199   0.00000  Uiso   1.00
O407   O     0.40413   0.06077   0.13396   0.00000  Uiso   1.00
O408   O     0.42076   0.52717   0.81605   0.00000  Uiso   1.00
N409   N     0.33815   0.03794   0.69596   0.00000  Uiso   1.00
N410   N     0.44200   0.08786   0.04655   0.00000  Uiso   1.00
N411   N     0.45386   0.42022   0.82003   0.00000  Uiso   1.00
N412   N     0.23766   0.05970   0.71558   0.00000  Uiso   1.00
N413   N     0.34151   0.10963   0.06617   0.00000  Uiso   1.00
N414   N     0.35336   0.44198   0.83964   0.00000  Uiso   1.00
C415   C     0.57982   0.81990   0.85242   0.00000  Uiso   1.00
C416   C     0.62699   0.85375   0.81409   0.00000  Uiso   1.00
C417   C     0.61066   0.89435   0.77094   0.00000  Uiso   1.00
C418   C     0.66086   0.92058   0.74073   0.00000  Uiso   1.00
C419   C     0.72433   0.97529   0.67932   0.00000  Uiso   1.00
C420   C     0.59837   0.84001   0.91072   0.00000  Uiso   1.00
C421   C     0.55798   0.86903   0.94881   0.00000  Uiso   1.00
C422   C     0.58409   0.88368   0.99993   0.00000  Uiso   1.00
C423   C     0.60311   0.91700   0.08855   0.00000  Uiso   1.00
C424   C     0.59510   0.74841   0.84828   0.00000  Uiso   1.00
C425   C     0.55196   0.70042   0.83388   0.00000  Uiso   1.00
C426   C     0.57532   0.63795   0.83245   0.00000  Uiso   1.00
C427   C     0.58927   0.52906   0.82412   0.00000  Uiso   1.00
C428   C     0.69801   0.79431   0.87549   0.00000  Uiso   1.00
C429   C     0.69118   0.83985   0.82663   0.00000  Uiso   1.00
C430   C     0.74142   0.86603   0.79646   0.00000  Uiso   1.00
C431   C     0.72517   0.90666   0.75328   0.00000  Uiso   1.00
C432   C     0.66256   0.82611   0.92325   0.00000  Uiso   1.00
C433   C     0.68873   0.84072   0.97433   0.00000  Uiso   1.00
C434   C     0.64840   0.86976   0.01248   0.00000  Uiso   1.00
C435   C     0.65930   0.73451   0.86081   0.00000  Uiso   1.00
C436   C     0.68272   0.67210   0.85940   0.00000  Uiso   1.00
C437   C     0.63963   0.62403   0.84500   0.00000  Uiso   1.00
H438   H     0.52985   0.83073   0.84267   0.00000  Uiso   1.00
H439   H     0.56098   0.90510   0.76126   0.00000  Uiso   1.00
H440   H     0.50830   0.87978   0.93910   0.00000  Uiso   1.00
H441   H     0.50229   0.71119   0.82419   0.00000  Uiso   1.00
H442   H     0.62381   0.98144   0.67654   0.00000  Uiso   1.00
H443   H     0.51273   0.92803   0.05153   0.00000  Uiso   1.00
H444   H     0.50005   0.57254   0.80922   0.00000  Uiso   1.00
H445   H     0.74798   0.78349   0.88525   0.00000  Uiso   1.00
H446   H     0.79109   0.85527   0.80617   0.00000  Uiso   1.00
H447   H     0.73841   0.82995   0.98401   0.00000  Uiso   1.00
H448   H     0.73240   0.66136   0.86910   0.00000  Uiso   1.00
H449   H     0.81057   0.94100   0.71299   0.00000  Uiso   1.00
H450   H     0.69949   0.88759   0.08798   0.00000  Uiso   1.00
H451   H     0.68681   0.53210   0.84567   0.00000  Uiso   1.00
O452   O     0.74161   0.00931   0.64199   0.00000  Uiso   1.00
O453   O     0.59587   0.93923   0.13396   0.00000  Uiso   1.00
O454   O     0.57924   0.47283   0.81605   0.00000  Uiso   1.00
N455   N     0.66185   0.96206   0.69596   0.00000  Uiso   1.00
N456   N     0.55800   0.91214   0.04655   0.00000  Uiso   1.00
N457   N     0.54614   0.57978   0.82003   0.00000  Uiso   1.00
N458   N     0.76234   0.94030   0.71558   0.00000  Uiso   1.00
N459   N     0.65849   0.89037   0.06617   0.00000  Uiso   1.00
N460   N     0.64664   0.55802   0.83964   0.00000  Uiso   1.00
C461   C     0.31990   0.92018   0.85242   0.00000  Uiso   1.00
C462   C     0.35375   0.87301   0.81409   0.00000  Uiso   1.00
C463   C     0.39435   0.88934   0.77094   0.00000  Uiso   1.00
C464   C     0.42058   0.83914   0.74073   0.00000  Uiso   1.00
C465   C     0.47529   0.77567   0.67932   0.00000  Uiso   1.00
C466   C     0.34001   0.90163   0.91072   0.00000  Uiso   1.00
C467   C     0.36903   0.94202   0.94881   0.00000  Uiso   1.00
C468   C     0.38368   0.91591   0.99993   0.00000  Uiso   1.00
C469   C     0.41700   0.89689   0.08855   0.00000  Uiso   1.00
C470   C     0.24841   0.90490   0.84828   0.00000  Uiso   1.00
C471   C     0.20042   0.94804   0.83388   0.00000  Uiso   1.00
C472   C     0.13795   0.92468   0.83245   0.00000  Uiso   1.00
C473   C     0.02906   0.91073   0.82412   0.00000  Uiso   1.00
C474   C     0.29431   0.80199   0.87549   0.00000  Uiso   1.00
C475   C     0.33985   0.80882   0.82663   0.00000  Uiso   1.00
C476   C     0.36603   0.75858   0.79646   0.00000  Uiso   1.00
C477   C     0.40666   0.77483   0.75328   0.00000  Uiso   1.00
C478   C     0.32611   0.83744   0.92325   0.00000  Uiso   1.00
C479   C     0.34072   0.81127   0.97433   0.00000  Uiso   1.00
C480   C     0.36976   0.85160   0.01248   0.00000  Uiso   1.00
C481   C     0.23451   0.84070   0.86081   0.00000  Uiso   1.00
C482   C     0.17210   0.81728   0.85940   0.00000  Uiso   1.00
C483   C     0.12403   0.86037   0.84500   0.00000  Uiso   1.00
H484   H     0.33073   0.97015   0.84267   0.00000  Uiso   1.00
H485   H     0.40510   0.93902   0.76126   0.00000  Uiso   1.00
H486   H     0.37978   0.99170   0.93910   0.00000  Uiso   1.00
H487   H     0.21119   0.99771   0.82419   0.00000  Uiso   1.00
H488   H     0.48144   0.87619   0.67654   0.00000  Uiso   1.00
H489   H     0.42803   0.98727   0.05153   0.00000  Uiso   1.00
H490   H     0.07254   0.99995   0.80922   0.00000  Uiso   1.00
H491   H     0.28349   0.75202   0.88525   0.00000  Uiso   1.00
H492   H     0.35527   0.70891   0.80617   0.00000  Uiso   1.00
H493   H     0.32995   0.76159   0.98401   0.00000  Uiso   1.00
H494   H     0.16136   0.76760   0.86910   0.00000  Uiso   1.00
H495   H     0.44100   0.68943   0.71299   0.00000  Uiso   1.00
H496   H     0.38759   0.80051   0.08798   0.00000  Uiso   1.00
H497   H     0.03210   0.81319   0.84567   0.00000  Uiso   1.00
O498   O     0.50931   0.75839   0.64199   0.00000  Uiso   1.00
O499   O     0.43923   0.90413   0.13396   0.00000  Uiso   1.00
O500   O     0.97283   0.92076   0.81605   0.00000  Uiso   1.00
N501   N     0.46206   0.83815   0.69596   0.00000  Uiso   1.00
N502   N     0.41214   0.94200   0.04655   0.00000  Uiso   1.00
N503   N     0.07978   0.95386   0.82003   0.00000  Uiso   1.00
N504   N     0.44030   0.73766   0.71558   0.00000  Uiso   1.00
N505   N     0.39037   0.84151   0.06617   0.00000  Uiso   1.00
N506   N     0.05802   0.85336   0.83964   0.00000  Uiso   1.00
C507   C     0.68010   0.07982   0.85242   0.00000  Uiso   1.00
C508   C     0.64625   0.12699   0.81409   0.00000  Uiso   1.00
C509   C     0.60565   0.11066   0.77094   0.00000  Uiso   1.00
C510   C     0.57942   0.16086   0.74073   0.00000  Uiso   1.00
C511   C     0.52471   0.22433   0.67932   0.00000  Uiso   1.00
C512   C     0.65999   0.09837   0.91072   0.00000  Uiso   1.00
C513   C     0.63097   0.05798   0.94881   0.00000  Uiso   1.00
C514   C     0.61632   0.08409   0.99993   0.00000  Uiso   1.00
C515   C     0.58300   0.10311   0.08855   0.00000  Uiso   1.00
C516   C     0.75159   0.09510   0.84828   0.00000  Uiso   1.00
C517   C     0.79958   0.05196   0.83388   0.00000  Uiso   1.00
C518   C     0.86205   0.07532   0.83245   0.00000  Uiso   1.00
C519   C     0.97094   0.08927   0.82412   0.00000  Uiso   1.00
C520   C     0.70569   0.19801   0.87549   0.00000  Uiso   1.00
C521   C     0.66015   0.19118   0.82663   0.00000  Uiso   1.00
C522   C     0.63397   0.24142   0.79646   0.00000  Uiso   1.00
C523   C     0.59334   0.22517   0.75328   0.00000  Uiso   1.00
C524   C     0.67389   0.16256   0.92325   0.00000  Uiso   1.00
C525   C     0.65928   0.18873   0.97433   0.00000  Uiso   1.00
C526   C     0.63024   0.14840   0.01248   0.00000  Uiso   1.00
C527   C     0.76549   0.15930   0.86081   0.00000  Uiso   1.00
C528   C     0.82790   0.18272   0.85940   0.00000  Uiso   1.00
C529   C     0.87597   0.13963   0.84500   0.00000  Uiso   1.00
H530   H     0.66927   0.02985   0.84267   0.00000  Uiso   1.00
H531   H     0.59490   0.06098   0.76126   0.00000  Uiso   1.00
H532   H     0.62022   0.00830   0.93910   0.00000  Uiso   1.00
H533   H     0.78881   0.00229   0.82419   0.00000  Uiso   1.00
H534   H     0.51856   0.12381   0.67654   0.00000  Uiso   1.00
H535   H     0.57197   0.01273   0.05153   0.00000  Uiso   1.00
H536   H     0.92746   0.00005   0.80922   0.00000  Uiso   1.00
H537   H     0.71651   0.24798   0.88525   0.00000  Uiso   1.00
H538   H     0.64473   0.29109   0.80617   0.00000  Uiso   1.00
H539   H     0.67005   0.23841   0.98401   0.00000  Uiso   1.00
H540   H     0.83864   0.23240   0.86910   0.00000  Uiso   1.00
H541   H     0.55900   0.31057   0.71299   0.00000  Uiso   1.00
H542   H     0.61241   0.19949   0.08798   0.00000  Uiso   1.00
H543   H     0.96790   0.18681   0.84567   0.00000  Uiso   1.00
O544   O     0.49069   0.24161   0.64199   0.00000  Uiso   1.00
O545   O     0.56077   0.09587   0.13396   0.00000  Uiso   1.00
O546   O     0.02717   0.07924   0.81605   0.00000  Uiso   1.00
N547   N     0.53794   0.16185   0.69596   0.00000  Uiso   1.00
N548   N     0.58786   0.05800   0.04655   0.00000  Uiso   1.00
N549   N     0.92022   0.04614   0.82003   0.00000  Uiso   1.00
N550   N     0.55970   0.26234   0.71558   0.00000  Uiso   1.00
N551   N     0.60963   0.15849   0.06617   0.00000  Uiso   1.00
N552   N     0.94198   0.14664   0.83964   0.00000  Uiso   1.00
C553   C     0.07982   0.68010   0.64758   0.00000  Uiso   1.00
C554   C     0.12699   0.64625   0.68591   0.00000  Uiso   1.00
C555   C     0.11066   0.60565   0.72906   0.00000  Uiso   1.00
C556   C     0.16086   0.57942   0.75927   0.00000  Uiso   1.00
C557   C     0.22433   0.52471   0.82068   0.00000  Uiso   1.00
C558   C     0.09837   0.65999   0.58928   0.00000  Uiso   1.00
C559   C     0.05798   0.63097   0.55119   0.00000  Uiso   1.00
C560   C     0.08409   0.61632   0.50007   0.00000  Uiso   1.00
C561   C     0.10311   0.58300   0.41145   0.00000  Uiso   1.00
C562   C     0.09510   0.75159   0.65172   0.00000  Uiso   1.00
C563   C     0.05196   0.79958   0.66612   0.00000  Uiso   1.00
C564   C     0.07532   0.86205   0.66755   0.00000  Uiso   1.00
C565   C     0.08927   0.97094   0.67588   0.00000  Uiso   1.00
C566   C     0.19801   0.70569   0.62451   0.00000  Uiso   1.00
C567   C     0.19118   0.66015   0.67337   0.00000  Uiso   1.00
C568   C     0.24142   0.63397   0.70354   0.00000  Uiso   1.00
C569   C     0.22517   0.59334   0.74672   0.00000  Uiso   1.00
C570   C     0.16256   0.67389   0.57675   0.00000  Uiso   1.00
C571   C     0.18873   0.65928   0.52567   0.00000  Uiso   1.00
C572   C     0.14840   0.63024   0.48752   0.00000  Uiso   1.00
C573   C     0.15930   0.76549   0.63919   0.00000  Uiso   1.00
C574   C     0.18272   0.82790   0.64060   0.00000  Uiso   1.00
C575   C     0.13963   0.87597   0.65500   0.00000  Uiso   1.00
H576   H     0.02985   0.66927   0.65733   0.00000  Uiso   1.00
H577   H     0.06098   0.59490   0.73874   0.00000  Uiso   1.00
H578   H     0.00830   0.62022   0.56090   0.00000  Uiso   1.00
H579   H     0.00229   0.78881   0.67581   0.00000  Uiso   1.00
H580   H     0.12381   0.51856   0.82346   0.00000  Uiso   1.00
H581   H     0.01273   0.57197   0.44847   0.00000  Uiso   1.00
H582   H     0.00005   0.92746   0.69078   0.00000  Uiso   1.00
H583   H     0.24798   0.71651   0.61475   0.00000  Uiso   1.00
H584   H     0.29109   0.64473   0.69383   0.00000  Uiso   1.00
H585   H     0.23841   0.67005   0.51599   0.00000  Uiso   1.00
H586   H     0.23240   0.83864   0.63090   0.00000  Uiso   1.00
H587   H     0.31057   0.55900   0.78701   0.00000  Uiso   1.00
H588   H     0.19949   0.61241   0.41202   0.00000  Uiso   1.00
H589   H     0.18681   0.96790   0.65433   0.00000  Uiso   1.00
O590   O     0.24161   0.49069   0.85801   0.00000  Uiso   1.00
O591   O     0.09587   0.56077   0.36604   0.00000  Uiso   1.00
O592   O     0.07924   0.02717   0.68395   0.00000  Uiso   1.00
N593   N     0.16185   0.53794   0.80404   0.00000  Uiso   1.00
N594   N     0.05800   0.58786   0.45345   0.00000  Uiso   1.00
N595   N     0.04614   0.92022   0.67997   0.00000  Uiso   1.00
N596   N     0.26234   0.55970   0.78442   0.00000  Uiso   1.00
N597   N     0.15849   0.60963   0.43383   0.00000  Uiso   1.00
N598   N     0.14664   0.94198   0.66036   0.00000  Uiso   1.00
C599   C     0.92018   0.31990   0.64758   0.00000  Uiso   1.00
C600   C     0.87301   0.35375   0.68591   0.00000  Uiso   1.00
C601   C     0.88934   0.39435   0.72906   0.00000  Uiso   1.00
C602   C     0.83914   0.42058   0.75927   0.00000  Uiso   1.00
C603   C     0.77567   0.47529   0.82068   0.00000  Uiso   1.00
C604   C     0.90163   0.34001   0.58928   0.00000  Uiso   1.00
C605   C     0.94202   0.36903   0.55119   0.00000  Uiso   1.00
C606   C     0.91591   0.38368   0.50007   0.00000  Uiso   1.00
C607   C     0.89689   0.41700   0.41145   0.00000  Uiso   1.00
C608   C     0.90490   0.24841   0.65172   0.00000  Uiso   1.00
C609   C     0.94804   0.20042   0.66612   0.00000  Uiso   1.00
C610   C     0.92468   0.13795   0.66755   0.00000  Uiso   1.00
C611   C     0.91073   0.02906   0.67588   0.00000  Uiso   1.00
C612   C     0.80199   0.29431   0.62451   0.00000  Uiso   1.00
C613   C     0.80882   0.33985   0.67337   0.00000  Uiso   1.00
C614   C     0.75858   0.36603   0.70354   0.00000  Uiso   1.00
C615   C     0.77483   0.40666   0.74672   0.00000  Uiso   1.00
C616   C     0.83744   0.32611   0.57675   0.00000  Uiso   1.00
C617   C     0.81127   0.34072   0.52567   0.00000  Uiso   1.00
C618   C     0.85160   0.36976   0.48752   0.00000  Uiso   1.00
C619   C     0.84070   0.23451   0.63919   0.00000  Uiso   1.00
C620   C     0.81728   0.17210   0.64060   0.00000  Uiso   1.00
C621   C     0.86037   0.12403   0.65500   0.00000  Uiso   1.00
H622   H     0.97015   0.33073   0.65733   0.00000  Uiso   1.00
H623   H     0.93902   0.40510   0.73874   0.00000  Uiso   1.00
H624   H     0.99170   0.37978   0.56090   0.00000  Uiso   1.00
H625   H     0.99771   0.21119   0.67581   0.00000  Uiso   1.00
H626   H     0.87619   0.48144   0.82346   0.00000  Uiso   1.00
H627   H     0.98727   0.42803   0.44847   0.00000  Uiso   1.00
H628   H     0.99995   0.07254   0.69078   0.00000  Uiso   1.00
H629   H     0.75202   0.28349   0.61475   0.00000  Uiso   1.00
H630   H     0.70891   0.35527   0.69383   0.00000  Uiso   1.00
H631   H     0.76159   0.32995   0.51599   0.00000  Uiso   1.00
H632   H     0.76760   0.16136   0.63090   0.00000  Uiso   1.00
H633   H     0.68943   0.44100   0.78701   0.00000  Uiso   1.00
H634   H     0.80051   0.38759   0.41202   0.00000  Uiso   1.00
H635   H     0.81319   0.03210   0.65433   0.00000  Uiso   1.00
O636   O     0.75839   0.50931   0.85801   0.00000  Uiso   1.00
O637   O     0.90413   0.43923   0.36604   0.00000  Uiso   1.00
O638   O     0.92076   0.97283   0.68395   0.00000  Uiso   1.00
N639   N     0.83815   0.46206   0.80404   0.00000  Uiso   1.00
N640   N     0.94200   0.41214   0.45345   0.00000  Uiso   1.00
N641   N     0.95386   0.07978   0.67997   0.00000  Uiso   1.00
N642   N     0.73766   0.44030   0.78442   0.00000  Uiso   1.00
N643   N     0.84151   0.39037   0.43383   0.00000  Uiso   1.00
N644   N     0.85336   0.05802   0.66036   0.00000  Uiso   1.00
C645   C     0.18010   0.42018   0.64758   0.00000  Uiso   1.00
C646   C     0.14625   0.37301   0.68591   0.00000  Uiso   1.00
C647   C     0.10565   0.38934   0.72906   0.00000  Uiso   1.00
C648   C     0.07942   0.33914   0.75927   0.00000  Uiso   1.00
C649   C     0.02471   0.27567   0.82068   0.00000  Uiso   1.00
C650   C     0.15999   0.40163   0.58928   0.00000  Uiso   1.00
C651   C     0.13097   0.44202   0.55119   0.00000  Uiso   1.00
C652   C     0.11632   0.41591   0.50007   0.00000  Uiso   1.00
C653   C     0.08300   0.39689   0.41145   0.00000  Uiso   1.00
C654   C     0.25159   0.40490   0.65172   0.00000  Uiso   1.00
C655   C     0.29958   0.44804   0.66612   0.00000  Uiso   1.00
C656   C     0.36205   0.42468   0.66755   0.00000  Uiso   1.00
C657   C     0.47094   0.41073   0.67588   0.00000  Uiso   1.00
C658   C     0.20569   0.30199   0.62451   0.00000  Uiso   1.00
C659   C     0.16015   0.30882   0.67337   0.00000  Uiso   1.00
C660   C     0.13397   0.25858   0.70354   0.00000  Uiso   1.00
C661   C     0.09334   0.27483   0.74672   0.00000  Uiso   1.00
C662   C     0.17389   0.33744   0.57675   0.00000  Uiso   1.00
C663   C     0.15928   0.31127   0.52567   0.00000  Uiso   1.00
C664   C     0.13024   0.35160   0.48752   0.00000  Uiso   1.00
C665   C     0.26549   0.34070   0.63919   0.00000  Uiso   1.00
C666   C     0.32790   0.31728   0.64060   0.00000  Uiso   1.00
C667   C     0.37597   0.36037   0.65500   0.00000  Uiso   1.00
H668   H     0.16927   0.47015   0.65733   0.00000  Uiso   1.00
H669   H     0.09490   0.43902   0.73874   0.00000  Uiso   1.00
H670   H     0.12022   0.49170   0.56090   0.00000  Uiso   1.00
H671   H     0.28881   0.49771   0.67581   0.00000  Uiso   1.00
H672   H     0.01856   0.37619   0.82346   0.00000  Uiso   1.00
H673   H     0.07197   0.48727   0.44847   0.00000  Uiso   1.00
H674   H     0.42746   0.49995   0.69078   0.00000  Uiso   1.00
H675   H     0.21651   0.25202   0.61475   0.00000  Uiso   1.00
H676   H     0.14473   0.20891   0.69383   0.00000  Uiso   1.00
H677   H     0.17005   0.26159   0.51599   0.00000  Uiso   1.00
H678   H     0.33864   0.26760   0.63090   0.00000  Uiso   1.00
H679   H     0.05900   0.18943   0.78701   0.00000  Uiso   1.00
H680   H     0.11241   0.30051   0.41202   0.00000  Uiso   1.00
H681   H     0.46790   0.31319   0.65433   0.00000  Uiso   1.00
O682   O     0.99069   0.25839   0.85801   0.00000  Uiso   1.00
O683   O     0.06077   0.40413   0.36604   0.00000  Uiso   1.00
O684   O     0.52717   0.42076   0.68395   0.00000  Uiso   1.00
N685   N     0.03794   0.33815   0.80404   0.00000  Uiso   1.00
N686   N     0.08786   0.44200   0.45345   0.00000  Uiso   1.00
N687   N     0.42022   0.45386   0.67997   0.00000  Uiso   1.00
N688   N     0.05970   0.23766   0.78442   0.00000  Uiso   1.00
N689   N     0.10963   0.34151   0.43383   0.00000  Uiso   1.00
N690   N     0.44198   0.35336   0.66036   0.00000  Uiso   1.00
C691   C     0.81990   0.57982   0.64758   0.00000  Uiso   1.00
C692   C     0.85375   0.62699   0.68591   0.00000  Uiso   1.00
C693   C     0.89435   0.61066   0.72906   0.00000  Uiso   1.00
C694   C     0.92058   0.66086   0.75927   0.00000  Uiso   1.00
C695   C     0.97529   0.72433   0.82068   0.00000  Uiso   1.00
C696   C     0.84001   0.59837   0.58928   0.00000  Uiso   1.00
C697   C     0.86903   0.55798   0.55119   0.00000  Uiso   1.00
C698   C     0.88368   0.58409   0.50007   0.00000  Uiso   1.00
C699   C     0.91700   0.60311   0.41145   0.00000  Uiso   1.00
C700   C     0.74841   0.59510   0.65172   0.00000  Uiso   1.00
C701   C     0.70042   0.55196   0.66612   0.00000  Uiso   1.00
C702   C     0.63795   0.57532   0.66755   0.00000  Uiso   1.00
C703   C     0.52906   0.58927   0.67588   0.00000  Uiso   1.00
C704   C     0.79431   0.69801   0.62451   0.00000  Uiso   1.00
C705   C     0.83985   0.69118   0.67337   0.00000  Uiso   1.00
C706   C     0.86603   0.74142   0.70354   0.00000  Uiso   1.00
C707   C     0.90666   0.72517   0.74672   0.00000  Uiso   1.00
C708   C     0.82611   0.66256   0.57675   0.00000  Uiso   1.00
C709   C     0.84072   0.68873   0.52567   0.00000  Uiso   1.00
C710   C     0.86976   0.64840   0.48752   0.00000  Uiso   1.00
C711   C     0.73451   0.65930   0.63919   0.00000  Uiso   1.00
C712   C     0.67210   0.68272   0.64060   0.00000  Uiso   1.00
C713   C     0.62403   0.63963   0.65500   0.00000  Uiso   1.00
H714   H     0.83073   0.52985   0.65733   0.00000  Uiso   1.00
H715   H     0.90510   0.56098   0.73874   0.00000  Uiso   1.00
H716   H     0.87978   0.50830   0.56090   0.00000  Uiso   1.00
H717   H     0.71119   0.50229   0.67581   0.00000  Uiso   1.00
H718   H     0.98144   0.62381   0.82346   0.00000  Uiso   1.00
H719   H     0.92803   0.51273   0.44847   0.00000  Uiso   1.00
H720   H     0.57254   0.50005   0.69078   0.00000  Uiso   1.00
H721   H     0.78349   0.74798   0.61475   0.00000  Uiso   1.00
H722   H     0.85527   0.79109   0.69383   0.00000  Uiso   1.00
H723   H     0.82995   0.73841   0.51599   0.00000  Uiso   1.00
H724   H     0.66136   0.73240   0.63090   0.00000  Uiso   1.00
H725   H     0.94100   0.81057   0.78701   0.00000  Uiso   1.00
H726   H     0.88759   0.69949   0.41202   0.00000  Uiso   1.00
H727   H     0.53210   0.68681   0.65433   0.00000  Uiso   1.00
O728   O     0.00931   0.74161   0.85801   0.00000  Uiso   1.00
O729   O     0.93923   0.59587   0.36604   0.00000  Uiso   1.00
O730   O     0.47283   0.57924   0.68395   0.00000  Uiso   1.00
N731   N     0.96206   0.66185   0.80404   0.00000  Uiso   1.00
N732   N     0.91214   0.55800   0.45345   0.00000  Uiso   1.00
N733   N     0.57978   0.54614   0.67997   0.00000  Uiso   1.00
N734   N     0.94030   0.76234   0.78442   0.00000  Uiso   1.00
N735   N     0.89037   0.65849   0.43383   0.00000  Uiso   1.00
N736   N     0.55802   0.64664   0.66036   0.00000  Uiso   1.00
