data_job_03103
_audit_creation_date              2018-12-19
_audit_creation_method            'Materials Studio'
_symmetry_space_group_name_H-M    'P1'
_symmetry_Int_Tables_number       1
_symmetry_cell_setting            triclinic
loop_
_symmetry_equiv_pos_as_xyz
  x,y,z
_cell_length_a                    14.3892
_cell_length_b                    42.7870
_cell_length_c                    24.2222
_cell_angle_alpha                 90.0000
_cell_angle_beta                  90.0000
_cell_angle_gamma                 90.0000
loop_
_atom_site_label
_atom_site_type_symbol
_atom_site_fract_x
_atom_site_fract_y
_atom_site_fract_z
_atom_site_U_iso_or_equiv
_atom_site_adp_type
_atom_site_occupancy
C1     C     0.53778   0.15502   0.31246   0.00000  Uiso   1.00
C2     C     0.55607   0.17546   0.26204   0.00000  Uiso   1.00
C3     C     0.48927   0.19160   0.23212   0.00000  Uiso   1.00
C4     C     0.52007   0.20899   0.18733   0.00000  Uiso   1.00
C5     C     0.53412   0.24053   0.11120   0.00000  Uiso   1.00
C6     C     0.57772   0.12294   0.29871   0.00000  Uiso   1.00
C7     C     0.52912   0.09492   0.29964   0.00000  Uiso   1.00
C8     C     0.57815   0.06811   0.28572   0.00000  Uiso   1.00
C9     C     0.62583   0.01811   0.26656   0.00000  Uiso   1.00
C10    C     0.59845   0.16816   0.35856   0.00000  Uiso   1.00
C11    C     0.56729   0.17817   0.40983   0.00000  Uiso   1.00
C12    C     0.63377   0.18942   0.44631   0.00000  Uiso   1.00
C13    C     0.71364   0.20964   0.52008   0.00000  Uiso   1.00
C14    C     0.71126   0.15721   0.28610   0.00000  Uiso   1.00
C15    C     0.65030   0.17664   0.24772   0.00000  Uiso   1.00
C16    C     0.68121   0.19402   0.20296   0.00000  Uiso   1.00
C17    C     0.61446   0.21018   0.17299   0.00000  Uiso   1.00
C18    C     0.67194   0.12412   0.28439   0.00000  Uiso   1.00
C19    C     0.72106   0.09734   0.27047   0.00000  Uiso   1.00
C20    C     0.67255   0.06930   0.27138   0.00000  Uiso   1.00
C21    C     0.69268   0.16935   0.34425   0.00000  Uiso   1.00
C22    C     0.75922   0.18059   0.38066   0.00000  Uiso   1.00
C23    C     0.72817   0.19061   0.43196   0.00000  Uiso   1.00
H24    H     0.46443   0.15409   0.32361   0.00000  Uiso   1.00
H25    H     0.41636   0.19067   0.24322   0.00000  Uiso   1.00
H26    H     0.45621   0.09401   0.31072   0.00000  Uiso   1.00
H27    H     0.49437   0.17724   0.42089   0.00000  Uiso   1.00
H28    H     0.40461   0.23174   0.14776   0.00000  Uiso   1.00
H29    H     0.48864   0.02793   0.29012   0.00000  Uiso   1.00
H30    H     0.56911   0.20343   0.52244   0.00000  Uiso   1.00
H31    H     0.78463   0.15813   0.27495   0.00000  Uiso   1.00
H32    H     0.75413   0.19493   0.19189   0.00000  Uiso   1.00
H33    H     0.79397   0.09827   0.25940   0.00000  Uiso   1.00
H34    H     0.83213   0.18150   0.36956   0.00000  Uiso   1.00
H35    H     0.67876   0.23520   0.10610   0.00000  Uiso   1.00
H36    H     0.76279   0.03138   0.24847   0.00000  Uiso   1.00
H37    H     0.84326   0.20689   0.48077   0.00000  Uiso   1.00
O38    O     0.51584   0.25760   0.07316   0.00000  Uiso   1.00
O39    O     0.62609   0.99020   0.25994   0.00000  Uiso   1.00
O40    O     0.73166   0.22046   0.56472   0.00000  Uiso   1.00
N41    N     0.47332   0.22751   0.14936   0.00000  Uiso   1.00
N42    N     0.55188   0.03696   0.28246   0.00000  Uiso   1.00
N43    N     0.62711   0.20103   0.49965   0.00000  Uiso   1.00
N44    N     0.62084   0.22937   0.12694   0.00000  Uiso   1.00
N45    N     0.69940   0.03882   0.26004   0.00000  Uiso   1.00
N46    N     0.77463   0.20289   0.47723   0.00000  Uiso   1.00
C47    C     0.03778   0.65502   0.31246   0.00000  Uiso   1.00
C48    C     0.05607   0.67546   0.26204   0.00000  Uiso   1.00
C49    C     0.98927   0.69160   0.23212   0.00000  Uiso   1.00
C50    C     0.02007   0.70899   0.18733   0.00000  Uiso   1.00
C51    C     0.03412   0.74053   0.11120   0.00000  Uiso   1.00
C52    C     0.07772   0.62294   0.29871   0.00000  Uiso   1.00
C53    C     0.02912   0.59492   0.29964   0.00000  Uiso   1.00
C54    C     0.07815   0.56811   0.28572   0.00000  Uiso   1.00
C55    C     0.12583   0.51811   0.26656   0.00000  Uiso   1.00
C56    C     0.09845   0.66816   0.35856   0.00000  Uiso   1.00
C57    C     0.06729   0.67817   0.40983   0.00000  Uiso   1.00
C58    C     0.13377   0.68942   0.44631   0.00000  Uiso   1.00
C59    C     0.21364   0.70964   0.52008   0.00000  Uiso   1.00
C60    C     0.21126   0.65721   0.28610   0.00000  Uiso   1.00
C61    C     0.15030   0.67664   0.24772   0.00000  Uiso   1.00
C62    C     0.18121   0.69402   0.20296   0.00000  Uiso   1.00
C63    C     0.11446   0.71018   0.17299   0.00000  Uiso   1.00
C64    C     0.17194   0.62412   0.28439   0.00000  Uiso   1.00
C65    C     0.22106   0.59734   0.27047   0.00000  Uiso   1.00
C66    C     0.17255   0.56930   0.27138   0.00000  Uiso   1.00
C67    C     0.19268   0.66935   0.34425   0.00000  Uiso   1.00
C68    C     0.25922   0.68059   0.38066   0.00000  Uiso   1.00
C69    C     0.22817   0.69061   0.43196   0.00000  Uiso   1.00
H70    H     0.96443   0.65409   0.32361   0.00000  Uiso   1.00
H71    H     0.91636   0.69067   0.24322   0.00000  Uiso   1.00
H72    H     0.95621   0.59401   0.31072   0.00000  Uiso   1.00
H73    H     0.99437   0.67724   0.42089   0.00000  Uiso   1.00
H74    H     0.90461   0.73174   0.14776   0.00000  Uiso   1.00
H75    H     0.98864   0.52793   0.29012   0.00000  Uiso   1.00
H76    H     0.06911   0.70343   0.52244   0.00000  Uiso   1.00
H77    H     0.28463   0.65813   0.27495   0.00000  Uiso   1.00
H78    H     0.25413   0.69493   0.19189   0.00000  Uiso   1.00
H79    H     0.29397   0.59827   0.25940   0.00000  Uiso   1.00
H80    H     0.33213   0.68150   0.36956   0.00000  Uiso   1.00
H81    H     0.17876   0.73520   0.10610   0.00000  Uiso   1.00
H82    H     0.26279   0.53138   0.24847   0.00000  Uiso   1.00
H83    H     0.34326   0.70689   0.48077   0.00000  Uiso   1.00
O84    O     0.01584   0.75760   0.07316   0.00000  Uiso   1.00
O85    O     0.12609   0.49020   0.25994   0.00000  Uiso   1.00
O86    O     0.23166   0.72046   0.56472   0.00000  Uiso   1.00
N87    N     0.97332   0.72751   0.14936   0.00000  Uiso   1.00
N88    N     0.05188   0.53696   0.28246   0.00000  Uiso   1.00
N89    N     0.12711   0.70103   0.49965   0.00000  Uiso   1.00
N90    N     0.12084   0.72937   0.12694   0.00000  Uiso   1.00
N91    N     0.19940   0.53882   0.26004   0.00000  Uiso   1.00
N92    N     0.27463   0.70289   0.47723   0.00000  Uiso   1.00
C93    C     0.96222   0.34498   0.31246   0.00000  Uiso   1.00
C94    C     0.94393   0.32454   0.26204   0.00000  Uiso   1.00
C95    C     0.01073   0.30840   0.23212   0.00000  Uiso   1.00
C96    C     0.97993   0.29101   0.18733   0.00000  Uiso   1.00
C97    C     0.96588   0.25947   0.11120   0.00000  Uiso   1.00
C98    C     0.92228   0.37706   0.29871   0.00000  Uiso   1.00
C99    C     0.97088   0.40508   0.29964   0.00000  Uiso   1.00
C100   C     0.92185   0.43189   0.28572   0.00000  Uiso   1.00
C101   C     0.87417   0.48189   0.26656   0.00000  Uiso   1.00
C102   C     0.90155   0.33184   0.35856   0.00000  Uiso   1.00
C103   C     0.93271   0.32183   0.40983   0.00000  Uiso   1.00
C104   C     0.86623   0.31058   0.44631   0.00000  Uiso   1.00
C105   C     0.78636   0.29036   0.52008   0.00000  Uiso   1.00
C106   C     0.78874   0.34279   0.28610   0.00000  Uiso   1.00
C107   C     0.84970   0.32336   0.24772   0.00000  Uiso   1.00
C108   C     0.81879   0.30598   0.20296   0.00000  Uiso   1.00
C109   C     0.88554   0.28982   0.17299   0.00000  Uiso   1.00
C110   C     0.82806   0.37588   0.28439   0.00000  Uiso   1.00
C111   C     0.77894   0.40266   0.27047   0.00000  Uiso   1.00
C112   C     0.82745   0.43070   0.27138   0.00000  Uiso   1.00
C113   C     0.80732   0.33065   0.34425   0.00000  Uiso   1.00
C114   C     0.74078   0.31941   0.38066   0.00000  Uiso   1.00
C115   C     0.77183   0.30939   0.43196   0.00000  Uiso   1.00
H116   H     0.03557   0.34591   0.32361   0.00000  Uiso   1.00
H117   H     0.08364   0.30933   0.24322   0.00000  Uiso   1.00
H118   H     0.04379   0.40599   0.31072   0.00000  Uiso   1.00
H119   H     0.00563   0.32276   0.42089   0.00000  Uiso   1.00
H120   H     0.09539   0.26826   0.14776   0.00000  Uiso   1.00
H121   H     0.01136   0.47207   0.29012   0.00000  Uiso   1.00
H122   H     0.93089   0.29657   0.52244   0.00000  Uiso   1.00
H123   H     0.71537   0.34187   0.27495   0.00000  Uiso   1.00
H124   H     0.74587   0.30507   0.19189   0.00000  Uiso   1.00
H125   H     0.70603   0.40173   0.25940   0.00000  Uiso   1.00
H126   H     0.66787   0.31850   0.36956   0.00000  Uiso   1.00
H127   H     0.82124   0.26480   0.10610   0.00000  Uiso   1.00
H128   H     0.73721   0.46862   0.24847   0.00000  Uiso   1.00
H129   H     0.65674   0.29311   0.48077   0.00000  Uiso   1.00
O130   O     0.98416   0.24240   0.07316   0.00000  Uiso   1.00
O131   O     0.87391   0.50980   0.25994   0.00000  Uiso   1.00
O132   O     0.76834   0.27954   0.56472   0.00000  Uiso   1.00
N133   N     0.02668   0.27249   0.14936   0.00000  Uiso   1.00
N134   N     0.94812   0.46304   0.28246   0.00000  Uiso   1.00
N135   N     0.87289   0.29897   0.49965   0.00000  Uiso   1.00
N136   N     0.87916   0.27063   0.12694   0.00000  Uiso   1.00
N137   N     0.80060   0.46118   0.26004   0.00000  Uiso   1.00
N138   N     0.72537   0.29711   0.47723   0.00000  Uiso   1.00
C139   C     0.46222   0.84498   0.31246   0.00000  Uiso   1.00
C140   C     0.44393   0.82454   0.26204   0.00000  Uiso   1.00
C141   C     0.51073   0.80840   0.23212   0.00000  Uiso   1.00
C142   C     0.47993   0.79101   0.18733   0.00000  Uiso   1.00
C143   C     0.46588   0.75947   0.11120   0.00000  Uiso   1.00
C144   C     0.42228   0.87706   0.29871   0.00000  Uiso   1.00
C145   C     0.47088   0.90508   0.29964   0.00000  Uiso   1.00
C146   C     0.42185   0.93189   0.28572   0.00000  Uiso   1.00
C147   C     0.37417   0.98189   0.26656   0.00000  Uiso   1.00
C148   C     0.40155   0.83184   0.35856   0.00000  Uiso   1.00
C149   C     0.43271   0.82183   0.40983   0.00000  Uiso   1.00
C150   C     0.36623   0.81058   0.44631   0.00000  Uiso   1.00
C151   C     0.28636   0.79036   0.52008   0.00000  Uiso   1.00
C152   C     0.28874   0.84279   0.28610   0.00000  Uiso   1.00
C153   C     0.34970   0.82336   0.24772   0.00000  Uiso   1.00
C154   C     0.31879   0.80598   0.20296   0.00000  Uiso   1.00
C155   C     0.38554   0.78982   0.17299   0.00000  Uiso   1.00
C156   C     0.32806   0.87588   0.28439   0.00000  Uiso   1.00
C157   C     0.27894   0.90266   0.27047   0.00000  Uiso   1.00
C158   C     0.32745   0.93070   0.27138   0.00000  Uiso   1.00
C159   C     0.30732   0.83065   0.34425   0.00000  Uiso   1.00
C160   C     0.24078   0.81941   0.38066   0.00000  Uiso   1.00
C161   C     0.27183   0.80939   0.43196   0.00000  Uiso   1.00
H162   H     0.53557   0.84591   0.32361   0.00000  Uiso   1.00
H163   H     0.58364   0.80933   0.24322   0.00000  Uiso   1.00
H164   H     0.54379   0.90599   0.31072   0.00000  Uiso   1.00
H165   H     0.50563   0.82276   0.42089   0.00000  Uiso   1.00
H166   H     0.59539   0.76826   0.14776   0.00000  Uiso   1.00
H167   H     0.51136   0.97207   0.29012   0.00000  Uiso   1.00
H168   H     0.43089   0.79657   0.52244   0.00000  Uiso   1.00
H169   H     0.21537   0.84187   0.27495   0.00000  Uiso   1.00
H170   H     0.24587   0.80507   0.19189   0.00000  Uiso   1.00
H171   H     0.20603   0.90173   0.25940   0.00000  Uiso   1.00
H172   H     0.16787   0.81850   0.36956   0.00000  Uiso   1.00
H173   H     0.32124   0.76480   0.10610   0.00000  Uiso   1.00
H174   H     0.23721   0.96862   0.24847   0.00000  Uiso   1.00
H175   H     0.15674   0.79311   0.48077   0.00000  Uiso   1.00
O176   O     0.48416   0.74240   0.07316   0.00000  Uiso   1.00
O177   O     0.37391   0.00980   0.25994   0.00000  Uiso   1.00
O178   O     0.26834   0.77954   0.56472   0.00000  Uiso   1.00
N179   N     0.52668   0.77249   0.14936   0.00000  Uiso   1.00
N180   N     0.44812   0.96304   0.28246   0.00000  Uiso   1.00
N181   N     0.37289   0.79897   0.49965   0.00000  Uiso   1.00
N182   N     0.37916   0.77063   0.12694   0.00000  Uiso   1.00
N183   N     0.30060   0.96118   0.26004   0.00000  Uiso   1.00
N184   N     0.22537   0.79711   0.47723   0.00000  Uiso   1.00
C185   C     0.46222   0.15502   0.68754   0.00000  Uiso   1.00
C186   C     0.44393   0.17546   0.73796   0.00000  Uiso   1.00
C187   C     0.51073   0.19160   0.76788   0.00000  Uiso   1.00
C188   C     0.47993   0.20899   0.81267   0.00000  Uiso   1.00
C189   C     0.46588   0.24053   0.88880   0.00000  Uiso   1.00
C190   C     0.42228   0.12294   0.70129   0.00000  Uiso   1.00
C191   C     0.47088   0.09492   0.70036   0.00000  Uiso   1.00
C192   C     0.42185   0.06811   0.71428   0.00000  Uiso   1.00
C193   C     0.37417   0.01811   0.73344   0.00000  Uiso   1.00
C194   C     0.40155   0.16816   0.64144   0.00000  Uiso   1.00
C195   C     0.43271   0.17817   0.59017   0.00000  Uiso   1.00
C196   C     0.36623   0.18942   0.55369   0.00000  Uiso   1.00
C197   C     0.28636   0.20964   0.47992   0.00000  Uiso   1.00
C198   C     0.28874   0.15721   0.71390   0.00000  Uiso   1.00
C199   C     0.34970   0.17664   0.75228   0.00000  Uiso   1.00
C200   C     0.31879   0.19402   0.79704   0.00000  Uiso   1.00
C201   C     0.38554   0.21018   0.82701   0.00000  Uiso   1.00
C202   C     0.32806   0.12412   0.71561   0.00000  Uiso   1.00
C203   C     0.27894   0.09734   0.72953   0.00000  Uiso   1.00
C204   C     0.32745   0.06930   0.72862   0.00000  Uiso   1.00
C205   C     0.30732   0.16935   0.65575   0.00000  Uiso   1.00
C206   C     0.24078   0.18059   0.61934   0.00000  Uiso   1.00
C207   C     0.27183   0.19061   0.56804   0.00000  Uiso   1.00
H208   H     0.53557   0.15409   0.67639   0.00000  Uiso   1.00
H209   H     0.58364   0.19067   0.75678   0.00000  Uiso   1.00
H210   H     0.54379   0.09401   0.68928   0.00000  Uiso   1.00
H211   H     0.50563   0.17724   0.57911   0.00000  Uiso   1.00
H212   H     0.59539   0.23174   0.85224   0.00000  Uiso   1.00
H213   H     0.51136   0.02793   0.70988   0.00000  Uiso   1.00
H214   H     0.43089   0.20343   0.47756   0.00000  Uiso   1.00
H215   H     0.21537   0.15813   0.72505   0.00000  Uiso   1.00
H216   H     0.24587   0.19493   0.80811   0.00000  Uiso   1.00
H217   H     0.20603   0.09827   0.74060   0.00000  Uiso   1.00
H218   H     0.16787   0.18150   0.63044   0.00000  Uiso   1.00
H219   H     0.32124   0.23520   0.89390   0.00000  Uiso   1.00
H220   H     0.23721   0.03138   0.75153   0.00000  Uiso   1.00
H221   H     0.15674   0.20689   0.51923   0.00000  Uiso   1.00
O222   O     0.48416   0.25760   0.92684   0.00000  Uiso   1.00
O223   O     0.37391   0.99020   0.74006   0.00000  Uiso   1.00
O224   O     0.26834   0.22046   0.43528   0.00000  Uiso   1.00
N225   N     0.52668   0.22751   0.85064   0.00000  Uiso   1.00
N226   N     0.44812   0.03696   0.71754   0.00000  Uiso   1.00
N227   N     0.37289   0.20103   0.50035   0.00000  Uiso   1.00
N228   N     0.37916   0.22937   0.87306   0.00000  Uiso   1.00
N229   N     0.30060   0.03882   0.73996   0.00000  Uiso   1.00
N230   N     0.22537   0.20289   0.52277   0.00000  Uiso   1.00
C231   C     0.96222   0.65502   0.68754   0.00000  Uiso   1.00
C232   C     0.94393   0.67546   0.73796   0.00000  Uiso   1.00
C233   C     0.01073   0.69160   0.76788   0.00000  Uiso   1.00
C234   C     0.97993   0.70899   0.81267   0.00000  Uiso   1.00
C235   C     0.96588   0.74053   0.88880   0.00000  Uiso   1.00
C236   C     0.92228   0.62294   0.70129   0.00000  Uiso   1.00
C237   C     0.97088   0.59492   0.70036   0.00000  Uiso   1.00
C238   C     0.92185   0.56811   0.71428   0.00000  Uiso   1.00
C239   C     0.87417   0.51811   0.73344   0.00000  Uiso   1.00
C240   C     0.90155   0.66816   0.64144   0.00000  Uiso   1.00
C241   C     0.93271   0.67817   0.59017   0.00000  Uiso   1.00
C242   C     0.86623   0.68942   0.55369   0.00000  Uiso   1.00
C243   C     0.78636   0.70964   0.47992   0.00000  Uiso   1.00
C244   C     0.78874   0.65721   0.71390   0.00000  Uiso   1.00
C245   C     0.84970   0.67664   0.75228   0.00000  Uiso   1.00
C246   C     0.81879   0.69402   0.79704   0.00000  Uiso   1.00
C247   C     0.88554   0.71018   0.82701   0.00000  Uiso   1.00
C248   C     0.82806   0.62412   0.71561   0.00000  Uiso   1.00
C249   C     0.77894   0.59734   0.72953   0.00000  Uiso   1.00
C250   C     0.82745   0.56930   0.72862   0.00000  Uiso   1.00
C251   C     0.80732   0.66935   0.65575   0.00000  Uiso   1.00
C252   C     0.74078   0.68059   0.61934   0.00000  Uiso   1.00
C253   C     0.77183   0.69061   0.56804   0.00000  Uiso   1.00
H254   H     0.03557   0.65409   0.67639   0.00000  Uiso   1.00
H255   H     0.08364   0.69067   0.75678   0.00000  Uiso   1.00
H256   H     0.04379   0.59401   0.68928   0.00000  Uiso   1.00
H257   H     0.00563   0.67724   0.57911   0.00000  Uiso   1.00
H258   H     0.09539   0.73174   0.85224   0.00000  Uiso   1.00
H259   H     0.01136   0.52793   0.70988   0.00000  Uiso   1.00
H260   H     0.93089   0.70343   0.47756   0.00000  Uiso   1.00
H261   H     0.71537   0.65813   0.72505   0.00000  Uiso   1.00
H262   H     0.74587   0.69493   0.80811   0.00000  Uiso   1.00
H263   H     0.70603   0.59827   0.74060   0.00000  Uiso   1.00
H264   H     0.66787   0.68150   0.63044   0.00000  Uiso   1.00
H265   H     0.82124   0.73520   0.89390   0.00000  Uiso   1.00
H266   H     0.73721   0.53138   0.75153   0.00000  Uiso   1.00
H267   H     0.65674   0.70689   0.51923   0.00000  Uiso   1.00
O268   O     0.98416   0.75760   0.92684   0.00000  Uiso   1.00
O269   O     0.87391   0.49020   0.74006   0.00000  Uiso   1.00
O270   O     0.76834   0.72046   0.43528   0.00000  Uiso   1.00
N271   N     0.02668   0.72751   0.85064   0.00000  Uiso   1.00
N272   N     0.94812   0.53696   0.71754   0.00000  Uiso   1.00
N273   N     0.87289   0.70103   0.50035   0.00000  Uiso   1.00
N274   N     0.87916   0.72937   0.87306   0.00000  Uiso   1.00
N275   N     0.80060   0.53882   0.73996   0.00000  Uiso   1.00
N276   N     0.72537   0.70289   0.52277   0.00000  Uiso   1.00
C277   C     0.03778   0.34498   0.68754   0.00000  Uiso   1.00
C278   C     0.05607   0.32454   0.73796   0.00000  Uiso   1.00
C279   C     0.98927   0.30840   0.76788   0.00000  Uiso   1.00
C280   C     0.02007   0.29101   0.81267   0.00000  Uiso   1.00
C281   C     0.03412   0.25947   0.88880   0.00000  Uiso   1.00
C282   C     0.07772   0.37706   0.70129   0.00000  Uiso   1.00
C283   C     0.02912   0.40508   0.70036   0.00000  Uiso   1.00
C284   C     0.07815   0.43189   0.71428   0.00000  Uiso   1.00
C285   C     0.12583   0.48189   0.73344   0.00000  Uiso   1.00
C286   C     0.09845   0.33184   0.64144   0.00000  Uiso   1.00
C287   C     0.06729   0.32183   0.59017   0.00000  Uiso   1.00
C288   C     0.13377   0.31058   0.55369   0.00000  Uiso   1.00
C289   C     0.21364   0.29036   0.47992   0.00000  Uiso   1.00
C290   C     0.21126   0.34279   0.71390   0.00000  Uiso   1.00
C291   C     0.15030   0.32336   0.75228   0.00000  Uiso   1.00
C292   C     0.18121   0.30598   0.79704   0.00000  Uiso   1.00
C293   C     0.11446   0.28982   0.82701   0.00000  Uiso   1.00
C294   C     0.17194   0.37588   0.71561   0.00000  Uiso   1.00
C295   C     0.22106   0.40266   0.72953   0.00000  Uiso   1.00
C296   C     0.17255   0.43070   0.72862   0.00000  Uiso   1.00
C297   C     0.19268   0.33065   0.65575   0.00000  Uiso   1.00
C298   C     0.25922   0.31941   0.61934   0.00000  Uiso   1.00
C299   C     0.22817   0.30939   0.56804   0.00000  Uiso   1.00
H300   H     0.96443   0.34591   0.67639   0.00000  Uiso   1.00
H301   H     0.91636   0.30933   0.75678   0.00000  Uiso   1.00
H302   H     0.95621   0.40599   0.68928   0.00000  Uiso   1.00
H303   H     0.99437   0.32276   0.57911   0.00000  Uiso   1.00
H304   H     0.90461   0.26826   0.85224   0.00000  Uiso   1.00
H305   H     0.98864   0.47207   0.70988   0.00000  Uiso   1.00
H306   H     0.06911   0.29657   0.47756   0.00000  Uiso   1.00
H307   H     0.28463   0.34187   0.72505   0.00000  Uiso   1.00
H308   H     0.25413   0.30507   0.80811   0.00000  Uiso   1.00
H309   H     0.29397   0.40173   0.74060   0.00000  Uiso   1.00
H310   H     0.33213   0.31850   0.63044   0.00000  Uiso   1.00
H311   H     0.17876   0.26480   0.89390   0.00000  Uiso   1.00
H312   H     0.26279   0.46862   0.75153   0.00000  Uiso   1.00
H313   H     0.34326   0.29311   0.51923   0.00000  Uiso   1.00
O314   O     0.01584   0.24240   0.92684   0.00000  Uiso   1.00
O315   O     0.12609   0.50980   0.74006   0.00000  Uiso   1.00
O316   O     0.23166   0.27954   0.43528   0.00000  Uiso   1.00
N317   N     0.97332   0.27249   0.85064   0.00000  Uiso   1.00
N318   N     0.05188   0.46304   0.71754   0.00000  Uiso   1.00
N319   N     0.12711   0.29897   0.50035   0.00000  Uiso   1.00
N320   N     0.12084   0.27063   0.87306   0.00000  Uiso   1.00
N321   N     0.19940   0.46118   0.73996   0.00000  Uiso   1.00
N322   N     0.27463   0.29711   0.52277   0.00000  Uiso   1.00
C323   C     0.53778   0.84498   0.68754   0.00000  Uiso   1.00
C324   C     0.55607   0.82454   0.73796   0.00000  Uiso   1.00
C325   C     0.48927   0.80840   0.76788   0.00000  Uiso   1.00
C326   C     0.52007   0.79101   0.81267   0.00000  Uiso   1.00
C327   C     0.53412   0.75947   0.88880   0.00000  Uiso   1.00
C328   C     0.57772   0.87706   0.70129   0.00000  Uiso   1.00
C329   C     0.52912   0.90508   0.70036   0.00000  Uiso   1.00
C330   C     0.57815   0.93189   0.71428   0.00000  Uiso   1.00
C331   C     0.62583   0.98189   0.73344   0.00000  Uiso   1.00
C332   C     0.59845   0.83184   0.64144   0.00000  Uiso   1.00
C333   C     0.56729   0.82183   0.59017   0.00000  Uiso   1.00
C334   C     0.63377   0.81058   0.55369   0.00000  Uiso   1.00
C335   C     0.71364   0.79036   0.47992   0.00000  Uiso   1.00
C336   C     0.71126   0.84279   0.71390   0.00000  Uiso   1.00
C337   C     0.65030   0.82336   0.75228   0.00000  Uiso   1.00
C338   C     0.68121   0.80598   0.79704   0.00000  Uiso   1.00
C339   C     0.61446   0.78982   0.82701   0.00000  Uiso   1.00
C340   C     0.67194   0.87588   0.71561   0.00000  Uiso   1.00
C341   C     0.72106   0.90266   0.72953   0.00000  Uiso   1.00
C342   C     0.67255   0.93070   0.72862   0.00000  Uiso   1.00
C343   C     0.69268   0.83065   0.65575   0.00000  Uiso   1.00
C344   C     0.75922   0.81941   0.61934   0.00000  Uiso   1.00
C345   C     0.72817   0.80939   0.56804   0.00000  Uiso   1.00
H346   H     0.46443   0.84591   0.67639   0.00000  Uiso   1.00
H347   H     0.41636   0.80933   0.75678   0.00000  Uiso   1.00
H348   H     0.45621   0.90599   0.68928   0.00000  Uiso   1.00
H349   H     0.49437   0.82276   0.57911   0.00000  Uiso   1.00
H350   H     0.40461   0.76826   0.85224   0.00000  Uiso   1.00
H351   H     0.48864   0.97207   0.70988   0.00000  Uiso   1.00
H352   H     0.56911   0.79657   0.47756   0.00000  Uiso   1.00
H353   H     0.78463   0.84187   0.72505   0.00000  Uiso   1.00
H354   H     0.75413   0.80507   0.80811   0.00000  Uiso   1.00
H355   H     0.79397   0.90173   0.74060   0.00000  Uiso   1.00
H356   H     0.83213   0.81850   0.63044   0.00000  Uiso   1.00
H357   H     0.67876   0.76480   0.89390   0.00000  Uiso   1.00
H358   H     0.76279   0.96862   0.75153   0.00000  Uiso   1.00
H359   H     0.84326   0.79311   0.51923   0.00000  Uiso   1.00
O360   O     0.51584   0.74240   0.92684   0.00000  Uiso   1.00
O361   O     0.62609   0.00980   0.74006   0.00000  Uiso   1.00
O362   O     0.73166   0.77954   0.43528   0.00000  Uiso   1.00
N363   N     0.47332   0.77249   0.85064   0.00000  Uiso   1.00
N364   N     0.55188   0.96304   0.71754   0.00000  Uiso   1.00
N365   N     0.62711   0.79897   0.50035   0.00000  Uiso   1.00
N366   N     0.62084   0.77063   0.87306   0.00000  Uiso   1.00
N367   N     0.69940   0.96118   0.73996   0.00000  Uiso   1.00
N368   N     0.77463   0.79711   0.52277   0.00000  Uiso   1.00
C369   C     0.46222   0.34498   0.18754   0.00000  Uiso   1.00
C370   C     0.44393   0.32454   0.23796   0.00000  Uiso   1.00
C371   C     0.51073   0.30840   0.26788   0.00000  Uiso   1.00
C372   C     0.47993   0.29101   0.31267   0.00000  Uiso   1.00
C373   C     0.46588   0.25947   0.38880   0.00000  Uiso   1.00
C374   C     0.42228   0.37706   0.20129   0.00000  Uiso   1.00
C375   C     0.47088   0.40508   0.20036   0.00000  Uiso   1.00
C376   C     0.42185   0.43189   0.21428   0.00000  Uiso   1.00
C377   C     0.37417   0.48189   0.23344   0.00000  Uiso   1.00
C378   C     0.40155   0.33184   0.14144   0.00000  Uiso   1.00
C379   C     0.43271   0.32183   0.09017   0.00000  Uiso   1.00
C380   C     0.36623   0.31058   0.05369   0.00000  Uiso   1.00
C381   C     0.28636   0.29036   0.97992   0.00000  Uiso   1.00
C382   C     0.28874   0.34279   0.21390   0.00000  Uiso   1.00
C383   C     0.34970   0.32336   0.25228   0.00000  Uiso   1.00
C384   C     0.31879   0.30598   0.29704   0.00000  Uiso   1.00
C385   C     0.38554   0.28982   0.32701   0.00000  Uiso   1.00
C386   C     0.32806   0.37588   0.21561   0.00000  Uiso   1.00
C387   C     0.27894   0.40266   0.22953   0.00000  Uiso   1.00
C388   C     0.32745   0.43070   0.22862   0.00000  Uiso   1.00
C389   C     0.30732   0.33065   0.15575   0.00000  Uiso   1.00
C390   C     0.24078   0.31941   0.11934   0.00000  Uiso   1.00
C391   C     0.27183   0.30939   0.06804   0.00000  Uiso   1.00
H392   H     0.53557   0.34591   0.17639   0.00000  Uiso   1.00
H393   H     0.58364   0.30933   0.25678   0.00000  Uiso   1.00
H394   H     0.54379   0.40599   0.18928   0.00000  Uiso   1.00
H395   H     0.50563   0.32276   0.07911   0.00000  Uiso   1.00
H396   H     0.59539   0.26826   0.35224   0.00000  Uiso   1.00
H397   H     0.51136   0.47207   0.20988   0.00000  Uiso   1.00
H398   H     0.43089   0.29657   0.97756   0.00000  Uiso   1.00
H399   H     0.21537   0.34187   0.22505   0.00000  Uiso   1.00
H400   H     0.24587   0.30507   0.30811   0.00000  Uiso   1.00
H401   H     0.20603   0.40173   0.24060   0.00000  Uiso   1.00
H402   H     0.16787   0.31850   0.13044   0.00000  Uiso   1.00
H403   H     0.32124   0.26480   0.39390   0.00000  Uiso   1.00
H404   H     0.23721   0.46862   0.25153   0.00000  Uiso   1.00
H405   H     0.15674   0.29311   0.01923   0.00000  Uiso   1.00
O406   O     0.48416   0.24240   0.42684   0.00000  Uiso   1.00
O407   O     0.37391   0.50980   0.24006   0.00000  Uiso   1.00
O408   O     0.26834   0.27954   0.93528   0.00000  Uiso   1.00
N409   N     0.52668   0.27249   0.35064   0.00000  Uiso   1.00
N410   N     0.44812   0.46304   0.21754   0.00000  Uiso   1.00
N411   N     0.37289   0.29897   0.00035   0.00000  Uiso   1.00
N412   N     0.37916   0.27063   0.37306   0.00000  Uiso   1.00
N413   N     0.30060   0.46118   0.23996   0.00000  Uiso   1.00
N414   N     0.22537   0.29711   0.02277   0.00000  Uiso   1.00
C415   C     0.96222   0.84498   0.18754   0.00000  Uiso   1.00
C416   C     0.94393   0.82454   0.23796   0.00000  Uiso   1.00
C417   C     0.01073   0.80840   0.26788   0.00000  Uiso   1.00
C418   C     0.97993   0.79101   0.31267   0.00000  Uiso   1.00
C419   C     0.96588   0.75947   0.38880   0.00000  Uiso   1.00
C420   C     0.92228   0.87706   0.20129   0.00000  Uiso   1.00
C421   C     0.97088   0.90508   0.20036   0.00000  Uiso   1.00
C422   C     0.92185   0.93189   0.21428   0.00000  Uiso   1.00
C423   C     0.87417   0.98189   0.23344   0.00000  Uiso   1.00
C424   C     0.90155   0.83184   0.14144   0.00000  Uiso   1.00
C425   C     0.93271   0.82183   0.09017   0.00000  Uiso   1.00
C426   C     0.86623   0.81058   0.05369   0.00000  Uiso   1.00
C427   C     0.78636   0.79036   0.97992   0.00000  Uiso   1.00
C428   C     0.78874   0.84279   0.21390   0.00000  Uiso   1.00
C429   C     0.84970   0.82336   0.25228   0.00000  Uiso   1.00
C430   C     0.81879   0.80598   0.29704   0.00000  Uiso   1.00
C431   C     0.88554   0.78982   0.32701   0.00000  Uiso   1.00
C432   C     0.82806   0.87588   0.21561   0.00000  Uiso   1.00
C433   C     0.77894   0.90266   0.22953   0.00000  Uiso   1.00
C434   C     0.82745   0.93070   0.22862   0.00000  Uiso   1.00
C435   C     0.80732   0.83065   0.15575   0.00000  Uiso   1.00
C436   C     0.74078   0.81941   0.11934   0.00000  Uiso   1.00
C437   C     0.77183   0.80939   0.06804   0.00000  Uiso   1.00
H438   H     0.03557   0.84591   0.17639   0.00000  Uiso   1.00
H439   H     0.08364   0.80933   0.25678   0.00000  Uiso   1.00
H440   H     0.04379   0.90599   0.18928   0.00000  Uiso   1.00
H441   H     0.00563   0.82276   0.07911   0.00000  Uiso   1.00
H442   H     0.09539   0.76826   0.35224   0.00000  Uiso   1.00
H443   H     0.01136   0.97207   0.20988   0.00000  Uiso   1.00
H444   H     0.93089   0.79657   0.97756   0.00000  Uiso   1.00
H445   H     0.71537   0.84187   0.22505   0.00000  Uiso   1.00
H446   H     0.74587   0.80507   0.30811   0.00000  Uiso   1.00
H447   H     0.70603   0.90173   0.24060   0.00000  Uiso   1.00
H448   H     0.66787   0.81850   0.13044   0.00000  Uiso   1.00
H449   H     0.82124   0.76480   0.39390   0.00000  Uiso   1.00
H450   H     0.73721   0.96862   0.25153   0.00000  Uiso   1.00
H451   H     0.65674   0.79311   0.01923   0.00000  Uiso   1.00
O452   O     0.98416   0.74240   0.42684   0.00000  Uiso   1.00
O453   O     0.87391   0.00980   0.24006   0.00000  Uiso   1.00
O454   O     0.76834   0.77954   0.93528   0.00000  Uiso   1.00
N455   N     0.02668   0.77249   0.35064   0.00000  Uiso   1.00
N456   N     0.94812   0.96304   0.21754   0.00000  Uiso   1.00
N457   N     0.87289   0.79897   0.00035   0.00000  Uiso   1.00
N458   N     0.87916   0.77063   0.37306   0.00000  Uiso   1.00
N459   N     0.80060   0.96118   0.23996   0.00000  Uiso   1.00
N460   N     0.72537   0.79711   0.02277   0.00000  Uiso   1.00
C461   C     0.03778   0.15502   0.18754   0.00000  Uiso   1.00
C462   C     0.05607   0.17546   0.23796   0.00000  Uiso   1.00
C463   C     0.98927   0.19160   0.26788   0.00000  Uiso   1.00
C464   C     0.02007   0.20899   0.31267   0.00000  Uiso   1.00
C465   C     0.03412   0.24053   0.38880   0.00000  Uiso   1.00
C466   C     0.07772   0.12294   0.20129   0.00000  Uiso   1.00
C467   C     0.02912   0.09492   0.20036   0.00000  Uiso   1.00
C468   C     0.07815   0.06811   0.21428   0.00000  Uiso   1.00
C469   C     0.12583   0.01811   0.23344   0.00000  Uiso   1.00
C470   C     0.09845   0.16816   0.14144   0.00000  Uiso   1.00
C471   C     0.06729   0.17817   0.09017   0.00000  Uiso   1.00
C472   C     0.13377   0.18942   0.05369   0.00000  Uiso   1.00
C473   C     0.21364   0.20964   0.97992   0.00000  Uiso   1.00
C474   C     0.21126   0.15721   0.21390   0.00000  Uiso   1.00
C475   C     0.15030   0.17664   0.25228   0.00000  Uiso   1.00
C476   C     0.18121   0.19402   0.29704   0.00000  Uiso   1.00
C477   C     0.11446   0.21018   0.32701   0.00000  Uiso   1.00
C478   C     0.17194   0.12412   0.21561   0.00000  Uiso   1.00
C479   C     0.22106   0.09734   0.22953   0.00000  Uiso   1.00
C480   C     0.17255   0.06930   0.22862   0.00000  Uiso   1.00
C481   C     0.19268   0.16935   0.15575   0.00000  Uiso   1.00
C482   C     0.25922   0.18059   0.11934   0.00000  Uiso   1.00
C483   C     0.22817   0.19061   0.06804   0.00000  Uiso   1.00
H484   H     0.96443   0.15409   0.17639   0.00000  Uiso   1.00
H485   H     0.91636   0.19067   0.25678   0.00000  Uiso   1.00
H486   H     0.95621   0.09401   0.18928   0.00000  Uiso   1.00
H487   H     0.99437   0.17724   0.07911   0.00000  Uiso   1.00
H488   H     0.90461   0.23174   0.35224   0.00000  Uiso   1.00
H489   H     0.98864   0.02793   0.20988   0.00000  Uiso   1.00
H490   H     0.06911   0.20343   0.97756   0.00000  Uiso   1.00
H491   H     0.28463   0.15813   0.22505   0.00000  Uiso   1.00
H492   H     0.25413   0.19493   0.30811   0.00000  Uiso   1.00
H493   H     0.29397   0.09827   0.24060   0.00000  Uiso   1.00
H494   H     0.33213   0.18150   0.13044   0.00000  Uiso   1.00
H495   H     0.17876   0.23520   0.39390   0.00000  Uiso   1.00
H496   H     0.26279   0.03138   0.25153   0.00000  Uiso   1.00
H497   H     0.34326   0.20689   0.01923   0.00000  Uiso   1.00
O498   O     0.01584   0.25760   0.42684   0.00000  Uiso   1.00
O499   O     0.12609   0.99020   0.24006   0.00000  Uiso   1.00
O500   O     0.23166   0.22046   0.93528   0.00000  Uiso   1.00
N501   N     0.97332   0.22751   0.35064   0.00000  Uiso   1.00
N502   N     0.05188   0.03696   0.21754   0.00000  Uiso   1.00
N503   N     0.12711   0.20103   0.00035   0.00000  Uiso   1.00
N504   N     0.12084   0.22937   0.37306   0.00000  Uiso   1.00
N505   N     0.19940   0.03882   0.23996   0.00000  Uiso   1.00
N506   N     0.27463   0.20289   0.02277   0.00000  Uiso   1.00
C507   C     0.53778   0.65502   0.18754   0.00000  Uiso   1.00
C508   C     0.55607   0.67546   0.23796   0.00000  Uiso   1.00
C509   C     0.48927   0.69160   0.26788   0.00000  Uiso   1.00
C510   C     0.52007   0.70899   0.31267   0.00000  Uiso   1.00
C511   C     0.53412   0.74053   0.38880   0.00000  Uiso   1.00
C512   C     0.57772   0.62294   0.20129   0.00000  Uiso   1.00
C513   C     0.52912   0.59492   0.20036   0.00000  Uiso   1.00
C514   C     0.57815   0.56811   0.21428   0.00000  Uiso   1.00
C515   C     0.62583   0.51811   0.23344   0.00000  Uiso   1.00
C516   C     0.59845   0.66816   0.14144   0.00000  Uiso   1.00
C517   C     0.56729   0.67817   0.09017   0.00000  Uiso   1.00
C518   C     0.63377   0.68942   0.05369   0.00000  Uiso   1.00
C519   C     0.71364   0.70964   0.97992   0.00000  Uiso   1.00
C520   C     0.71126   0.65721   0.21390   0.00000  Uiso   1.00
C521   C     0.65030   0.67664   0.25228   0.00000  Uiso   1.00
C522   C     0.68121   0.69402   0.29704   0.00000  Uiso   1.00
C523   C     0.61446   0.71018   0.32701   0.00000  Uiso   1.00
C524   C     0.67194   0.62412   0.21561   0.00000  Uiso   1.00
C525   C     0.72106   0.59734   0.22953   0.00000  Uiso   1.00
C526   C     0.67255   0.56930   0.22862   0.00000  Uiso   1.00
C527   C     0.69268   0.66935   0.15575   0.00000  Uiso   1.00
C528   C     0.75922   0.68059   0.11934   0.00000  Uiso   1.00
C529   C     0.72817   0.69061   0.06804   0.00000  Uiso   1.00
H530   H     0.46443   0.65409   0.17639   0.00000  Uiso   1.00
H531   H     0.41636   0.69067   0.25678   0.00000  Uiso   1.00
H532   H     0.45621   0.59401   0.18928   0.00000  Uiso   1.00
H533   H     0.49437   0.67724   0.07911   0.00000  Uiso   1.00
H534   H     0.40461   0.73174   0.35224   0.00000  Uiso   1.00
H535   H     0.48864   0.52793   0.20988   0.00000  Uiso   1.00
H536   H     0.56911   0.70343   0.97756   0.00000  Uiso   1.00
H537   H     0.78463   0.65813   0.22505   0.00000  Uiso   1.00
H538   H     0.75413   0.69493   0.30811   0.00000  Uiso   1.00
H539   H     0.79397   0.59827   0.24060   0.00000  Uiso   1.00
H540   H     0.83213   0.68150   0.13044   0.00000  Uiso   1.00
H541   H     0.67876   0.73520   0.39390   0.00000  Uiso   1.00
H542   H     0.76279   0.53138   0.25153   0.00000  Uiso   1.00
H543   H     0.84326   0.70689   0.01923   0.00000  Uiso   1.00
O544   O     0.51584   0.75760   0.42684   0.00000  Uiso   1.00
O545   O     0.62609   0.49020   0.24006   0.00000  Uiso   1.00
O546   O     0.73166   0.72046   0.93528   0.00000  Uiso   1.00
N547   N     0.47332   0.72751   0.35064   0.00000  Uiso   1.00
N548   N     0.55188   0.53696   0.21754   0.00000  Uiso   1.00
N549   N     0.62711   0.70103   0.00035   0.00000  Uiso   1.00
N550   N     0.62084   0.72937   0.37306   0.00000  Uiso   1.00
N551   N     0.69940   0.53882   0.23996   0.00000  Uiso   1.00
N552   N     0.77463   0.70289   0.02277   0.00000  Uiso   1.00
C553   C     0.53778   0.34498   0.81246   0.00000  Uiso   1.00
C554   C     0.55607   0.32454   0.76204   0.00000  Uiso   1.00
C555   C     0.48927   0.30840   0.73212   0.00000  Uiso   1.00
C556   C     0.52007   0.29101   0.68733   0.00000  Uiso   1.00
C557   C     0.53412   0.25947   0.61120   0.00000  Uiso   1.00
C558   C     0.57772   0.37706   0.79871   0.00000  Uiso   1.00
C559   C     0.52912   0.40508   0.79964   0.00000  Uiso   1.00
C560   C     0.57815   0.43189   0.78572   0.00000  Uiso   1.00
C561   C     0.62583   0.48189   0.76656   0.00000  Uiso   1.00
C562   C     0.59845   0.33184   0.85856   0.00000  Uiso   1.00
C563   C     0.56729   0.32183   0.90983   0.00000  Uiso   1.00
C564   C     0.63377   0.31058   0.94631   0.00000  Uiso   1.00
C565   C     0.71364   0.29036   0.02008   0.00000  Uiso   1.00
C566   C     0.71126   0.34279   0.78610   0.00000  Uiso   1.00
C567   C     0.65030   0.32336   0.74772   0.00000  Uiso   1.00
C568   C     0.68121   0.30598   0.70296   0.00000  Uiso   1.00
C569   C     0.61446   0.28982   0.67299   0.00000  Uiso   1.00
C570   C     0.67194   0.37588   0.78439   0.00000  Uiso   1.00
C571   C     0.72106   0.40266   0.77047   0.00000  Uiso   1.00
C572   C     0.67255   0.43070   0.77138   0.00000  Uiso   1.00
C573   C     0.69268   0.33065   0.84425   0.00000  Uiso   1.00
C574   C     0.75922   0.31941   0.88066   0.00000  Uiso   1.00
C575   C     0.72817   0.30939   0.93196   0.00000  Uiso   1.00
H576   H     0.46443   0.34591   0.82361   0.00000  Uiso   1.00
H577   H     0.41636   0.30933   0.74322   0.00000  Uiso   1.00
H578   H     0.45621   0.40599   0.81072   0.00000  Uiso   1.00
H579   H     0.49437   0.32276   0.92089   0.00000  Uiso   1.00
H580   H     0.40461   0.26826   0.64776   0.00000  Uiso   1.00
H581   H     0.48864   0.47207   0.79012   0.00000  Uiso   1.00
H582   H     0.56911   0.29657   0.02244   0.00000  Uiso   1.00
H583   H     0.78463   0.34187   0.77495   0.00000  Uiso   1.00
H584   H     0.75413   0.30507   0.69189   0.00000  Uiso   1.00
H585   H     0.79397   0.40173   0.75940   0.00000  Uiso   1.00
H586   H     0.83213   0.31850   0.86956   0.00000  Uiso   1.00
H587   H     0.67876   0.26480   0.60610   0.00000  Uiso   1.00
H588   H     0.76279   0.46862   0.74847   0.00000  Uiso   1.00
H589   H     0.84326   0.29311   0.98077   0.00000  Uiso   1.00
O590   O     0.51584   0.24240   0.57316   0.00000  Uiso   1.00
O591   O     0.62609   0.50980   0.75994   0.00000  Uiso   1.00
O592   O     0.73166   0.27954   0.06472   0.00000  Uiso   1.00
N593   N     0.47332   0.27249   0.64936   0.00000  Uiso   1.00
N594   N     0.55188   0.46304   0.78246   0.00000  Uiso   1.00
N595   N     0.62711   0.29897   0.99965   0.00000  Uiso   1.00
N596   N     0.62084   0.27063   0.62694   0.00000  Uiso   1.00
N597   N     0.69940   0.46118   0.76004   0.00000  Uiso   1.00
N598   N     0.77463   0.29711   0.97723   0.00000  Uiso   1.00
C599   C     0.03778   0.84498   0.81246   0.00000  Uiso   1.00
C600   C     0.05607   0.82454   0.76204   0.00000  Uiso   1.00
C601   C     0.98927   0.80840   0.73212   0.00000  Uiso   1.00
C602   C     0.02007   0.79101   0.68733   0.00000  Uiso   1.00
C603   C     0.03412   0.75947   0.61120   0.00000  Uiso   1.00
C604   C     0.07772   0.87706   0.79871   0.00000  Uiso   1.00
C605   C     0.02912   0.90508   0.79964   0.00000  Uiso   1.00
C606   C     0.07815   0.93189   0.78572   0.00000  Uiso   1.00
C607   C     0.12583   0.98189   0.76656   0.00000  Uiso   1.00
C608   C     0.09845   0.83184   0.85856   0.00000  Uiso   1.00
C609   C     0.06729   0.82183   0.90983   0.00000  Uiso   1.00
C610   C     0.13377   0.81058   0.94631   0.00000  Uiso   1.00
C611   C     0.21364   0.79036   0.02008   0.00000  Uiso   1.00
C612   C     0.21126   0.84279   0.78610   0.00000  Uiso   1.00
C613   C     0.15030   0.82336   0.74772   0.00000  Uiso   1.00
C614   C     0.18121   0.80598   0.70296   0.00000  Uiso   1.00
C615   C     0.11446   0.78982   0.67299   0.00000  Uiso   1.00
C616   C     0.17194   0.87588   0.78439   0.00000  Uiso   1.00
C617   C     0.22106   0.90266   0.77047   0.00000  Uiso   1.00
C618   C     0.17255   0.93070   0.77138   0.00000  Uiso   1.00
C619   C     0.19268   0.83065   0.84425   0.00000  Uiso   1.00
C620   C     0.25922   0.81941   0.88066   0.00000  Uiso   1.00
C621   C     0.22817   0.80939   0.93196   0.00000  Uiso   1.00
H622   H     0.96443   0.84591   0.82361   0.00000  Uiso   1.00
H623   H     0.91636   0.80933   0.74322   0.00000  Uiso   1.00
H624   H     0.95621   0.90599   0.81072   0.00000  Uiso   1.00
H625   H     0.99437   0.82276   0.92089   0.00000  Uiso   1.00
H626   H     0.90461   0.76826   0.64776   0.00000  Uiso   1.00
H627   H     0.98864   0.97207   0.79012   0.00000  Uiso   1.00
H628   H     0.06911   0.79657   0.02244   0.00000  Uiso   1.00
H629   H     0.28463   0.84187   0.77495   0.00000  Uiso   1.00
H630   H     0.25413   0.80507   0.69189   0.00000  Uiso   1.00
H631   H     0.29397   0.90173   0.75940   0.00000  Uiso   1.00
H632   H     0.33213   0.81850   0.86956   0.00000  Uiso   1.00
H633   H     0.17876   0.76480   0.60610   0.00000  Uiso   1.00
H634   H     0.26279   0.96862   0.74847   0.00000  Uiso   1.00
H635   H     0.34326   0.79311   0.98077   0.00000  Uiso   1.00
O636   O     0.01584   0.74240   0.57316   0.00000  Uiso   1.00
O637   O     0.12609   0.00980   0.75994   0.00000  Uiso   1.00
O638   O     0.23166   0.77954   0.06472   0.00000  Uiso   1.00
N639   N     0.97332   0.77249   0.64936   0.00000  Uiso   1.00
N640   N     0.05188   0.96304   0.78246   0.00000  Uiso   1.00
N641   N     0.12711   0.79897   0.99965   0.00000  Uiso   1.00
N642   N     0.12084   0.77063   0.62694   0.00000  Uiso   1.00
N643   N     0.19940   0.96118   0.76004   0.00000  Uiso   1.00
N644   N     0.27463   0.79711   0.97723   0.00000  Uiso   1.00
C645   C     0.96222   0.15502   0.81246   0.00000  Uiso   1.00
C646   C     0.94393   0.17546   0.76204   0.00000  Uiso   1.00
C647   C     0.01073   0.19160   0.73212   0.00000  Uiso   1.00
C648   C     0.97993   0.20899   0.68733   0.00000  Uiso   1.00
C649   C     0.96588   0.24053   0.61120   0.00000  Uiso   1.00
C650   C     0.92228   0.12294   0.79871   0.00000  Uiso   1.00
C651   C     0.97088   0.09492   0.79964   0.00000  Uiso   1.00
C652   C     0.92185   0.06811   0.78572   0.00000  Uiso   1.00
C653   C     0.87417   0.01811   0.76656   0.00000  Uiso   1.00
C654   C     0.90155   0.16816   0.85856   0.00000  Uiso   1.00
C655   C     0.93271   0.17817   0.90983   0.00000  Uiso   1.00
C656   C     0.86623   0.18942   0.94631   0.00000  Uiso   1.00
C657   C     0.78636   0.20964   0.02008   0.00000  Uiso   1.00
C658   C     0.78874   0.15721   0.78610   0.00000  Uiso   1.00
C659   C     0.84970   0.17664   0.74772   0.00000  Uiso   1.00
C660   C     0.81879   0.19402   0.70296   0.00000  Uiso   1.00
C661   C     0.88554   0.21018   0.67299   0.00000  Uiso   1.00
C662   C     0.82806   0.12412   0.78439   0.00000  Uiso   1.00
C663   C     0.77894   0.09734   0.77047   0.00000  Uiso   1.00
C664   C     0.82745   0.06930   0.77138   0.00000  Uiso   1.00
C665   C     0.80732   0.16935   0.84425   0.00000  Uiso   1.00
C666   C     0.74078   0.18059   0.88066   0.00000  Uiso   1.00
C667   C     0.77183   0.19061   0.93196   0.00000  Uiso   1.00
H668   H     0.03557   0.15409   0.82361   0.00000  Uiso   1.00
H669   H     0.08364   0.19067   0.74322   0.00000  Uiso   1.00
H670   H     0.04379   0.09401   0.81072   0.00000  Uiso   1.00
H671   H     0.00563   0.17724   0.92089   0.00000  Uiso   1.00
H672   H     0.09539   0.23174   0.64776   0.00000  Uiso   1.00
H673   H     0.01136   0.02793   0.79012   0.00000  Uiso   1.00
H674   H     0.93089   0.20343   0.02244   0.00000  Uiso   1.00
H675   H     0.71537   0.15813   0.77495   0.00000  Uiso   1.00
H676   H     0.74587   0.19493   0.69189   0.00000  Uiso   1.00
H677   H     0.70603   0.09827   0.75940   0.00000  Uiso   1.00
H678   H     0.66787   0.18150   0.86956   0.00000  Uiso   1.00
H679   H     0.82124   0.23520   0.60610   0.00000  Uiso   1.00
H680   H     0.73721   0.03138   0.74847   0.00000  Uiso   1.00
H681   H     0.65674   0.20689   0.98077   0.00000  Uiso   1.00
O682   O     0.98416   0.25760   0.57316   0.00000  Uiso   1.00
O683   O     0.87391   0.99020   0.75994   0.00000  Uiso   1.00
O684   O     0.76834   0.22046   0.06472   0.00000  Uiso   1.00
N685   N     0.02668   0.22751   0.64936   0.00000  Uiso   1.00
N686   N     0.94812   0.03696   0.78246   0.00000  Uiso   1.00
N687   N     0.87289   0.20103   0.99965   0.00000  Uiso   1.00
N688   N     0.87916   0.22937   0.62694   0.00000  Uiso   1.00
N689   N     0.80060   0.03882   0.76004   0.00000  Uiso   1.00
N690   N     0.72537   0.20289   0.97723   0.00000  Uiso   1.00
C691   C     0.46222   0.65502   0.81246   0.00000  Uiso   1.00
C692   C     0.44393   0.67546   0.76204   0.00000  Uiso   1.00
C693   C     0.51073   0.69160   0.73212   0.00000  Uiso   1.00
C694   C     0.47993   0.70899   0.68733   0.00000  Uiso   1.00
C695   C     0.46588   0.74053   0.61120   0.00000  Uiso   1.00
C696   C     0.42228   0.62294   0.79871   0.00000  Uiso   1.00
C697   C     0.47088   0.59492   0.79964   0.00000  Uiso   1.00
C698   C     0.42185   0.56811   0.78572   0.00000  Uiso   1.00
C699   C     0.37417   0.51811   0.76656   0.00000  Uiso   1.00
C700   C     0.40155   0.66816   0.85856   0.00000  Uiso   1.00
C701   C     0.43271   0.67817   0.90983   0.00000  Uiso   1.00
C702   C     0.36623   0.68942   0.94631   0.00000  Uiso   1.00
C703   C     0.28636   0.70964   0.02008   0.00000  Uiso   1.00
C704   C     0.28874   0.65721   0.78610   0.00000  Uiso   1.00
C705   C     0.34970   0.67664   0.74772   0.00000  Uiso   1.00
C706   C     0.31879   0.69402   0.70296   0.00000  Uiso   1.00
C707   C     0.38554   0.71018   0.67299   0.00000  Uiso   1.00
C708   C     0.32806   0.62412   0.78439   0.00000  Uiso   1.00
C709   C     0.27894   0.59734   0.77047   0.00000  Uiso   1.00
C710   C     0.32745   0.56930   0.77138   0.00000  Uiso   1.00
C711   C     0.30732   0.66935   0.84425   0.00000  Uiso   1.00
C712   C     0.24078   0.68059   0.88066   0.00000  Uiso   1.00
C713   C     0.27183   0.69061   0.93196   0.00000  Uiso   1.00
H714   H     0.53557   0.65409   0.82361   0.00000  Uiso   1.00
H715   H     0.58364   0.69067   0.74322   0.00000  Uiso   1.00
H716   H     0.54379   0.59401   0.81072   0.00000  Uiso   1.00
H717   H     0.50563   0.67724   0.92089   0.00000  Uiso   1.00
H718   H     0.59539   0.73174   0.64776   0.00000  Uiso   1.00
H719   H     0.51136   0.52793   0.79012   0.00000  Uiso   1.00
H720   H     0.43089   0.70343   0.02244   0.00000  Uiso   1.00
H721   H     0.21537   0.65813   0.77495   0.00000  Uiso   1.00
H722   H     0.24587   0.69493   0.69189   0.00000  Uiso   1.00
H723   H     0.20603   0.59827   0.75940   0.00000  Uiso   1.00
H724   H     0.16787   0.68150   0.86956   0.00000  Uiso   1.00
H725   H     0.32124   0.73520   0.60610   0.00000  Uiso   1.00
H726   H     0.23721   0.53138   0.74847   0.00000  Uiso   1.00
H727   H     0.15674   0.70689   0.98077   0.00000  Uiso   1.00
O728   O     0.48416   0.75760   0.57316   0.00000  Uiso   1.00
O729   O     0.37391   0.49020   0.75994   0.00000  Uiso   1.00
O730   O     0.26834   0.72046   0.06472   0.00000  Uiso   1.00
N731   N     0.52668   0.72751   0.64936   0.00000  Uiso   1.00
N732   N     0.44812   0.53696   0.78246   0.00000  Uiso   1.00
N733   N     0.37289   0.70103   0.99965   0.00000  Uiso   1.00
N734   N     0.37916   0.72937   0.62694   0.00000  Uiso   1.00
N735   N     0.30060   0.53882   0.76004   0.00000  Uiso   1.00
N736   N     0.22537   0.70289   0.97723   0.00000  Uiso   1.00
