data_job_02639
_audit_creation_date              2018-12-19
_audit_creation_method            'Materials Studio'
_symmetry_space_group_name_H-M    'P1'
_symmetry_Int_Tables_number       1
_symmetry_cell_setting            triclinic
loop_
_symmetry_equiv_pos_as_xyz
  x,y,z
_cell_length_a                    46.0006
_cell_length_b                    46.0006
_cell_length_c                    10.7600
_cell_angle_alpha                 90.0000
_cell_angle_beta                  90.0000
_cell_angle_gamma                 90.0000
loop_
_atom_site_label
_atom_site_type_symbol
_atom_site_fract_x
_atom_site_fract_y
_atom_site_fract_z
_atom_site_U_iso_or_equiv
_atom_site_adp_type
_atom_site_occupancy
C1     C     0.54907   0.18679   0.55873   0.00000  Uiso   1.00
C2     C     0.55637   0.21746   0.51490   0.00000  Uiso   1.00
C3     C     0.56155   0.24123   0.59116   0.00000  Uiso   1.00
C4     C     0.56787   0.26743   0.53306   0.00000  Uiso   1.00
C5     C     0.57902   0.31470   0.48474   0.00000  Uiso   1.00
C6     C     0.52032   0.17889   0.49678   0.00000  Uiso   1.00
C7     C     0.49519   0.17023   0.55780   0.00000  Uiso   1.00
C8     C     0.47117   0.16396   0.48443   0.00000  Uiso   1.00
C9     C     0.42636   0.15134   0.40797   0.00000  Uiso   1.00
C10    C     0.57191   0.16693   0.50087   0.00000  Uiso   1.00
C11    C     0.59014   0.14821   0.56532   0.00000  Uiso   1.00
C12    C     0.60954   0.13186   0.49540   0.00000  Uiso   1.00
C13    C     0.64482   0.10067   0.42529   0.00000  Uiso   1.00
C14    C     0.55109   0.19104   0.31995   0.00000  Uiso   1.00
C15    C     0.55747   0.21976   0.38521   0.00000  Uiso   1.00
C16    C     0.56379   0.24593   0.32698   0.00000  Uiso   1.00
C17    C     0.56897   0.26974   0.40313   0.00000  Uiso   1.00
C18    C     0.52142   0.18120   0.36709   0.00000  Uiso   1.00
C19    C     0.49743   0.17494   0.29362   0.00000  Uiso   1.00
C20    C     0.47226   0.16627   0.35451   0.00000  Uiso   1.00
C21    C     0.57301   0.16924   0.37118   0.00000  Uiso   1.00
C22    C     0.59238   0.15291   0.30115   0.00000  Uiso   1.00
C23    C     0.61064   0.13417   0.36548   0.00000  Uiso   1.00
H24    H     0.54822   0.18499   0.65970   0.00000  Uiso   1.00
H25    H     0.56070   0.23944   0.69152   0.00000  Uiso   1.00
H26    H     0.49435   0.16845   0.65816   0.00000  Uiso   1.00
H27    H     0.58929   0.14643   0.66568   0.00000  Uiso   1.00
H28    H     0.57500   0.30082   0.66961   0.00000  Uiso   1.00
H29    H     0.43511   0.15113   0.59926   0.00000  Uiso   1.00
H30    H     0.63530   0.10470   0.61513   0.00000  Uiso   1.00
H31    H     0.55195   0.19283   0.21898   0.00000  Uiso   1.00
H32    H     0.56463   0.24771   0.22662   0.00000  Uiso   1.00
H33    H     0.49829   0.17672   0.19326   0.00000  Uiso   1.00
H34    H     0.59322   0.15470   0.20078   0.00000  Uiso   1.00
H35    H     0.57820   0.30754   0.29227   0.00000  Uiso   1.00
H36    H     0.43830   0.15784   0.22193   0.00000  Uiso   1.00
H37    H     0.63850   0.11141   0.23780   0.00000  Uiso   1.00
O38    O     0.58487   0.34014   0.49391   0.00000  Uiso   1.00
O39    O     0.40134   0.14374   0.40163   0.00000  Uiso   1.00
O40    O     0.66398   0.08283   0.42245   0.00000  Uiso   1.00
N41    N     0.57402   0.29487   0.57975   0.00000  Uiso   1.00
N42    N     0.44323   0.15492   0.51399   0.00000  Uiso   1.00
N43    N     0.63039   0.11150   0.52882   0.00000  Uiso   1.00
N44    N     0.57574   0.29848   0.37671   0.00000  Uiso   1.00
N45    N     0.44495   0.15853   0.31095   0.00000  Uiso   1.00
N46    N     0.63210   0.11512   0.32578   0.00000  Uiso   1.00
C47    C     0.04907   0.68679   0.05873   0.00000  Uiso   1.00
C48    C     0.05637   0.71746   0.01490   0.00000  Uiso   1.00
C49    C     0.06155   0.74123   0.09116   0.00000  Uiso   1.00
C50    C     0.06787   0.76743   0.03306   0.00000  Uiso   1.00
C51    C     0.07902   0.81470   0.98474   0.00000  Uiso   1.00
C52    C     0.02032   0.67889   0.99678   0.00000  Uiso   1.00
C53    C     0.99519   0.67023   0.05780   0.00000  Uiso   1.00
C54    C     0.97117   0.66396   0.98443   0.00000  Uiso   1.00
C55    C     0.92636   0.65134   0.90797   0.00000  Uiso   1.00
C56    C     0.07191   0.66693   0.00087   0.00000  Uiso   1.00
C57    C     0.09014   0.64821   0.06532   0.00000  Uiso   1.00
C58    C     0.10954   0.63186   0.99540   0.00000  Uiso   1.00
C59    C     0.14482   0.60067   0.92529   0.00000  Uiso   1.00
C60    C     0.05109   0.69104   0.81995   0.00000  Uiso   1.00
C61    C     0.05747   0.71976   0.88521   0.00000  Uiso   1.00
C62    C     0.06379   0.74593   0.82698   0.00000  Uiso   1.00
C63    C     0.06897   0.76974   0.90313   0.00000  Uiso   1.00
C64    C     0.02142   0.68120   0.86709   0.00000  Uiso   1.00
C65    C     0.99743   0.67494   0.79362   0.00000  Uiso   1.00
C66    C     0.97226   0.66627   0.85451   0.00000  Uiso   1.00
C67    C     0.07301   0.66924   0.87118   0.00000  Uiso   1.00
C68    C     0.09238   0.65291   0.80115   0.00000  Uiso   1.00
C69    C     0.11064   0.63417   0.86548   0.00000  Uiso   1.00
H70    H     0.04822   0.68499   0.15970   0.00000  Uiso   1.00
H71    H     0.06070   0.73944   0.19152   0.00000  Uiso   1.00
H72    H     0.99435   0.66845   0.15816   0.00000  Uiso   1.00
H73    H     0.08929   0.64643   0.16568   0.00000  Uiso   1.00
H74    H     0.07500   0.80082   0.16961   0.00000  Uiso   1.00
H75    H     0.93511   0.65113   0.09926   0.00000  Uiso   1.00
H76    H     0.13530   0.60470   0.11513   0.00000  Uiso   1.00
H77    H     0.05195   0.69283   0.71898   0.00000  Uiso   1.00
H78    H     0.06463   0.74771   0.72662   0.00000  Uiso   1.00
H79    H     0.99829   0.67672   0.69326   0.00000  Uiso   1.00
H80    H     0.09322   0.65470   0.70078   0.00000  Uiso   1.00
H81    H     0.07820   0.80754   0.79227   0.00000  Uiso   1.00
H82    H     0.93830   0.65784   0.72193   0.00000  Uiso   1.00
H83    H     0.13850   0.61141   0.73780   0.00000  Uiso   1.00
O84    O     0.08487   0.84014   0.99391   0.00000  Uiso   1.00
O85    O     0.90134   0.64374   0.90163   0.00000  Uiso   1.00
O86    O     0.16398   0.58283   0.92245   0.00000  Uiso   1.00
N87    N     0.07402   0.79487   0.07975   0.00000  Uiso   1.00
N88    N     0.94323   0.65492   0.01399   0.00000  Uiso   1.00
N89    N     0.13039   0.61150   0.02882   0.00000  Uiso   1.00
N90    N     0.07574   0.79848   0.87671   0.00000  Uiso   1.00
N91    N     0.94495   0.65853   0.81095   0.00000  Uiso   1.00
N92    N     0.13210   0.61512   0.82578   0.00000  Uiso   1.00
C93    C     0.95093   0.31321   0.05873   0.00000  Uiso   1.00
C94    C     0.94363   0.28254   0.01490   0.00000  Uiso   1.00
C95    C     0.93845   0.25877   0.09116   0.00000  Uiso   1.00
C96    C     0.93213   0.23257   0.03306   0.00000  Uiso   1.00
C97    C     0.92098   0.18530   0.98474   0.00000  Uiso   1.00
C98    C     0.97968   0.32111   0.99678   0.00000  Uiso   1.00
C99    C     0.00481   0.32977   0.05780   0.00000  Uiso   1.00
C100   C     0.02883   0.33604   0.98443   0.00000  Uiso   1.00
C101   C     0.07364   0.34866   0.90797   0.00000  Uiso   1.00
C102   C     0.92809   0.33307   0.00087   0.00000  Uiso   1.00
C103   C     0.90986   0.35179   0.06532   0.00000  Uiso   1.00
C104   C     0.89046   0.36814   0.99540   0.00000  Uiso   1.00
C105   C     0.85518   0.39933   0.92529   0.00000  Uiso   1.00
C106   C     0.94891   0.30896   0.81995   0.00000  Uiso   1.00
C107   C     0.94253   0.28024   0.88521   0.00000  Uiso   1.00
C108   C     0.93621   0.25407   0.82698   0.00000  Uiso   1.00
C109   C     0.93103   0.23026   0.90313   0.00000  Uiso   1.00
C110   C     0.97858   0.31880   0.86709   0.00000  Uiso   1.00
C111   C     0.00257   0.32506   0.79362   0.00000  Uiso   1.00
C112   C     0.02774   0.33373   0.85451   0.00000  Uiso   1.00
C113   C     0.92699   0.33076   0.87118   0.00000  Uiso   1.00
C114   C     0.90762   0.34709   0.80115   0.00000  Uiso   1.00
C115   C     0.88936   0.36583   0.86548   0.00000  Uiso   1.00
H116   H     0.95178   0.31501   0.15970   0.00000  Uiso   1.00
H117   H     0.93930   0.26056   0.19152   0.00000  Uiso   1.00
H118   H     0.00565   0.33155   0.15816   0.00000  Uiso   1.00
H119   H     0.91071   0.35357   0.16568   0.00000  Uiso   1.00
H120   H     0.92500   0.19918   0.16961   0.00000  Uiso   1.00
H121   H     0.06489   0.34887   0.09926   0.00000  Uiso   1.00
H122   H     0.86470   0.39530   0.11513   0.00000  Uiso   1.00
H123   H     0.94805   0.30717   0.71898   0.00000  Uiso   1.00
H124   H     0.93537   0.25229   0.72662   0.00000  Uiso   1.00
H125   H     0.00171   0.32328   0.69326   0.00000  Uiso   1.00
H126   H     0.90678   0.34530   0.70078   0.00000  Uiso   1.00
H127   H     0.92180   0.19246   0.79227   0.00000  Uiso   1.00
H128   H     0.06170   0.34216   0.72193   0.00000  Uiso   1.00
H129   H     0.86150   0.38859   0.73780   0.00000  Uiso   1.00
O130   O     0.91513   0.15986   0.99391   0.00000  Uiso   1.00
O131   O     0.09866   0.35626   0.90163   0.00000  Uiso   1.00
O132   O     0.83602   0.41717   0.92245   0.00000  Uiso   1.00
N133   N     0.92598   0.20513   0.07975   0.00000  Uiso   1.00
N134   N     0.05677   0.34508   0.01399   0.00000  Uiso   1.00
N135   N     0.86961   0.38850   0.02882   0.00000  Uiso   1.00
N136   N     0.92426   0.20152   0.87671   0.00000  Uiso   1.00
N137   N     0.05505   0.34147   0.81095   0.00000  Uiso   1.00
N138   N     0.86790   0.38488   0.82578   0.00000  Uiso   1.00
C139   C     0.45093   0.81321   0.55873   0.00000  Uiso   1.00
C140   C     0.44363   0.78254   0.51490   0.00000  Uiso   1.00
C141   C     0.43845   0.75877   0.59116   0.00000  Uiso   1.00
C142   C     0.43213   0.73257   0.53306   0.00000  Uiso   1.00
C143   C     0.42098   0.68530   0.48474   0.00000  Uiso   1.00
C144   C     0.47968   0.82111   0.49678   0.00000  Uiso   1.00
C145   C     0.50481   0.82977   0.55780   0.00000  Uiso   1.00
C146   C     0.52883   0.83604   0.48443   0.00000  Uiso   1.00
C147   C     0.57364   0.84866   0.40797   0.00000  Uiso   1.00
C148   C     0.42809   0.83307   0.50087   0.00000  Uiso   1.00
C149   C     0.40986   0.85179   0.56532   0.00000  Uiso   1.00
C150   C     0.39046   0.86814   0.49540   0.00000  Uiso   1.00
C151   C     0.35518   0.89933   0.42529   0.00000  Uiso   1.00
C152   C     0.44891   0.80896   0.31995   0.00000  Uiso   1.00
C153   C     0.44253   0.78024   0.38521   0.00000  Uiso   1.00
C154   C     0.43621   0.75407   0.32698   0.00000  Uiso   1.00
C155   C     0.43103   0.73026   0.40313   0.00000  Uiso   1.00
C156   C     0.47858   0.81880   0.36709   0.00000  Uiso   1.00
C157   C     0.50257   0.82506   0.29362   0.00000  Uiso   1.00
C158   C     0.52774   0.83373   0.35451   0.00000  Uiso   1.00
C159   C     0.42699   0.83076   0.37118   0.00000  Uiso   1.00
C160   C     0.40762   0.84709   0.30115   0.00000  Uiso   1.00
C161   C     0.38936   0.86583   0.36548   0.00000  Uiso   1.00
H162   H     0.45178   0.81501   0.65970   0.00000  Uiso   1.00
H163   H     0.43930   0.76056   0.69152   0.00000  Uiso   1.00
H164   H     0.50565   0.83155   0.65816   0.00000  Uiso   1.00
H165   H     0.41071   0.85357   0.66568   0.00000  Uiso   1.00
H166   H     0.42500   0.69918   0.66961   0.00000  Uiso   1.00
H167   H     0.56489   0.84887   0.59926   0.00000  Uiso   1.00
H168   H     0.36470   0.89530   0.61513   0.00000  Uiso   1.00
H169   H     0.44805   0.80717   0.21898   0.00000  Uiso   1.00
H170   H     0.43537   0.75229   0.22662   0.00000  Uiso   1.00
H171   H     0.50171   0.82328   0.19326   0.00000  Uiso   1.00
H172   H     0.40678   0.84530   0.20078   0.00000  Uiso   1.00
H173   H     0.42180   0.69246   0.29227   0.00000  Uiso   1.00
H174   H     0.56170   0.84216   0.22193   0.00000  Uiso   1.00
H175   H     0.36150   0.88859   0.23780   0.00000  Uiso   1.00
O176   O     0.41513   0.65986   0.49391   0.00000  Uiso   1.00
O177   O     0.59866   0.85626   0.40163   0.00000  Uiso   1.00
O178   O     0.33602   0.91717   0.42245   0.00000  Uiso   1.00
N179   N     0.42598   0.70513   0.57975   0.00000  Uiso   1.00
N180   N     0.55677   0.84508   0.51399   0.00000  Uiso   1.00
N181   N     0.36961   0.88850   0.52882   0.00000  Uiso   1.00
N182   N     0.42426   0.70152   0.37671   0.00000  Uiso   1.00
N183   N     0.55505   0.84147   0.31095   0.00000  Uiso   1.00
N184   N     0.36790   0.88488   0.32578   0.00000  Uiso   1.00
C185   C     0.81321   0.04907   0.80873   0.00000  Uiso   1.00
C186   C     0.78254   0.05637   0.76490   0.00000  Uiso   1.00
C187   C     0.75877   0.06155   0.84116   0.00000  Uiso   1.00
C188   C     0.73257   0.06787   0.78306   0.00000  Uiso   1.00
C189   C     0.68530   0.07902   0.73474   0.00000  Uiso   1.00
C190   C     0.82111   0.02032   0.74678   0.00000  Uiso   1.00
C191   C     0.82977   0.99519   0.80780   0.00000  Uiso   1.00
C192   C     0.83604   0.97117   0.73443   0.00000  Uiso   1.00
C193   C     0.84866   0.92636   0.65797   0.00000  Uiso   1.00
C194   C     0.83307   0.07191   0.75087   0.00000  Uiso   1.00
C195   C     0.85179   0.09014   0.81532   0.00000  Uiso   1.00
C196   C     0.86814   0.10954   0.74540   0.00000  Uiso   1.00
C197   C     0.89933   0.14482   0.67529   0.00000  Uiso   1.00
C198   C     0.80896   0.05109   0.56995   0.00000  Uiso   1.00
C199   C     0.78024   0.05747   0.63521   0.00000  Uiso   1.00
C200   C     0.75407   0.06379   0.57698   0.00000  Uiso   1.00
C201   C     0.73026   0.06897   0.65313   0.00000  Uiso   1.00
C202   C     0.81880   0.02142   0.61709   0.00000  Uiso   1.00
C203   C     0.82506   0.99743   0.54362   0.00000  Uiso   1.00
C204   C     0.83373   0.97226   0.60451   0.00000  Uiso   1.00
C205   C     0.83076   0.07301   0.62118   0.00000  Uiso   1.00
C206   C     0.84709   0.09238   0.55115   0.00000  Uiso   1.00
C207   C     0.86583   0.11064   0.61548   0.00000  Uiso   1.00
H208   H     0.81501   0.04822   0.90970   0.00000  Uiso   1.00
H209   H     0.76056   0.06070   0.94152   0.00000  Uiso   1.00
H210   H     0.83155   0.99435   0.90816   0.00000  Uiso   1.00
H211   H     0.85357   0.08929   0.91568   0.00000  Uiso   1.00
H212   H     0.69918   0.07500   0.91961   0.00000  Uiso   1.00
H213   H     0.84887   0.93511   0.84926   0.00000  Uiso   1.00
H214   H     0.89530   0.13530   0.86513   0.00000  Uiso   1.00
H215   H     0.80717   0.05195   0.46898   0.00000  Uiso   1.00
H216   H     0.75229   0.06463   0.47662   0.00000  Uiso   1.00
H217   H     0.82328   0.99829   0.44326   0.00000  Uiso   1.00
H218   H     0.84530   0.09322   0.45078   0.00000  Uiso   1.00
H219   H     0.69246   0.07820   0.54227   0.00000  Uiso   1.00
H220   H     0.84216   0.93830   0.47193   0.00000  Uiso   1.00
H221   H     0.88859   0.13850   0.48780   0.00000  Uiso   1.00
O222   O     0.65986   0.08487   0.74391   0.00000  Uiso   1.00
O223   O     0.85626   0.90134   0.65163   0.00000  Uiso   1.00
O224   O     0.91717   0.16398   0.67245   0.00000  Uiso   1.00
N225   N     0.70513   0.07402   0.82975   0.00000  Uiso   1.00
N226   N     0.84508   0.94323   0.76399   0.00000  Uiso   1.00
N227   N     0.88850   0.13039   0.77882   0.00000  Uiso   1.00
N228   N     0.70152   0.07574   0.62671   0.00000  Uiso   1.00
N229   N     0.84147   0.94495   0.56095   0.00000  Uiso   1.00
N230   N     0.88488   0.13210   0.57578   0.00000  Uiso   1.00
C231   C     0.31321   0.54907   0.30873   0.00000  Uiso   1.00
C232   C     0.28254   0.55637   0.26490   0.00000  Uiso   1.00
C233   C     0.25877   0.56155   0.34116   0.00000  Uiso   1.00
C234   C     0.23257   0.56787   0.28306   0.00000  Uiso   1.00
C235   C     0.18530   0.57902   0.23474   0.00000  Uiso   1.00
C236   C     0.32111   0.52032   0.24678   0.00000  Uiso   1.00
C237   C     0.32977   0.49519   0.30780   0.00000  Uiso   1.00
C238   C     0.33604   0.47117   0.23443   0.00000  Uiso   1.00
C239   C     0.34866   0.42636   0.15797   0.00000  Uiso   1.00
C240   C     0.33307   0.57191   0.25087   0.00000  Uiso   1.00
C241   C     0.35179   0.59014   0.31532   0.00000  Uiso   1.00
C242   C     0.36814   0.60954   0.24540   0.00000  Uiso   1.00
C243   C     0.39933   0.64482   0.17529   0.00000  Uiso   1.00
C244   C     0.30896   0.55109   0.06995   0.00000  Uiso   1.00
C245   C     0.28024   0.55747   0.13521   0.00000  Uiso   1.00
C246   C     0.25407   0.56379   0.07698   0.00000  Uiso   1.00
C247   C     0.23026   0.56897   0.15313   0.00000  Uiso   1.00
C248   C     0.31880   0.52142   0.11709   0.00000  Uiso   1.00
C249   C     0.32506   0.49743   0.04362   0.00000  Uiso   1.00
C250   C     0.33373   0.47226   0.10451   0.00000  Uiso   1.00
C251   C     0.33076   0.57301   0.12118   0.00000  Uiso   1.00
C252   C     0.34709   0.59238   0.05115   0.00000  Uiso   1.00
C253   C     0.36583   0.61064   0.11548   0.00000  Uiso   1.00
H254   H     0.31501   0.54822   0.40970   0.00000  Uiso   1.00
H255   H     0.26056   0.56070   0.44152   0.00000  Uiso   1.00
H256   H     0.33155   0.49435   0.40816   0.00000  Uiso   1.00
H257   H     0.35357   0.58929   0.41568   0.00000  Uiso   1.00
H258   H     0.19918   0.57500   0.41961   0.00000  Uiso   1.00
H259   H     0.34887   0.43511   0.34926   0.00000  Uiso   1.00
H260   H     0.39530   0.63530   0.36513   0.00000  Uiso   1.00
H261   H     0.30717   0.55195   0.96898   0.00000  Uiso   1.00
H262   H     0.25229   0.56463   0.97662   0.00000  Uiso   1.00
H263   H     0.32328   0.49829   0.94326   0.00000  Uiso   1.00
H264   H     0.34530   0.59322   0.95078   0.00000  Uiso   1.00
H265   H     0.19246   0.57820   0.04227   0.00000  Uiso   1.00
H266   H     0.34216   0.43830   0.97193   0.00000  Uiso   1.00
H267   H     0.38859   0.63850   0.98780   0.00000  Uiso   1.00
O268   O     0.15986   0.58487   0.24391   0.00000  Uiso   1.00
O269   O     0.35626   0.40134   0.15163   0.00000  Uiso   1.00
O270   O     0.41717   0.66398   0.17245   0.00000  Uiso   1.00
N271   N     0.20513   0.57402   0.32975   0.00000  Uiso   1.00
N272   N     0.34508   0.44323   0.26399   0.00000  Uiso   1.00
N273   N     0.38850   0.63039   0.27882   0.00000  Uiso   1.00
N274   N     0.20152   0.57574   0.12671   0.00000  Uiso   1.00
N275   N     0.34147   0.44495   0.06095   0.00000  Uiso   1.00
N276   N     0.38488   0.63210   0.07578   0.00000  Uiso   1.00
C277   C     0.68679   0.45093   0.30873   0.00000  Uiso   1.00
C278   C     0.71746   0.44363   0.26490   0.00000  Uiso   1.00
C279   C     0.74123   0.43845   0.34116   0.00000  Uiso   1.00
C280   C     0.76743   0.43213   0.28306   0.00000  Uiso   1.00
C281   C     0.81470   0.42098   0.23474   0.00000  Uiso   1.00
C282   C     0.67889   0.47968   0.24678   0.00000  Uiso   1.00
C283   C     0.67023   0.50481   0.30780   0.00000  Uiso   1.00
C284   C     0.66396   0.52883   0.23443   0.00000  Uiso   1.00
C285   C     0.65134   0.57364   0.15797   0.00000  Uiso   1.00
C286   C     0.66693   0.42809   0.25087   0.00000  Uiso   1.00
C287   C     0.64821   0.40986   0.31532   0.00000  Uiso   1.00
C288   C     0.63186   0.39046   0.24540   0.00000  Uiso   1.00
C289   C     0.60067   0.35518   0.17529   0.00000  Uiso   1.00
C290   C     0.69104   0.44891   0.06995   0.00000  Uiso   1.00
C291   C     0.71976   0.44253   0.13521   0.00000  Uiso   1.00
C292   C     0.74593   0.43621   0.07698   0.00000  Uiso   1.00
C293   C     0.76974   0.43103   0.15313   0.00000  Uiso   1.00
C294   C     0.68120   0.47858   0.11709   0.00000  Uiso   1.00
C295   C     0.67494   0.50257   0.04362   0.00000  Uiso   1.00
C296   C     0.66627   0.52774   0.10451   0.00000  Uiso   1.00
C297   C     0.66924   0.42699   0.12118   0.00000  Uiso   1.00
C298   C     0.65291   0.40762   0.05115   0.00000  Uiso   1.00
C299   C     0.63417   0.38936   0.11548   0.00000  Uiso   1.00
H300   H     0.68499   0.45178   0.40970   0.00000  Uiso   1.00
H301   H     0.73944   0.43930   0.44152   0.00000  Uiso   1.00
H302   H     0.66845   0.50565   0.40816   0.00000  Uiso   1.00
H303   H     0.64643   0.41071   0.41568   0.00000  Uiso   1.00
H304   H     0.80082   0.42500   0.41961   0.00000  Uiso   1.00
H305   H     0.65113   0.56489   0.34926   0.00000  Uiso   1.00
H306   H     0.60470   0.36470   0.36513   0.00000  Uiso   1.00
H307   H     0.69283   0.44805   0.96898   0.00000  Uiso   1.00
H308   H     0.74771   0.43537   0.97662   0.00000  Uiso   1.00
H309   H     0.67672   0.50171   0.94326   0.00000  Uiso   1.00
H310   H     0.65470   0.40678   0.95078   0.00000  Uiso   1.00
H311   H     0.80754   0.42180   0.04227   0.00000  Uiso   1.00
H312   H     0.65784   0.56170   0.97193   0.00000  Uiso   1.00
H313   H     0.61141   0.36150   0.98780   0.00000  Uiso   1.00
O314   O     0.84014   0.41513   0.24391   0.00000  Uiso   1.00
O315   O     0.64374   0.59866   0.15163   0.00000  Uiso   1.00
O316   O     0.58283   0.33602   0.17245   0.00000  Uiso   1.00
N317   N     0.79487   0.42598   0.32975   0.00000  Uiso   1.00
N318   N     0.65492   0.55677   0.26399   0.00000  Uiso   1.00
N319   N     0.61150   0.36961   0.27882   0.00000  Uiso   1.00
N320   N     0.79848   0.42426   0.12671   0.00000  Uiso   1.00
N321   N     0.65853   0.55505   0.06095   0.00000  Uiso   1.00
N322   N     0.61512   0.36790   0.07578   0.00000  Uiso   1.00
C323   C     0.18679   0.95093   0.80873   0.00000  Uiso   1.00
C324   C     0.21746   0.94363   0.76490   0.00000  Uiso   1.00
C325   C     0.24123   0.93845   0.84116   0.00000  Uiso   1.00
C326   C     0.26743   0.93213   0.78306   0.00000  Uiso   1.00
C327   C     0.31470   0.92098   0.73474   0.00000  Uiso   1.00
C328   C     0.17889   0.97968   0.74678   0.00000  Uiso   1.00
C329   C     0.17023   0.00481   0.80780   0.00000  Uiso   1.00
C330   C     0.16396   0.02883   0.73443   0.00000  Uiso   1.00
C331   C     0.15134   0.07364   0.65797   0.00000  Uiso   1.00
C332   C     0.16693   0.92809   0.75087   0.00000  Uiso   1.00
C333   C     0.14821   0.90986   0.81532   0.00000  Uiso   1.00
C334   C     0.13186   0.89046   0.74540   0.00000  Uiso   1.00
C335   C     0.10067   0.85518   0.67529   0.00000  Uiso   1.00
C336   C     0.19104   0.94891   0.56995   0.00000  Uiso   1.00
C337   C     0.21976   0.94253   0.63521   0.00000  Uiso   1.00
C338   C     0.24593   0.93621   0.57698   0.00000  Uiso   1.00
C339   C     0.26974   0.93103   0.65313   0.00000  Uiso   1.00
C340   C     0.18120   0.97858   0.61709   0.00000  Uiso   1.00
C341   C     0.17494   0.00257   0.54362   0.00000  Uiso   1.00
C342   C     0.16627   0.02774   0.60451   0.00000  Uiso   1.00
C343   C     0.16924   0.92699   0.62118   0.00000  Uiso   1.00
C344   C     0.15291   0.90762   0.55115   0.00000  Uiso   1.00
C345   C     0.13417   0.88936   0.61548   0.00000  Uiso   1.00
H346   H     0.18499   0.95178   0.90970   0.00000  Uiso   1.00
H347   H     0.23944   0.93930   0.94152   0.00000  Uiso   1.00
H348   H     0.16845   0.00565   0.90816   0.00000  Uiso   1.00
H349   H     0.14643   0.91071   0.91568   0.00000  Uiso   1.00
H350   H     0.30082   0.92500   0.91961   0.00000  Uiso   1.00
H351   H     0.15113   0.06489   0.84926   0.00000  Uiso   1.00
H352   H     0.10470   0.86470   0.86513   0.00000  Uiso   1.00
H353   H     0.19283   0.94805   0.46898   0.00000  Uiso   1.00
H354   H     0.24771   0.93537   0.47662   0.00000  Uiso   1.00
H355   H     0.17672   0.00171   0.44326   0.00000  Uiso   1.00
H356   H     0.15470   0.90678   0.45078   0.00000  Uiso   1.00
H357   H     0.30754   0.92180   0.54227   0.00000  Uiso   1.00
H358   H     0.15784   0.06170   0.47193   0.00000  Uiso   1.00
H359   H     0.11141   0.86150   0.48780   0.00000  Uiso   1.00
O360   O     0.34014   0.91513   0.74391   0.00000  Uiso   1.00
O361   O     0.14374   0.09866   0.65163   0.00000  Uiso   1.00
O362   O     0.08283   0.83602   0.67245   0.00000  Uiso   1.00
N363   N     0.29487   0.92598   0.82975   0.00000  Uiso   1.00
N364   N     0.15492   0.05677   0.76399   0.00000  Uiso   1.00
N365   N     0.11150   0.86961   0.77882   0.00000  Uiso   1.00
N366   N     0.29848   0.92426   0.62671   0.00000  Uiso   1.00
N367   N     0.15853   0.05505   0.56095   0.00000  Uiso   1.00
N368   N     0.11512   0.86790   0.57578   0.00000  Uiso   1.00
C369   C     0.45093   0.31321   0.69127   0.00000  Uiso   1.00
C370   C     0.44363   0.28254   0.73510   0.00000  Uiso   1.00
C371   C     0.43845   0.25877   0.65884   0.00000  Uiso   1.00
C372   C     0.43213   0.23257   0.71694   0.00000  Uiso   1.00
C373   C     0.42098   0.18530   0.76526   0.00000  Uiso   1.00
C374   C     0.47968   0.32111   0.75322   0.00000  Uiso   1.00
C375   C     0.50481   0.32977   0.69220   0.00000  Uiso   1.00
C376   C     0.52883   0.33604   0.76557   0.00000  Uiso   1.00
C377   C     0.57364   0.34866   0.84203   0.00000  Uiso   1.00
C378   C     0.42809   0.33307   0.74913   0.00000  Uiso   1.00
C379   C     0.40986   0.35179   0.68468   0.00000  Uiso   1.00
C380   C     0.39046   0.36814   0.75460   0.00000  Uiso   1.00
C381   C     0.35518   0.39933   0.82471   0.00000  Uiso   1.00
C382   C     0.44891   0.30896   0.93005   0.00000  Uiso   1.00
C383   C     0.44253   0.28024   0.86479   0.00000  Uiso   1.00
C384   C     0.43621   0.25407   0.92302   0.00000  Uiso   1.00
C385   C     0.43103   0.23026   0.84687   0.00000  Uiso   1.00
C386   C     0.47858   0.31880   0.88291   0.00000  Uiso   1.00
C387   C     0.50257   0.32506   0.95638   0.00000  Uiso   1.00
C388   C     0.52774   0.33373   0.89549   0.00000  Uiso   1.00
C389   C     0.42699   0.33076   0.87882   0.00000  Uiso   1.00
C390   C     0.40762   0.34709   0.94885   0.00000  Uiso   1.00
C391   C     0.38936   0.36583   0.88452   0.00000  Uiso   1.00
H392   H     0.45178   0.31501   0.59030   0.00000  Uiso   1.00
H393   H     0.43930   0.26056   0.55848   0.00000  Uiso   1.00
H394   H     0.50565   0.33155   0.59184   0.00000  Uiso   1.00
H395   H     0.41071   0.35357   0.58432   0.00000  Uiso   1.00
H396   H     0.42500   0.19918   0.58039   0.00000  Uiso   1.00
H397   H     0.56489   0.34887   0.65074   0.00000  Uiso   1.00
H398   H     0.36470   0.39530   0.63487   0.00000  Uiso   1.00
H399   H     0.44805   0.30717   0.03102   0.00000  Uiso   1.00
H400   H     0.43537   0.25229   0.02338   0.00000  Uiso   1.00
H401   H     0.50171   0.32328   0.05674   0.00000  Uiso   1.00
H402   H     0.40678   0.34530   0.04922   0.00000  Uiso   1.00
H403   H     0.42180   0.19246   0.95773   0.00000  Uiso   1.00
H404   H     0.56170   0.34216   0.02807   0.00000  Uiso   1.00
H405   H     0.36150   0.38859   0.01220   0.00000  Uiso   1.00
O406   O     0.41513   0.15986   0.75609   0.00000  Uiso   1.00
O407   O     0.59866   0.35626   0.84837   0.00000  Uiso   1.00
O408   O     0.33602   0.41717   0.82755   0.00000  Uiso   1.00
N409   N     0.42598   0.20513   0.67025   0.00000  Uiso   1.00
N410   N     0.55677   0.34508   0.73601   0.00000  Uiso   1.00
N411   N     0.36961   0.38850   0.72118   0.00000  Uiso   1.00
N412   N     0.42426   0.20152   0.87329   0.00000  Uiso   1.00
N413   N     0.55505   0.34147   0.93905   0.00000  Uiso   1.00
N414   N     0.36790   0.38488   0.92422   0.00000  Uiso   1.00
C415   C     0.95093   0.81321   0.19127   0.00000  Uiso   1.00
C416   C     0.94363   0.78254   0.23510   0.00000  Uiso   1.00
C417   C     0.93845   0.75877   0.15884   0.00000  Uiso   1.00
C418   C     0.93213   0.73257   0.21694   0.00000  Uiso   1.00
C419   C     0.92098   0.68530   0.26526   0.00000  Uiso   1.00
C420   C     0.97968   0.82111   0.25322   0.00000  Uiso   1.00
C421   C     0.00481   0.82977   0.19220   0.00000  Uiso   1.00
C422   C     0.02883   0.83604   0.26557   0.00000  Uiso   1.00
C423   C     0.07364   0.84866   0.34203   0.00000  Uiso   1.00
C424   C     0.92809   0.83307   0.24913   0.00000  Uiso   1.00
C425   C     0.90986   0.85179   0.18468   0.00000  Uiso   1.00
C426   C     0.89046   0.86814   0.25460   0.00000  Uiso   1.00
C427   C     0.85518   0.89933   0.32471   0.00000  Uiso   1.00
C428   C     0.94891   0.80896   0.43005   0.00000  Uiso   1.00
C429   C     0.94253   0.78024   0.36479   0.00000  Uiso   1.00
C430   C     0.93621   0.75407   0.42302   0.00000  Uiso   1.00
C431   C     0.93103   0.73026   0.34687   0.00000  Uiso   1.00
C432   C     0.97858   0.81880   0.38291   0.00000  Uiso   1.00
C433   C     0.00257   0.82506   0.45638   0.00000  Uiso   1.00
C434   C     0.02774   0.83373   0.39549   0.00000  Uiso   1.00
C435   C     0.92699   0.83076   0.37882   0.00000  Uiso   1.00
C436   C     0.90762   0.84709   0.44885   0.00000  Uiso   1.00
C437   C     0.88936   0.86583   0.38452   0.00000  Uiso   1.00
H438   H     0.95178   0.81501   0.09030   0.00000  Uiso   1.00
H439   H     0.93930   0.76056   0.05848   0.00000  Uiso   1.00
H440   H     0.00565   0.83155   0.09184   0.00000  Uiso   1.00
H441   H     0.91071   0.85357   0.08432   0.00000  Uiso   1.00
H442   H     0.92500   0.69918   0.08039   0.00000  Uiso   1.00
H443   H     0.06489   0.84887   0.15074   0.00000  Uiso   1.00
H444   H     0.86470   0.89530   0.13487   0.00000  Uiso   1.00
H445   H     0.94805   0.80717   0.53102   0.00000  Uiso   1.00
H446   H     0.93537   0.75229   0.52338   0.00000  Uiso   1.00
H447   H     0.00171   0.82328   0.55674   0.00000  Uiso   1.00
H448   H     0.90678   0.84530   0.54922   0.00000  Uiso   1.00
H449   H     0.92180   0.69246   0.45773   0.00000  Uiso   1.00
H450   H     0.06170   0.84216   0.52807   0.00000  Uiso   1.00
H451   H     0.86150   0.88859   0.51220   0.00000  Uiso   1.00
O452   O     0.91513   0.65986   0.25609   0.00000  Uiso   1.00
O453   O     0.09866   0.85626   0.34837   0.00000  Uiso   1.00
O454   O     0.83602   0.91717   0.32755   0.00000  Uiso   1.00
N455   N     0.92598   0.70513   0.17025   0.00000  Uiso   1.00
N456   N     0.05677   0.84508   0.23601   0.00000  Uiso   1.00
N457   N     0.86961   0.88850   0.22118   0.00000  Uiso   1.00
N458   N     0.92426   0.70152   0.37329   0.00000  Uiso   1.00
N459   N     0.05505   0.84147   0.43905   0.00000  Uiso   1.00
N460   N     0.86790   0.88488   0.42422   0.00000  Uiso   1.00
C461   C     0.04907   0.18679   0.19127   0.00000  Uiso   1.00
C462   C     0.05637   0.21746   0.23510   0.00000  Uiso   1.00
C463   C     0.06155   0.24123   0.15884   0.00000  Uiso   1.00
C464   C     0.06787   0.26743   0.21694   0.00000  Uiso   1.00
C465   C     0.07902   0.31470   0.26526   0.00000  Uiso   1.00
C466   C     0.02032   0.17889   0.25322   0.00000  Uiso   1.00
C467   C     0.99519   0.17023   0.19220   0.00000  Uiso   1.00
C468   C     0.97117   0.16396   0.26557   0.00000  Uiso   1.00
C469   C     0.92636   0.15134   0.34203   0.00000  Uiso   1.00
C470   C     0.07191   0.16693   0.24913   0.00000  Uiso   1.00
C471   C     0.09014   0.14821   0.18468   0.00000  Uiso   1.00
C472   C     0.10954   0.13186   0.25460   0.00000  Uiso   1.00
C473   C     0.14482   0.10067   0.32471   0.00000  Uiso   1.00
C474   C     0.05109   0.19104   0.43005   0.00000  Uiso   1.00
C475   C     0.05747   0.21976   0.36479   0.00000  Uiso   1.00
C476   C     0.06379   0.24593   0.42302   0.00000  Uiso   1.00
C477   C     0.06897   0.26974   0.34687   0.00000  Uiso   1.00
C478   C     0.02142   0.18120   0.38291   0.00000  Uiso   1.00
C479   C     0.99743   0.17494   0.45638   0.00000  Uiso   1.00
C480   C     0.97226   0.16627   0.39549   0.00000  Uiso   1.00
C481   C     0.07301   0.16924   0.37882   0.00000  Uiso   1.00
C482   C     0.09238   0.15291   0.44885   0.00000  Uiso   1.00
C483   C     0.11064   0.13417   0.38452   0.00000  Uiso   1.00
H484   H     0.04822   0.18499   0.09030   0.00000  Uiso   1.00
H485   H     0.06070   0.23944   0.05848   0.00000  Uiso   1.00
H486   H     0.99435   0.16845   0.09184   0.00000  Uiso   1.00
H487   H     0.08929   0.14643   0.08432   0.00000  Uiso   1.00
H488   H     0.07500   0.30082   0.08039   0.00000  Uiso   1.00
H489   H     0.93511   0.15113   0.15074   0.00000  Uiso   1.00
H490   H     0.13530   0.10470   0.13487   0.00000  Uiso   1.00
H491   H     0.05195   0.19283   0.53102   0.00000  Uiso   1.00
H492   H     0.06463   0.24771   0.52338   0.00000  Uiso   1.00
H493   H     0.99829   0.17672   0.55674   0.00000  Uiso   1.00
H494   H     0.09322   0.15470   0.54922   0.00000  Uiso   1.00
H495   H     0.07820   0.30754   0.45773   0.00000  Uiso   1.00
H496   H     0.93830   0.15784   0.52807   0.00000  Uiso   1.00
H497   H     0.13850   0.11141   0.51220   0.00000  Uiso   1.00
O498   O     0.08487   0.34014   0.25609   0.00000  Uiso   1.00
O499   O     0.90134   0.14374   0.34837   0.00000  Uiso   1.00
O500   O     0.16398   0.08283   0.32755   0.00000  Uiso   1.00
N501   N     0.07402   0.29487   0.17025   0.00000  Uiso   1.00
N502   N     0.94323   0.15492   0.23601   0.00000  Uiso   1.00
N503   N     0.13039   0.11150   0.22118   0.00000  Uiso   1.00
N504   N     0.07574   0.29848   0.37329   0.00000  Uiso   1.00
N505   N     0.94495   0.15853   0.43905   0.00000  Uiso   1.00
N506   N     0.13210   0.11512   0.42422   0.00000  Uiso   1.00
C507   C     0.54907   0.68679   0.69127   0.00000  Uiso   1.00
C508   C     0.55637   0.71746   0.73510   0.00000  Uiso   1.00
C509   C     0.56155   0.74123   0.65884   0.00000  Uiso   1.00
C510   C     0.56787   0.76743   0.71694   0.00000  Uiso   1.00
C511   C     0.57902   0.81470   0.76526   0.00000  Uiso   1.00
C512   C     0.52032   0.67889   0.75322   0.00000  Uiso   1.00
C513   C     0.49519   0.67023   0.69220   0.00000  Uiso   1.00
C514   C     0.47117   0.66396   0.76557   0.00000  Uiso   1.00
C515   C     0.42636   0.65134   0.84203   0.00000  Uiso   1.00
C516   C     0.57191   0.66693   0.74913   0.00000  Uiso   1.00
C517   C     0.59014   0.64821   0.68468   0.00000  Uiso   1.00
C518   C     0.60954   0.63186   0.75460   0.00000  Uiso   1.00
C519   C     0.64482   0.60067   0.82471   0.00000  Uiso   1.00
C520   C     0.55109   0.69104   0.93005   0.00000  Uiso   1.00
C521   C     0.55747   0.71976   0.86479   0.00000  Uiso   1.00
C522   C     0.56379   0.74593   0.92302   0.00000  Uiso   1.00
C523   C     0.56897   0.76974   0.84687   0.00000  Uiso   1.00
C524   C     0.52142   0.68120   0.88291   0.00000  Uiso   1.00
C525   C     0.49743   0.67494   0.95638   0.00000  Uiso   1.00
C526   C     0.47226   0.66627   0.89549   0.00000  Uiso   1.00
C527   C     0.57301   0.66924   0.87882   0.00000  Uiso   1.00
C528   C     0.59238   0.65291   0.94885   0.00000  Uiso   1.00
C529   C     0.61064   0.63417   0.88452   0.00000  Uiso   1.00
H530   H     0.54822   0.68499   0.59030   0.00000  Uiso   1.00
H531   H     0.56070   0.73944   0.55848   0.00000  Uiso   1.00
H532   H     0.49435   0.66845   0.59184   0.00000  Uiso   1.00
H533   H     0.58929   0.64643   0.58432   0.00000  Uiso   1.00
H534   H     0.57500   0.80082   0.58039   0.00000  Uiso   1.00
H535   H     0.43511   0.65113   0.65074   0.00000  Uiso   1.00
H536   H     0.63530   0.60470   0.63487   0.00000  Uiso   1.00
H537   H     0.55195   0.69283   0.03102   0.00000  Uiso   1.00
H538   H     0.56463   0.74771   0.02338   0.00000  Uiso   1.00
H539   H     0.49829   0.67672   0.05674   0.00000  Uiso   1.00
H540   H     0.59322   0.65470   0.04922   0.00000  Uiso   1.00
H541   H     0.57820   0.80754   0.95773   0.00000  Uiso   1.00
H542   H     0.43830   0.65784   0.02807   0.00000  Uiso   1.00
H543   H     0.63850   0.61141   0.01220   0.00000  Uiso   1.00
O544   O     0.58487   0.84014   0.75609   0.00000  Uiso   1.00
O545   O     0.40134   0.64374   0.84837   0.00000  Uiso   1.00
O546   O     0.66398   0.58283   0.82755   0.00000  Uiso   1.00
N547   N     0.57402   0.79487   0.67025   0.00000  Uiso   1.00
N548   N     0.44323   0.65492   0.73601   0.00000  Uiso   1.00
N549   N     0.63039   0.61150   0.72118   0.00000  Uiso   1.00
N550   N     0.57574   0.79848   0.87329   0.00000  Uiso   1.00
N551   N     0.44495   0.65853   0.93905   0.00000  Uiso   1.00
N552   N     0.63210   0.61512   0.92422   0.00000  Uiso   1.00
C553   C     0.18679   0.45093   0.44127   0.00000  Uiso   1.00
C554   C     0.21746   0.44363   0.48510   0.00000  Uiso   1.00
C555   C     0.24123   0.43845   0.40884   0.00000  Uiso   1.00
C556   C     0.26743   0.43213   0.46694   0.00000  Uiso   1.00
C557   C     0.31470   0.42098   0.51526   0.00000  Uiso   1.00
C558   C     0.17889   0.47968   0.50322   0.00000  Uiso   1.00
C559   C     0.17023   0.50481   0.44220   0.00000  Uiso   1.00
C560   C     0.16396   0.52883   0.51557   0.00000  Uiso   1.00
C561   C     0.15134   0.57364   0.59203   0.00000  Uiso   1.00
C562   C     0.16693   0.42809   0.49913   0.00000  Uiso   1.00
C563   C     0.14821   0.40986   0.43468   0.00000  Uiso   1.00
C564   C     0.13186   0.39046   0.50460   0.00000  Uiso   1.00
C565   C     0.10067   0.35518   0.57471   0.00000  Uiso   1.00
C566   C     0.19104   0.44891   0.68005   0.00000  Uiso   1.00
C567   C     0.21976   0.44253   0.61479   0.00000  Uiso   1.00
C568   C     0.24593   0.43621   0.67302   0.00000  Uiso   1.00
C569   C     0.26974   0.43103   0.59687   0.00000  Uiso   1.00
C570   C     0.18120   0.47858   0.63291   0.00000  Uiso   1.00
C571   C     0.17494   0.50257   0.70638   0.00000  Uiso   1.00
C572   C     0.16627   0.52774   0.64549   0.00000  Uiso   1.00
C573   C     0.16924   0.42699   0.62882   0.00000  Uiso   1.00
C574   C     0.15291   0.40762   0.69885   0.00000  Uiso   1.00
C575   C     0.13417   0.38936   0.63452   0.00000  Uiso   1.00
H576   H     0.18499   0.45178   0.34030   0.00000  Uiso   1.00
H577   H     0.23944   0.43930   0.30848   0.00000  Uiso   1.00
H578   H     0.16845   0.50565   0.34184   0.00000  Uiso   1.00
H579   H     0.14643   0.41071   0.33432   0.00000  Uiso   1.00
H580   H     0.30082   0.42500   0.33039   0.00000  Uiso   1.00
H581   H     0.15113   0.56489   0.40074   0.00000  Uiso   1.00
H582   H     0.10470   0.36470   0.38487   0.00000  Uiso   1.00
H583   H     0.19283   0.44805   0.78102   0.00000  Uiso   1.00
H584   H     0.24771   0.43537   0.77338   0.00000  Uiso   1.00
H585   H     0.17672   0.50171   0.80674   0.00000  Uiso   1.00
H586   H     0.15470   0.40678   0.79922   0.00000  Uiso   1.00
H587   H     0.30754   0.42180   0.70773   0.00000  Uiso   1.00
H588   H     0.15784   0.56170   0.77807   0.00000  Uiso   1.00
H589   H     0.11141   0.36150   0.76220   0.00000  Uiso   1.00
O590   O     0.34014   0.41513   0.50609   0.00000  Uiso   1.00
O591   O     0.14374   0.59866   0.59837   0.00000  Uiso   1.00
O592   O     0.08283   0.33602   0.57755   0.00000  Uiso   1.00
N593   N     0.29487   0.42598   0.42025   0.00000  Uiso   1.00
N594   N     0.15492   0.55677   0.48601   0.00000  Uiso   1.00
N595   N     0.11150   0.36961   0.47118   0.00000  Uiso   1.00
N596   N     0.29848   0.42426   0.62329   0.00000  Uiso   1.00
N597   N     0.15853   0.55505   0.68905   0.00000  Uiso   1.00
N598   N     0.11512   0.36790   0.67422   0.00000  Uiso   1.00
C599   C     0.68679   0.95093   0.94127   0.00000  Uiso   1.00
C600   C     0.71746   0.94363   0.98510   0.00000  Uiso   1.00
C601   C     0.74123   0.93845   0.90884   0.00000  Uiso   1.00
C602   C     0.76743   0.93213   0.96694   0.00000  Uiso   1.00
C603   C     0.81470   0.92098   0.01526   0.00000  Uiso   1.00
C604   C     0.67889   0.97968   0.00322   0.00000  Uiso   1.00
C605   C     0.67023   0.00481   0.94220   0.00000  Uiso   1.00
C606   C     0.66396   0.02883   0.01557   0.00000  Uiso   1.00
C607   C     0.65134   0.07364   0.09203   0.00000  Uiso   1.00
C608   C     0.66693   0.92809   0.99913   0.00000  Uiso   1.00
C609   C     0.64821   0.90986   0.93468   0.00000  Uiso   1.00
C610   C     0.63186   0.89046   0.00460   0.00000  Uiso   1.00
C611   C     0.60067   0.85518   0.07471   0.00000  Uiso   1.00
C612   C     0.69104   0.94891   0.18005   0.00000  Uiso   1.00
C613   C     0.71976   0.94253   0.11479   0.00000  Uiso   1.00
C614   C     0.74593   0.93621   0.17302   0.00000  Uiso   1.00
C615   C     0.76974   0.93103   0.09687   0.00000  Uiso   1.00
C616   C     0.68120   0.97858   0.13291   0.00000  Uiso   1.00
C617   C     0.67494   0.00257   0.20638   0.00000  Uiso   1.00
C618   C     0.66627   0.02774   0.14549   0.00000  Uiso   1.00
C619   C     0.66924   0.92699   0.12882   0.00000  Uiso   1.00
C620   C     0.65291   0.90762   0.19885   0.00000  Uiso   1.00
C621   C     0.63417   0.88936   0.13452   0.00000  Uiso   1.00
H622   H     0.68499   0.95178   0.84030   0.00000  Uiso   1.00
H623   H     0.73944   0.93930   0.80848   0.00000  Uiso   1.00
H624   H     0.66845   0.00565   0.84184   0.00000  Uiso   1.00
H625   H     0.64643   0.91071   0.83432   0.00000  Uiso   1.00
H626   H     0.80082   0.92500   0.83039   0.00000  Uiso   1.00
H627   H     0.65113   0.06489   0.90074   0.00000  Uiso   1.00
H628   H     0.60470   0.86470   0.88487   0.00000  Uiso   1.00
H629   H     0.69283   0.94805   0.28102   0.00000  Uiso   1.00
H630   H     0.74771   0.93537   0.27338   0.00000  Uiso   1.00
H631   H     0.67672   0.00171   0.30674   0.00000  Uiso   1.00
H632   H     0.65470   0.90678   0.29922   0.00000  Uiso   1.00
H633   H     0.80754   0.92180   0.20773   0.00000  Uiso   1.00
H634   H     0.65784   0.06170   0.27807   0.00000  Uiso   1.00
H635   H     0.61141   0.86150   0.26220   0.00000  Uiso   1.00
O636   O     0.84014   0.91513   0.00609   0.00000  Uiso   1.00
O637   O     0.64374   0.09866   0.09837   0.00000  Uiso   1.00
O638   O     0.58283   0.83602   0.07755   0.00000  Uiso   1.00
N639   N     0.79487   0.92598   0.92025   0.00000  Uiso   1.00
N640   N     0.65492   0.05677   0.98601   0.00000  Uiso   1.00
N641   N     0.61150   0.86961   0.97118   0.00000  Uiso   1.00
N642   N     0.79848   0.92426   0.12329   0.00000  Uiso   1.00
N643   N     0.65853   0.05505   0.18905   0.00000  Uiso   1.00
N644   N     0.61512   0.86790   0.17422   0.00000  Uiso   1.00
C645   C     0.31321   0.04907   0.94127   0.00000  Uiso   1.00
C646   C     0.28254   0.05637   0.98510   0.00000  Uiso   1.00
C647   C     0.25877   0.06155   0.90884   0.00000  Uiso   1.00
C648   C     0.23257   0.06787   0.96694   0.00000  Uiso   1.00
C649   C     0.18530   0.07902   0.01526   0.00000  Uiso   1.00
C650   C     0.32111   0.02032   0.00322   0.00000  Uiso   1.00
C651   C     0.32977   0.99519   0.94220   0.00000  Uiso   1.00
C652   C     0.33604   0.97117   0.01557   0.00000  Uiso   1.00
C653   C     0.34866   0.92636   0.09203   0.00000  Uiso   1.00
C654   C     0.33307   0.07191   0.99913   0.00000  Uiso   1.00
C655   C     0.35179   0.09014   0.93468   0.00000  Uiso   1.00
C656   C     0.36814   0.10954   0.00460   0.00000  Uiso   1.00
C657   C     0.39933   0.14482   0.07471   0.00000  Uiso   1.00
C658   C     0.30896   0.05109   0.18005   0.00000  Uiso   1.00
C659   C     0.28024   0.05747   0.11479   0.00000  Uiso   1.00
C660   C     0.25407   0.06379   0.17302   0.00000  Uiso   1.00
C661   C     0.23026   0.06897   0.09687   0.00000  Uiso   1.00
C662   C     0.31880   0.02142   0.13291   0.00000  Uiso   1.00
C663   C     0.32506   0.99743   0.20638   0.00000  Uiso   1.00
C664   C     0.33373   0.97226   0.14549   0.00000  Uiso   1.00
C665   C     0.33076   0.07301   0.12882   0.00000  Uiso   1.00
C666   C     0.34709   0.09238   0.19885   0.00000  Uiso   1.00
C667   C     0.36583   0.11064   0.13452   0.00000  Uiso   1.00
H668   H     0.31501   0.04822   0.84030   0.00000  Uiso   1.00
H669   H     0.26056   0.06070   0.80848   0.00000  Uiso   1.00
H670   H     0.33155   0.99435   0.84184   0.00000  Uiso   1.00
H671   H     0.35357   0.08929   0.83432   0.00000  Uiso   1.00
H672   H     0.19918   0.07500   0.83039   0.00000  Uiso   1.00
H673   H     0.34887   0.93511   0.90074   0.00000  Uiso   1.00
H674   H     0.39530   0.13530   0.88487   0.00000  Uiso   1.00
H675   H     0.30717   0.05195   0.28102   0.00000  Uiso   1.00
H676   H     0.25229   0.06463   0.27338   0.00000  Uiso   1.00
H677   H     0.32328   0.99829   0.30674   0.00000  Uiso   1.00
H678   H     0.34530   0.09322   0.29922   0.00000  Uiso   1.00
H679   H     0.19246   0.07820   0.20773   0.00000  Uiso   1.00
H680   H     0.34216   0.93830   0.27807   0.00000  Uiso   1.00
H681   H     0.38859   0.13850   0.26220   0.00000  Uiso   1.00
O682   O     0.15986   0.08487   0.00609   0.00000  Uiso   1.00
O683   O     0.35626   0.90134   0.09837   0.00000  Uiso   1.00
O684   O     0.41717   0.16398   0.07755   0.00000  Uiso   1.00
N685   N     0.20513   0.07402   0.92025   0.00000  Uiso   1.00
N686   N     0.34508   0.94323   0.98601   0.00000  Uiso   1.00
N687   N     0.38850   0.13039   0.97118   0.00000  Uiso   1.00
N688   N     0.20152   0.07574   0.12329   0.00000  Uiso   1.00
N689   N     0.34147   0.94495   0.18905   0.00000  Uiso   1.00
N690   N     0.38488   0.13210   0.17422   0.00000  Uiso   1.00
C691   C     0.81321   0.54907   0.44127   0.00000  Uiso   1.00
C692   C     0.78254   0.55637   0.48510   0.00000  Uiso   1.00
C693   C     0.75877   0.56155   0.40884   0.00000  Uiso   1.00
C694   C     0.73257   0.56787   0.46694   0.00000  Uiso   1.00
C695   C     0.68530   0.57902   0.51526   0.00000  Uiso   1.00
C696   C     0.82111   0.52032   0.50322   0.00000  Uiso   1.00
C697   C     0.82977   0.49519   0.44220   0.00000  Uiso   1.00
C698   C     0.83604   0.47117   0.51557   0.00000  Uiso   1.00
C699   C     0.84866   0.42636   0.59203   0.00000  Uiso   1.00
C700   C     0.83307   0.57191   0.49913   0.00000  Uiso   1.00
C701   C     0.85179   0.59014   0.43468   0.00000  Uiso   1.00
C702   C     0.86814   0.60954   0.50460   0.00000  Uiso   1.00
C703   C     0.89933   0.64482   0.57471   0.00000  Uiso   1.00
C704   C     0.80896   0.55109   0.68005   0.00000  Uiso   1.00
C705   C     0.78024   0.55747   0.61479   0.00000  Uiso   1.00
C706   C     0.75407   0.56379   0.67302   0.00000  Uiso   1.00
C707   C     0.73026   0.56897   0.59687   0.00000  Uiso   1.00
C708   C     0.81880   0.52142   0.63291   0.00000  Uiso   1.00
C709   C     0.82506   0.49743   0.70638   0.00000  Uiso   1.00
C710   C     0.83373   0.47226   0.64549   0.00000  Uiso   1.00
C711   C     0.83076   0.57301   0.62882   0.00000  Uiso   1.00
C712   C     0.84709   0.59238   0.69885   0.00000  Uiso   1.00
C713   C     0.86583   0.61064   0.63452   0.00000  Uiso   1.00
H714   H     0.81501   0.54822   0.34030   0.00000  Uiso   1.00
H715   H     0.76056   0.56070   0.30848   0.00000  Uiso   1.00
H716   H     0.83155   0.49435   0.34184   0.00000  Uiso   1.00
H717   H     0.85357   0.58929   0.33432   0.00000  Uiso   1.00
H718   H     0.69918   0.57500   0.33039   0.00000  Uiso   1.00
H719   H     0.84887   0.43511   0.40074   0.00000  Uiso   1.00
H720   H     0.89530   0.63530   0.38487   0.00000  Uiso   1.00
H721   H     0.80717   0.55195   0.78102   0.00000  Uiso   1.00
H722   H     0.75229   0.56463   0.77338   0.00000  Uiso   1.00
H723   H     0.82328   0.49829   0.80674   0.00000  Uiso   1.00
H724   H     0.84530   0.59322   0.79922   0.00000  Uiso   1.00
H725   H     0.69246   0.57820   0.70773   0.00000  Uiso   1.00
H726   H     0.84216   0.43830   0.77807   0.00000  Uiso   1.00
H727   H     0.88859   0.63850   0.76220   0.00000  Uiso   1.00
O728   O     0.65986   0.58487   0.50609   0.00000  Uiso   1.00
O729   O     0.85626   0.40134   0.59837   0.00000  Uiso   1.00
O730   O     0.91717   0.66398   0.57755   0.00000  Uiso   1.00
N731   N     0.70513   0.57402   0.42025   0.00000  Uiso   1.00
N732   N     0.84508   0.44323   0.48601   0.00000  Uiso   1.00
N733   N     0.88850   0.63039   0.47118   0.00000  Uiso   1.00
N734   N     0.70152   0.57574   0.62329   0.00000  Uiso   1.00
N735   N     0.84147   0.44495   0.68905   0.00000  Uiso   1.00
N736   N     0.88488   0.63210   0.67422   0.00000  Uiso   1.00
