data_job_00894
_audit_creation_date              2018-12-19
_audit_creation_method            'Materials Studio'
_symmetry_space_group_name_H-M    'P1'
_symmetry_Int_Tables_number       1
_symmetry_cell_setting            triclinic
loop_
_symmetry_equiv_pos_as_xyz
  x,y,z
_cell_length_a                    25.7684
_cell_length_b                    25.7684
_cell_length_c                    19.8528
_cell_angle_alpha                 90.0000
_cell_angle_beta                  90.0000
_cell_angle_gamma                 90.0000
loop_
_atom_site_label
_atom_site_type_symbol
_atom_site_fract_x
_atom_site_fract_y
_atom_site_fract_z
_atom_site_U_iso_or_equiv
_atom_site_adp_type
_atom_site_occupancy
C1     C     0.35527   0.25398   0.46556   0.00000  Uiso   1.00
C2     C     0.40976   0.25352   0.43562   0.00000  Uiso   1.00
C3     C     0.42976   0.29004   0.39127   0.00000  Uiso   1.00
C4     C     0.48047   0.28273   0.36964   0.00000  Uiso   1.00
C5     C     0.56058   0.28844   0.31978   0.00000  Uiso   1.00
C6     C     0.33102   0.20193   0.44698   0.00000  Uiso   1.00
C7     C     0.28481   0.19506   0.41220   0.00000  Uiso   1.00
C8     C     0.26924   0.14432   0.40015   0.00000  Uiso   1.00
C9     C     0.22708   0.06994   0.36797   0.00000  Uiso   1.00
C10    C     0.36237   0.25310   0.54181   0.00000  Uiso   1.00
C11    C     0.34251   0.28925   0.58676   0.00000  Uiso   1.00
C12    C     0.35332   0.28158   0.65455   0.00000  Uiso   1.00
C13    C     0.35983   0.28664   0.76960   0.00000  Uiso   1.00
C14    C     0.40977   0.17608   0.50602   0.00000  Uiso   1.00
C15    C     0.43937   0.21121   0.45759   0.00000  Uiso   1.00
C16    C     0.49006   0.20385   0.43603   0.00000  Uiso   1.00
C17    C     0.51013   0.24034   0.39166   0.00000  Uiso   1.00
C18    C     0.36062   0.15962   0.46896   0.00000  Uiso   1.00
C19    C     0.34512   0.10888   0.45696   0.00000  Uiso   1.00
C20    C     0.29890   0.10193   0.42216   0.00000  Uiso   1.00
C21    C     0.39198   0.21079   0.56378   0.00000  Uiso   1.00
C22    C     0.40282   0.20306   0.63152   0.00000  Uiso   1.00
C23    C     0.38298   0.23919   0.67656   0.00000  Uiso   1.00
H24    H     0.33221   0.28692   0.44845   0.00000  Uiso   1.00
H25    H     0.40683   0.32277   0.37427   0.00000  Uiso   1.00
H26    H     0.26191   0.22782   0.39520   0.00000  Uiso   1.00
H27    H     0.31960   0.32199   0.56973   0.00000  Uiso   1.00
H28    H     0.50261   0.34385   0.30170   0.00000  Uiso   1.00
H29    H     0.19701   0.14363   0.34586   0.00000  Uiso   1.00
H30    H     0.31867   0.34221   0.71389   0.00000  Uiso   1.00
H31    H     0.43282   0.14313   0.52313   0.00000  Uiso   1.00
H32    H     0.51297   0.17110   0.45305   0.00000  Uiso   1.00
H33    H     0.36804   0.07614   0.47398   0.00000  Uiso   1.00
H34    H     0.42573   0.17031   0.64851   0.00000  Uiso   1.00
H35    H     0.58875   0.22075   0.36563   0.00000  Uiso   1.00
H36    H     0.28315   0.02052   0.40979   0.00000  Uiso   1.00
H37    H     0.40481   0.21910   0.77782   0.00000  Uiso   1.00
O38    O     0.59658   0.30328   0.28619   0.00000  Uiso   1.00
O39    O     0.19564   0.04060   0.34414   0.00000  Uiso   1.00
O40    O     0.35525   0.30113   0.82699   0.00000  Uiso   1.00
N41    N     0.51189   0.31105   0.32637   0.00000  Uiso   1.00
N42    N     0.22618   0.12385   0.36765   0.00000  Uiso   1.00
N43    N     0.33990   0.30950   0.71173   0.00000  Uiso   1.00
N44    N     0.55824   0.24481   0.36077   0.00000  Uiso   1.00
N45    N     0.27253   0.05761   0.40205   0.00000  Uiso   1.00
N46    N     0.38625   0.24326   0.74613   0.00000  Uiso   1.00
C47    C     0.85527   0.75398   0.96556   0.00000  Uiso   1.00
C48    C     0.90976   0.75352   0.93562   0.00000  Uiso   1.00
C49    C     0.92976   0.79004   0.89127   0.00000  Uiso   1.00
C50    C     0.98047   0.78273   0.86964   0.00000  Uiso   1.00
C51    C     0.06058   0.78844   0.81978   0.00000  Uiso   1.00
C52    C     0.83102   0.70193   0.94698   0.00000  Uiso   1.00
C53    C     0.78481   0.69506   0.91220   0.00000  Uiso   1.00
C54    C     0.76924   0.64432   0.90015   0.00000  Uiso   1.00
C55    C     0.72708   0.56994   0.86797   0.00000  Uiso   1.00
C56    C     0.86237   0.75310   0.04181   0.00000  Uiso   1.00
C57    C     0.84251   0.78925   0.08676   0.00000  Uiso   1.00
C58    C     0.85332   0.78158   0.15455   0.00000  Uiso   1.00
C59    C     0.85983   0.78664   0.26960   0.00000  Uiso   1.00
C60    C     0.90977   0.67608   0.00602   0.00000  Uiso   1.00
C61    C     0.93937   0.71121   0.95759   0.00000  Uiso   1.00
C62    C     0.99006   0.70385   0.93603   0.00000  Uiso   1.00
C63    C     0.01013   0.74034   0.89166   0.00000  Uiso   1.00
C64    C     0.86062   0.65962   0.96896   0.00000  Uiso   1.00
C65    C     0.84512   0.60888   0.95696   0.00000  Uiso   1.00
C66    C     0.79890   0.60193   0.92216   0.00000  Uiso   1.00
C67    C     0.89198   0.71079   0.06378   0.00000  Uiso   1.00
C68    C     0.90282   0.70306   0.13152   0.00000  Uiso   1.00
C69    C     0.88298   0.73919   0.17656   0.00000  Uiso   1.00
H70    H     0.83221   0.78692   0.94845   0.00000  Uiso   1.00
H71    H     0.90683   0.82277   0.87427   0.00000  Uiso   1.00
H72    H     0.76191   0.72782   0.89520   0.00000  Uiso   1.00
H73    H     0.81960   0.82199   0.06973   0.00000  Uiso   1.00
H74    H     0.00261   0.84385   0.80170   0.00000  Uiso   1.00
H75    H     0.69701   0.64363   0.84586   0.00000  Uiso   1.00
H76    H     0.81867   0.84221   0.21389   0.00000  Uiso   1.00
H77    H     0.93282   0.64313   0.02313   0.00000  Uiso   1.00
H78    H     0.01297   0.67110   0.95305   0.00000  Uiso   1.00
H79    H     0.86804   0.57614   0.97398   0.00000  Uiso   1.00
H80    H     0.92573   0.67031   0.14851   0.00000  Uiso   1.00
H81    H     0.08875   0.72075   0.86563   0.00000  Uiso   1.00
H82    H     0.78315   0.52052   0.90979   0.00000  Uiso   1.00
H83    H     0.90481   0.71910   0.27782   0.00000  Uiso   1.00
O84    O     0.09658   0.80328   0.78619   0.00000  Uiso   1.00
O85    O     0.69564   0.54060   0.84414   0.00000  Uiso   1.00
O86    O     0.85525   0.80113   0.32699   0.00000  Uiso   1.00
N87    N     0.01189   0.81105   0.82637   0.00000  Uiso   1.00
N88    N     0.72618   0.62385   0.86765   0.00000  Uiso   1.00
N89    N     0.83990   0.80950   0.21173   0.00000  Uiso   1.00
N90    N     0.05824   0.74481   0.86077   0.00000  Uiso   1.00
N91    N     0.77253   0.55761   0.90205   0.00000  Uiso   1.00
N92    N     0.88625   0.74326   0.24613   0.00000  Uiso   1.00
C93    C     0.14473   0.24602   0.96556   0.00000  Uiso   1.00
C94    C     0.09024   0.24648   0.93562   0.00000  Uiso   1.00
C95    C     0.07024   0.20996   0.89127   0.00000  Uiso   1.00
C96    C     0.01953   0.21727   0.86964   0.00000  Uiso   1.00
C97    C     0.93942   0.21156   0.81978   0.00000  Uiso   1.00
C98    C     0.16898   0.29807   0.94698   0.00000  Uiso   1.00
C99    C     0.21519   0.30494   0.91220   0.00000  Uiso   1.00
C100   C     0.23076   0.35568   0.90015   0.00000  Uiso   1.00
C101   C     0.27292   0.43006   0.86797   0.00000  Uiso   1.00
C102   C     0.13763   0.24690   0.04181   0.00000  Uiso   1.00
C103   C     0.15749   0.21075   0.08676   0.00000  Uiso   1.00
C104   C     0.14668   0.21842   0.15455   0.00000  Uiso   1.00
C105   C     0.14017   0.21336   0.26960   0.00000  Uiso   1.00
C106   C     0.09023   0.32392   0.00602   0.00000  Uiso   1.00
C107   C     0.06063   0.28879   0.95759   0.00000  Uiso   1.00
C108   C     0.00994   0.29615   0.93603   0.00000  Uiso   1.00
C109   C     0.98987   0.25966   0.89166   0.00000  Uiso   1.00
C110   C     0.13938   0.34038   0.96896   0.00000  Uiso   1.00
C111   C     0.15488   0.39112   0.95696   0.00000  Uiso   1.00
C112   C     0.20110   0.39807   0.92216   0.00000  Uiso   1.00
C113   C     0.10802   0.28921   0.06378   0.00000  Uiso   1.00
C114   C     0.09718   0.29694   0.13152   0.00000  Uiso   1.00
C115   C     0.11702   0.26081   0.17656   0.00000  Uiso   1.00
H116   H     0.16779   0.21308   0.94845   0.00000  Uiso   1.00
H117   H     0.09317   0.17723   0.87427   0.00000  Uiso   1.00
H118   H     0.23809   0.27218   0.89520   0.00000  Uiso   1.00
H119   H     0.18040   0.17801   0.06973   0.00000  Uiso   1.00
H120   H     0.99739   0.15615   0.80170   0.00000  Uiso   1.00
H121   H     0.30299   0.35637   0.84586   0.00000  Uiso   1.00
H122   H     0.18133   0.15779   0.21389   0.00000  Uiso   1.00
H123   H     0.06718   0.35687   0.02313   0.00000  Uiso   1.00
H124   H     0.98703   0.32890   0.95305   0.00000  Uiso   1.00
H125   H     0.13196   0.42386   0.97398   0.00000  Uiso   1.00
H126   H     0.07427   0.32969   0.14851   0.00000  Uiso   1.00
H127   H     0.91125   0.27925   0.86563   0.00000  Uiso   1.00
H128   H     0.21685   0.47948   0.90979   0.00000  Uiso   1.00
H129   H     0.09519   0.28090   0.27782   0.00000  Uiso   1.00
O130   O     0.90342   0.19672   0.78619   0.00000  Uiso   1.00
O131   O     0.30436   0.45940   0.84414   0.00000  Uiso   1.00
O132   O     0.14475   0.19887   0.32699   0.00000  Uiso   1.00
N133   N     0.98811   0.18895   0.82637   0.00000  Uiso   1.00
N134   N     0.27382   0.37615   0.86765   0.00000  Uiso   1.00
N135   N     0.16010   0.19050   0.21173   0.00000  Uiso   1.00
N136   N     0.94176   0.25519   0.86077   0.00000  Uiso   1.00
N137   N     0.22747   0.44239   0.90205   0.00000  Uiso   1.00
N138   N     0.11375   0.25674   0.24613   0.00000  Uiso   1.00
C139   C     0.64473   0.74602   0.46556   0.00000  Uiso   1.00
C140   C     0.59024   0.74648   0.43562   0.00000  Uiso   1.00
C141   C     0.57024   0.70996   0.39127   0.00000  Uiso   1.00
C142   C     0.51953   0.71727   0.36964   0.00000  Uiso   1.00
C143   C     0.43942   0.71156   0.31978   0.00000  Uiso   1.00
C144   C     0.66898   0.79807   0.44698   0.00000  Uiso   1.00
C145   C     0.71519   0.80494   0.41220   0.00000  Uiso   1.00
C146   C     0.73076   0.85568   0.40015   0.00000  Uiso   1.00
C147   C     0.77292   0.93006   0.36797   0.00000  Uiso   1.00
C148   C     0.63763   0.74690   0.54181   0.00000  Uiso   1.00
C149   C     0.65749   0.71075   0.58676   0.00000  Uiso   1.00
C150   C     0.64668   0.71842   0.65455   0.00000  Uiso   1.00
C151   C     0.64017   0.71336   0.76960   0.00000  Uiso   1.00
C152   C     0.59023   0.82392   0.50602   0.00000  Uiso   1.00
C153   C     0.56063   0.78879   0.45759   0.00000  Uiso   1.00
C154   C     0.50994   0.79615   0.43603   0.00000  Uiso   1.00
C155   C     0.48987   0.75966   0.39166   0.00000  Uiso   1.00
C156   C     0.63938   0.84038   0.46896   0.00000  Uiso   1.00
C157   C     0.65488   0.89112   0.45696   0.00000  Uiso   1.00
C158   C     0.70110   0.89807   0.42216   0.00000  Uiso   1.00
C159   C     0.60802   0.78921   0.56378   0.00000  Uiso   1.00
C160   C     0.59718   0.79694   0.63152   0.00000  Uiso   1.00
C161   C     0.61702   0.76081   0.67656   0.00000  Uiso   1.00
H162   H     0.66779   0.71308   0.44845   0.00000  Uiso   1.00
H163   H     0.59317   0.67723   0.37427   0.00000  Uiso   1.00
H164   H     0.73809   0.77218   0.39520   0.00000  Uiso   1.00
H165   H     0.68040   0.67801   0.56973   0.00000  Uiso   1.00
H166   H     0.49739   0.65615   0.30170   0.00000  Uiso   1.00
H167   H     0.80299   0.85637   0.34586   0.00000  Uiso   1.00
H168   H     0.68133   0.65779   0.71389   0.00000  Uiso   1.00
H169   H     0.56718   0.85687   0.52313   0.00000  Uiso   1.00
H170   H     0.48703   0.82890   0.45305   0.00000  Uiso   1.00
H171   H     0.63196   0.92386   0.47398   0.00000  Uiso   1.00
H172   H     0.57427   0.82969   0.64851   0.00000  Uiso   1.00
H173   H     0.41125   0.77925   0.36563   0.00000  Uiso   1.00
H174   H     0.71685   0.97948   0.40979   0.00000  Uiso   1.00
H175   H     0.59519   0.78090   0.77782   0.00000  Uiso   1.00
O176   O     0.40342   0.69672   0.28619   0.00000  Uiso   1.00
O177   O     0.80436   0.95940   0.34414   0.00000  Uiso   1.00
O178   O     0.64475   0.69887   0.82699   0.00000  Uiso   1.00
N179   N     0.48811   0.68895   0.32637   0.00000  Uiso   1.00
N180   N     0.77382   0.87615   0.36765   0.00000  Uiso   1.00
N181   N     0.66010   0.69050   0.71173   0.00000  Uiso   1.00
N182   N     0.44176   0.75519   0.36077   0.00000  Uiso   1.00
N183   N     0.72747   0.94239   0.40205   0.00000  Uiso   1.00
N184   N     0.61375   0.75674   0.74613   0.00000  Uiso   1.00
C185   C     0.74602   0.85527   0.71556   0.00000  Uiso   1.00
C186   C     0.74648   0.90976   0.68562   0.00000  Uiso   1.00
C187   C     0.70996   0.92976   0.64127   0.00000  Uiso   1.00
C188   C     0.71727   0.98047   0.61964   0.00000  Uiso   1.00
C189   C     0.71156   0.06058   0.56978   0.00000  Uiso   1.00
C190   C     0.79807   0.83102   0.69698   0.00000  Uiso   1.00
C191   C     0.80494   0.78481   0.66220   0.00000  Uiso   1.00
C192   C     0.85568   0.76924   0.65015   0.00000  Uiso   1.00
C193   C     0.93006   0.72708   0.61797   0.00000  Uiso   1.00
C194   C     0.74690   0.86237   0.79181   0.00000  Uiso   1.00
C195   C     0.71075   0.84251   0.83676   0.00000  Uiso   1.00
C196   C     0.71842   0.85332   0.90455   0.00000  Uiso   1.00
C197   C     0.71336   0.85983   0.01960   0.00000  Uiso   1.00
C198   C     0.82392   0.90977   0.75602   0.00000  Uiso   1.00
C199   C     0.78879   0.93937   0.70759   0.00000  Uiso   1.00
C200   C     0.79615   0.99006   0.68603   0.00000  Uiso   1.00
C201   C     0.75966   0.01013   0.64166   0.00000  Uiso   1.00
C202   C     0.84038   0.86062   0.71896   0.00000  Uiso   1.00
C203   C     0.89112   0.84512   0.70696   0.00000  Uiso   1.00
C204   C     0.89807   0.79890   0.67216   0.00000  Uiso   1.00
C205   C     0.78921   0.89198   0.81378   0.00000  Uiso   1.00
C206   C     0.79694   0.90282   0.88152   0.00000  Uiso   1.00
C207   C     0.76081   0.88298   0.92656   0.00000  Uiso   1.00
H208   H     0.71308   0.83221   0.69845   0.00000  Uiso   1.00
H209   H     0.67723   0.90683   0.62427   0.00000  Uiso   1.00
H210   H     0.77218   0.76191   0.64520   0.00000  Uiso   1.00
H211   H     0.67801   0.81960   0.81973   0.00000  Uiso   1.00
H212   H     0.65615   0.00261   0.55170   0.00000  Uiso   1.00
H213   H     0.85637   0.69701   0.59586   0.00000  Uiso   1.00
H214   H     0.65779   0.81867   0.96389   0.00000  Uiso   1.00
H215   H     0.85687   0.93282   0.77313   0.00000  Uiso   1.00
H216   H     0.82890   0.01297   0.70305   0.00000  Uiso   1.00
H217   H     0.92386   0.86804   0.72398   0.00000  Uiso   1.00
H218   H     0.82969   0.92573   0.89851   0.00000  Uiso   1.00
H219   H     0.77925   0.08875   0.61563   0.00000  Uiso   1.00
H220   H     0.97948   0.78315   0.65979   0.00000  Uiso   1.00
H221   H     0.78090   0.90481   0.02782   0.00000  Uiso   1.00
O222   O     0.69672   0.09658   0.53619   0.00000  Uiso   1.00
O223   O     0.95940   0.69564   0.59414   0.00000  Uiso   1.00
O224   O     0.69887   0.85525   0.07699   0.00000  Uiso   1.00
N225   N     0.68895   0.01189   0.57637   0.00000  Uiso   1.00
N226   N     0.87615   0.72618   0.61765   0.00000  Uiso   1.00
N227   N     0.69050   0.83990   0.96173   0.00000  Uiso   1.00
N228   N     0.75519   0.05824   0.61077   0.00000  Uiso   1.00
N229   N     0.94239   0.77253   0.65205   0.00000  Uiso   1.00
N230   N     0.75674   0.88625   0.99613   0.00000  Uiso   1.00
C231   C     0.24602   0.35527   0.21556   0.00000  Uiso   1.00
C232   C     0.24648   0.40976   0.18562   0.00000  Uiso   1.00
C233   C     0.20996   0.42976   0.14127   0.00000  Uiso   1.00
C234   C     0.21727   0.48047   0.11964   0.00000  Uiso   1.00
C235   C     0.21156   0.56058   0.06978   0.00000  Uiso   1.00
C236   C     0.29807   0.33102   0.19698   0.00000  Uiso   1.00
C237   C     0.30494   0.28481   0.16220   0.00000  Uiso   1.00
C238   C     0.35568   0.26924   0.15015   0.00000  Uiso   1.00
C239   C     0.43006   0.22708   0.11797   0.00000  Uiso   1.00
C240   C     0.24690   0.36237   0.29181   0.00000  Uiso   1.00
C241   C     0.21075   0.34251   0.33676   0.00000  Uiso   1.00
C242   C     0.21842   0.35332   0.40455   0.00000  Uiso   1.00
C243   C     0.21336   0.35983   0.51960   0.00000  Uiso   1.00
C244   C     0.32392   0.40977   0.25602   0.00000  Uiso   1.00
C245   C     0.28879   0.43937   0.20759   0.00000  Uiso   1.00
C246   C     0.29615   0.49006   0.18603   0.00000  Uiso   1.00
C247   C     0.25966   0.51013   0.14166   0.00000  Uiso   1.00
C248   C     0.34038   0.36062   0.21896   0.00000  Uiso   1.00
C249   C     0.39112   0.34512   0.20696   0.00000  Uiso   1.00
C250   C     0.39807   0.29890   0.17216   0.00000  Uiso   1.00
C251   C     0.28921   0.39198   0.31378   0.00000  Uiso   1.00
C252   C     0.29694   0.40282   0.38152   0.00000  Uiso   1.00
C253   C     0.26081   0.38298   0.42656   0.00000  Uiso   1.00
H254   H     0.21308   0.33221   0.19845   0.00000  Uiso   1.00
H255   H     0.17723   0.40683   0.12427   0.00000  Uiso   1.00
H256   H     0.27218   0.26191   0.14520   0.00000  Uiso   1.00
H257   H     0.17801   0.31960   0.31973   0.00000  Uiso   1.00
H258   H     0.15615   0.50261   0.05170   0.00000  Uiso   1.00
H259   H     0.35637   0.19701   0.09586   0.00000  Uiso   1.00
H260   H     0.15779   0.31867   0.46389   0.00000  Uiso   1.00
H261   H     0.35687   0.43282   0.27313   0.00000  Uiso   1.00
H262   H     0.32890   0.51297   0.20305   0.00000  Uiso   1.00
H263   H     0.42386   0.36804   0.22398   0.00000  Uiso   1.00
H264   H     0.32969   0.42573   0.39851   0.00000  Uiso   1.00
H265   H     0.27925   0.58875   0.11563   0.00000  Uiso   1.00
H266   H     0.47948   0.28315   0.15979   0.00000  Uiso   1.00
H267   H     0.28090   0.40481   0.52782   0.00000  Uiso   1.00
O268   O     0.19672   0.59658   0.03619   0.00000  Uiso   1.00
O269   O     0.45940   0.19564   0.09414   0.00000  Uiso   1.00
O270   O     0.19887   0.35525   0.57699   0.00000  Uiso   1.00
N271   N     0.18895   0.51189   0.07637   0.00000  Uiso   1.00
N272   N     0.37615   0.22618   0.11765   0.00000  Uiso   1.00
N273   N     0.19050   0.33990   0.46173   0.00000  Uiso   1.00
N274   N     0.25519   0.55824   0.11077   0.00000  Uiso   1.00
N275   N     0.44239   0.27253   0.15205   0.00000  Uiso   1.00
N276   N     0.25674   0.38625   0.49613   0.00000  Uiso   1.00
C277   C     0.75398   0.64473   0.21556   0.00000  Uiso   1.00
C278   C     0.75352   0.59024   0.18562   0.00000  Uiso   1.00
C279   C     0.79004   0.57024   0.14127   0.00000  Uiso   1.00
C280   C     0.78273   0.51953   0.11964   0.00000  Uiso   1.00
C281   C     0.78844   0.43942   0.06978   0.00000  Uiso   1.00
C282   C     0.70193   0.66898   0.19698   0.00000  Uiso   1.00
C283   C     0.69506   0.71519   0.16220   0.00000  Uiso   1.00
C284   C     0.64432   0.73076   0.15015   0.00000  Uiso   1.00
C285   C     0.56994   0.77292   0.11797   0.00000  Uiso   1.00
C286   C     0.75310   0.63763   0.29181   0.00000  Uiso   1.00
C287   C     0.78925   0.65749   0.33676   0.00000  Uiso   1.00
C288   C     0.78158   0.64668   0.40455   0.00000  Uiso   1.00
C289   C     0.78664   0.64017   0.51960   0.00000  Uiso   1.00
C290   C     0.67608   0.59023   0.25602   0.00000  Uiso   1.00
C291   C     0.71121   0.56063   0.20759   0.00000  Uiso   1.00
C292   C     0.70385   0.50994   0.18603   0.00000  Uiso   1.00
C293   C     0.74034   0.48987   0.14166   0.00000  Uiso   1.00
C294   C     0.65962   0.63938   0.21896   0.00000  Uiso   1.00
C295   C     0.60888   0.65488   0.20696   0.00000  Uiso   1.00
C296   C     0.60193   0.70110   0.17216   0.00000  Uiso   1.00
C297   C     0.71079   0.60802   0.31378   0.00000  Uiso   1.00
C298   C     0.70306   0.59718   0.38152   0.00000  Uiso   1.00
C299   C     0.73919   0.61702   0.42656   0.00000  Uiso   1.00
H300   H     0.78692   0.66779   0.19845   0.00000  Uiso   1.00
H301   H     0.82277   0.59317   0.12427   0.00000  Uiso   1.00
H302   H     0.72782   0.73809   0.14520   0.00000  Uiso   1.00
H303   H     0.82199   0.68040   0.31973   0.00000  Uiso   1.00
H304   H     0.84385   0.49739   0.05170   0.00000  Uiso   1.00
H305   H     0.64363   0.80299   0.09586   0.00000  Uiso   1.00
H306   H     0.84221   0.68133   0.46389   0.00000  Uiso   1.00
H307   H     0.64313   0.56718   0.27313   0.00000  Uiso   1.00
H308   H     0.67110   0.48703   0.20305   0.00000  Uiso   1.00
H309   H     0.57614   0.63196   0.22398   0.00000  Uiso   1.00
H310   H     0.67031   0.57427   0.39851   0.00000  Uiso   1.00
H311   H     0.72075   0.41125   0.11563   0.00000  Uiso   1.00
H312   H     0.52052   0.71685   0.15979   0.00000  Uiso   1.00
H313   H     0.71910   0.59519   0.52782   0.00000  Uiso   1.00
O314   O     0.80328   0.40342   0.03619   0.00000  Uiso   1.00
O315   O     0.54060   0.80436   0.09414   0.00000  Uiso   1.00
O316   O     0.80113   0.64475   0.57699   0.00000  Uiso   1.00
N317   N     0.81105   0.48811   0.07637   0.00000  Uiso   1.00
N318   N     0.62385   0.77382   0.11765   0.00000  Uiso   1.00
N319   N     0.80950   0.66010   0.46173   0.00000  Uiso   1.00
N320   N     0.74481   0.44176   0.11077   0.00000  Uiso   1.00
N321   N     0.55761   0.72747   0.15205   0.00000  Uiso   1.00
N322   N     0.74326   0.61375   0.49613   0.00000  Uiso   1.00
C323   C     0.25398   0.14473   0.71556   0.00000  Uiso   1.00
C324   C     0.25352   0.09024   0.68562   0.00000  Uiso   1.00
C325   C     0.29004   0.07024   0.64127   0.00000  Uiso   1.00
C326   C     0.28273   0.01953   0.61964   0.00000  Uiso   1.00
C327   C     0.28844   0.93942   0.56978   0.00000  Uiso   1.00
C328   C     0.20193   0.16898   0.69698   0.00000  Uiso   1.00
C329   C     0.19506   0.21519   0.66220   0.00000  Uiso   1.00
C330   C     0.14432   0.23076   0.65015   0.00000  Uiso   1.00
C331   C     0.06994   0.27292   0.61797   0.00000  Uiso   1.00
C332   C     0.25310   0.13763   0.79181   0.00000  Uiso   1.00
C333   C     0.28925   0.15749   0.83676   0.00000  Uiso   1.00
C334   C     0.28158   0.14668   0.90455   0.00000  Uiso   1.00
C335   C     0.28664   0.14017   0.01960   0.00000  Uiso   1.00
C336   C     0.17608   0.09023   0.75602   0.00000  Uiso   1.00
C337   C     0.21121   0.06063   0.70759   0.00000  Uiso   1.00
C338   C     0.20385   0.00994   0.68603   0.00000  Uiso   1.00
C339   C     0.24034   0.98987   0.64166   0.00000  Uiso   1.00
C340   C     0.15962   0.13938   0.71896   0.00000  Uiso   1.00
C341   C     0.10888   0.15488   0.70696   0.00000  Uiso   1.00
C342   C     0.10193   0.20110   0.67216   0.00000  Uiso   1.00
C343   C     0.21079   0.10802   0.81378   0.00000  Uiso   1.00
C344   C     0.20306   0.09718   0.88152   0.00000  Uiso   1.00
C345   C     0.23919   0.11702   0.92656   0.00000  Uiso   1.00
H346   H     0.28692   0.16779   0.69845   0.00000  Uiso   1.00
H347   H     0.32277   0.09317   0.62427   0.00000  Uiso   1.00
H348   H     0.22782   0.23809   0.64520   0.00000  Uiso   1.00
H349   H     0.32199   0.18040   0.81973   0.00000  Uiso   1.00
H350   H     0.34385   0.99739   0.55170   0.00000  Uiso   1.00
H351   H     0.14363   0.30299   0.59586   0.00000  Uiso   1.00
H352   H     0.34221   0.18133   0.96389   0.00000  Uiso   1.00
H353   H     0.14313   0.06718   0.77313   0.00000  Uiso   1.00
H354   H     0.17110   0.98703   0.70305   0.00000  Uiso   1.00
H355   H     0.07614   0.13196   0.72398   0.00000  Uiso   1.00
H356   H     0.17031   0.07427   0.89851   0.00000  Uiso   1.00
H357   H     0.22075   0.91125   0.61563   0.00000  Uiso   1.00
H358   H     0.02052   0.21685   0.65979   0.00000  Uiso   1.00
H359   H     0.21910   0.09519   0.02782   0.00000  Uiso   1.00
O360   O     0.30328   0.90342   0.53619   0.00000  Uiso   1.00
O361   O     0.04060   0.30436   0.59414   0.00000  Uiso   1.00
O362   O     0.30113   0.14475   0.07699   0.00000  Uiso   1.00
N363   N     0.31105   0.98811   0.57637   0.00000  Uiso   1.00
N364   N     0.12385   0.27382   0.61765   0.00000  Uiso   1.00
N365   N     0.30950   0.16010   0.96173   0.00000  Uiso   1.00
N366   N     0.24481   0.94176   0.61077   0.00000  Uiso   1.00
N367   N     0.05761   0.22747   0.65205   0.00000  Uiso   1.00
N368   N     0.24326   0.11375   0.99613   0.00000  Uiso   1.00
C369   C     0.64473   0.24602   0.78444   0.00000  Uiso   1.00
C370   C     0.59024   0.24648   0.81438   0.00000  Uiso   1.00
C371   C     0.57024   0.20996   0.85873   0.00000  Uiso   1.00
C372   C     0.51953   0.21727   0.88036   0.00000  Uiso   1.00
C373   C     0.43942   0.21156   0.93022   0.00000  Uiso   1.00
C374   C     0.66898   0.29807   0.80302   0.00000  Uiso   1.00
C375   C     0.71519   0.30494   0.83780   0.00000  Uiso   1.00
C376   C     0.73076   0.35568   0.84985   0.00000  Uiso   1.00
C377   C     0.77292   0.43006   0.88203   0.00000  Uiso   1.00
C378   C     0.63763   0.24690   0.70819   0.00000  Uiso   1.00
C379   C     0.65749   0.21075   0.66324   0.00000  Uiso   1.00
C380   C     0.64668   0.21842   0.59545   0.00000  Uiso   1.00
C381   C     0.64017   0.21336   0.48040   0.00000  Uiso   1.00
C382   C     0.59023   0.32392   0.74398   0.00000  Uiso   1.00
C383   C     0.56063   0.28879   0.79241   0.00000  Uiso   1.00
C384   C     0.50994   0.29615   0.81397   0.00000  Uiso   1.00
C385   C     0.48987   0.25966   0.85834   0.00000  Uiso   1.00
C386   C     0.63938   0.34038   0.78104   0.00000  Uiso   1.00
C387   C     0.65488   0.39112   0.79304   0.00000  Uiso   1.00
C388   C     0.70110   0.39807   0.82784   0.00000  Uiso   1.00
C389   C     0.60802   0.28921   0.68622   0.00000  Uiso   1.00
C390   C     0.59718   0.29694   0.61848   0.00000  Uiso   1.00
C391   C     0.61702   0.26081   0.57344   0.00000  Uiso   1.00
H392   H     0.66779   0.21308   0.80155   0.00000  Uiso   1.00
H393   H     0.59317   0.17723   0.87573   0.00000  Uiso   1.00
H394   H     0.73809   0.27218   0.85480   0.00000  Uiso   1.00
H395   H     0.68040   0.17801   0.68027   0.00000  Uiso   1.00
H396   H     0.49739   0.15615   0.94830   0.00000  Uiso   1.00
H397   H     0.80299   0.35637   0.90414   0.00000  Uiso   1.00
H398   H     0.68133   0.15779   0.53611   0.00000  Uiso   1.00
H399   H     0.56718   0.35687   0.72687   0.00000  Uiso   1.00
H400   H     0.48703   0.32890   0.79695   0.00000  Uiso   1.00
H401   H     0.63196   0.42386   0.77602   0.00000  Uiso   1.00
H402   H     0.57427   0.32969   0.60149   0.00000  Uiso   1.00
H403   H     0.41125   0.27925   0.88437   0.00000  Uiso   1.00
H404   H     0.71685   0.47948   0.84021   0.00000  Uiso   1.00
H405   H     0.59519   0.28090   0.47218   0.00000  Uiso   1.00
O406   O     0.40342   0.19672   0.96381   0.00000  Uiso   1.00
O407   O     0.80436   0.45940   0.90586   0.00000  Uiso   1.00
O408   O     0.64475   0.19887   0.42301   0.00000  Uiso   1.00
N409   N     0.48811   0.18895   0.92363   0.00000  Uiso   1.00
N410   N     0.77382   0.37615   0.88235   0.00000  Uiso   1.00
N411   N     0.66010   0.19050   0.53827   0.00000  Uiso   1.00
N412   N     0.44176   0.25519   0.88923   0.00000  Uiso   1.00
N413   N     0.72747   0.44239   0.84795   0.00000  Uiso   1.00
N414   N     0.61375   0.25674   0.50387   0.00000  Uiso   1.00
C415   C     0.14473   0.74602   0.28444   0.00000  Uiso   1.00
C416   C     0.09024   0.74648   0.31438   0.00000  Uiso   1.00
C417   C     0.07024   0.70996   0.35873   0.00000  Uiso   1.00
C418   C     0.01953   0.71727   0.38036   0.00000  Uiso   1.00
C419   C     0.93942   0.71156   0.43022   0.00000  Uiso   1.00
C420   C     0.16898   0.79807   0.30302   0.00000  Uiso   1.00
C421   C     0.21519   0.80494   0.33780   0.00000  Uiso   1.00
C422   C     0.23076   0.85568   0.34985   0.00000  Uiso   1.00
C423   C     0.27292   0.93006   0.38203   0.00000  Uiso   1.00
C424   C     0.13763   0.74690   0.20819   0.00000  Uiso   1.00
C425   C     0.15749   0.71075   0.16324   0.00000  Uiso   1.00
C426   C     0.14668   0.71842   0.09545   0.00000  Uiso   1.00
C427   C     0.14017   0.71336   0.98040   0.00000  Uiso   1.00
C428   C     0.09023   0.82392   0.24398   0.00000  Uiso   1.00
C429   C     0.06063   0.78879   0.29241   0.00000  Uiso   1.00
C430   C     0.00994   0.79615   0.31397   0.00000  Uiso   1.00
C431   C     0.98987   0.75966   0.35834   0.00000  Uiso   1.00
C432   C     0.13938   0.84038   0.28104   0.00000  Uiso   1.00
C433   C     0.15488   0.89112   0.29304   0.00000  Uiso   1.00
C434   C     0.20110   0.89807   0.32784   0.00000  Uiso   1.00
C435   C     0.10802   0.78921   0.18622   0.00000  Uiso   1.00
C436   C     0.09718   0.79694   0.11848   0.00000  Uiso   1.00
C437   C     0.11702   0.76081   0.07344   0.00000  Uiso   1.00
H438   H     0.16779   0.71308   0.30155   0.00000  Uiso   1.00
H439   H     0.09317   0.67723   0.37573   0.00000  Uiso   1.00
H440   H     0.23809   0.77218   0.35480   0.00000  Uiso   1.00
H441   H     0.18040   0.67801   0.18027   0.00000  Uiso   1.00
H442   H     0.99739   0.65615   0.44830   0.00000  Uiso   1.00
H443   H     0.30299   0.85637   0.40414   0.00000  Uiso   1.00
H444   H     0.18133   0.65779   0.03611   0.00000  Uiso   1.00
H445   H     0.06718   0.85687   0.22687   0.00000  Uiso   1.00
H446   H     0.98703   0.82890   0.29695   0.00000  Uiso   1.00
H447   H     0.13196   0.92386   0.27602   0.00000  Uiso   1.00
H448   H     0.07427   0.82969   0.10149   0.00000  Uiso   1.00
H449   H     0.91125   0.77925   0.38437   0.00000  Uiso   1.00
H450   H     0.21685   0.97948   0.34021   0.00000  Uiso   1.00
H451   H     0.09519   0.78090   0.97218   0.00000  Uiso   1.00
O452   O     0.90342   0.69672   0.46381   0.00000  Uiso   1.00
O453   O     0.30436   0.95940   0.40586   0.00000  Uiso   1.00
O454   O     0.14475   0.69887   0.92301   0.00000  Uiso   1.00
N455   N     0.98811   0.68895   0.42363   0.00000  Uiso   1.00
N456   N     0.27382   0.87615   0.38235   0.00000  Uiso   1.00
N457   N     0.16010   0.69050   0.03827   0.00000  Uiso   1.00
N458   N     0.94176   0.75519   0.38923   0.00000  Uiso   1.00
N459   N     0.22747   0.94239   0.34795   0.00000  Uiso   1.00
N460   N     0.11375   0.75674   0.00387   0.00000  Uiso   1.00
C461   C     0.85527   0.25398   0.28444   0.00000  Uiso   1.00
C462   C     0.90976   0.25352   0.31438   0.00000  Uiso   1.00
C463   C     0.92976   0.29004   0.35873   0.00000  Uiso   1.00
C464   C     0.98047   0.28273   0.38036   0.00000  Uiso   1.00
C465   C     0.06058   0.28844   0.43022   0.00000  Uiso   1.00
C466   C     0.83102   0.20193   0.30302   0.00000  Uiso   1.00
C467   C     0.78481   0.19506   0.33780   0.00000  Uiso   1.00
C468   C     0.76924   0.14432   0.34985   0.00000  Uiso   1.00
C469   C     0.72708   0.06994   0.38203   0.00000  Uiso   1.00
C470   C     0.86237   0.25310   0.20819   0.00000  Uiso   1.00
C471   C     0.84251   0.28925   0.16324   0.00000  Uiso   1.00
C472   C     0.85332   0.28158   0.09545   0.00000  Uiso   1.00
C473   C     0.85983   0.28664   0.98040   0.00000  Uiso   1.00
C474   C     0.90977   0.17608   0.24398   0.00000  Uiso   1.00
C475   C     0.93937   0.21121   0.29241   0.00000  Uiso   1.00
C476   C     0.99006   0.20385   0.31397   0.00000  Uiso   1.00
C477   C     0.01013   0.24034   0.35834   0.00000  Uiso   1.00
C478   C     0.86062   0.15962   0.28104   0.00000  Uiso   1.00
C479   C     0.84512   0.10888   0.29304   0.00000  Uiso   1.00
C480   C     0.79890   0.10193   0.32784   0.00000  Uiso   1.00
C481   C     0.89198   0.21079   0.18622   0.00000  Uiso   1.00
C482   C     0.90282   0.20306   0.11848   0.00000  Uiso   1.00
C483   C     0.88298   0.23919   0.07344   0.00000  Uiso   1.00
H484   H     0.83221   0.28692   0.30155   0.00000  Uiso   1.00
H485   H     0.90683   0.32277   0.37573   0.00000  Uiso   1.00
H486   H     0.76191   0.22782   0.35480   0.00000  Uiso   1.00
H487   H     0.81960   0.32199   0.18027   0.00000  Uiso   1.00
H488   H     0.00261   0.34385   0.44830   0.00000  Uiso   1.00
H489   H     0.69701   0.14363   0.40414   0.00000  Uiso   1.00
H490   H     0.81867   0.34221   0.03611   0.00000  Uiso   1.00
H491   H     0.93282   0.14313   0.22687   0.00000  Uiso   1.00
H492   H     0.01297   0.17110   0.29695   0.00000  Uiso   1.00
H493   H     0.86804   0.07614   0.27602   0.00000  Uiso   1.00
H494   H     0.92573   0.17031   0.10149   0.00000  Uiso   1.00
H495   H     0.08875   0.22075   0.38437   0.00000  Uiso   1.00
H496   H     0.78315   0.02052   0.34021   0.00000  Uiso   1.00
H497   H     0.90481   0.21910   0.97218   0.00000  Uiso   1.00
O498   O     0.09658   0.30328   0.46381   0.00000  Uiso   1.00
O499   O     0.69564   0.04060   0.40586   0.00000  Uiso   1.00
O500   O     0.85525   0.30113   0.92301   0.00000  Uiso   1.00
N501   N     0.01189   0.31105   0.42363   0.00000  Uiso   1.00
N502   N     0.72618   0.12385   0.38235   0.00000  Uiso   1.00
N503   N     0.83990   0.30950   0.03827   0.00000  Uiso   1.00
N504   N     0.05824   0.24481   0.38923   0.00000  Uiso   1.00
N505   N     0.77253   0.05761   0.34795   0.00000  Uiso   1.00
N506   N     0.88625   0.24326   0.00387   0.00000  Uiso   1.00
C507   C     0.35527   0.75398   0.78444   0.00000  Uiso   1.00
C508   C     0.40976   0.75352   0.81438   0.00000  Uiso   1.00
C509   C     0.42976   0.79004   0.85873   0.00000  Uiso   1.00
C510   C     0.48047   0.78273   0.88036   0.00000  Uiso   1.00
C511   C     0.56058   0.78844   0.93022   0.00000  Uiso   1.00
C512   C     0.33102   0.70193   0.80302   0.00000  Uiso   1.00
C513   C     0.28481   0.69506   0.83780   0.00000  Uiso   1.00
C514   C     0.26924   0.64432   0.84985   0.00000  Uiso   1.00
C515   C     0.22708   0.56994   0.88203   0.00000  Uiso   1.00
C516   C     0.36237   0.75310   0.70819   0.00000  Uiso   1.00
C517   C     0.34251   0.78925   0.66324   0.00000  Uiso   1.00
C518   C     0.35332   0.78158   0.59545   0.00000  Uiso   1.00
C519   C     0.35983   0.78664   0.48040   0.00000  Uiso   1.00
C520   C     0.40977   0.67608   0.74398   0.00000  Uiso   1.00
C521   C     0.43937   0.71121   0.79241   0.00000  Uiso   1.00
C522   C     0.49006   0.70385   0.81397   0.00000  Uiso   1.00
C523   C     0.51013   0.74034   0.85834   0.00000  Uiso   1.00
C524   C     0.36062   0.65962   0.78104   0.00000  Uiso   1.00
C525   C     0.34512   0.60888   0.79304   0.00000  Uiso   1.00
C526   C     0.29890   0.60193   0.82784   0.00000  Uiso   1.00
C527   C     0.39198   0.71079   0.68622   0.00000  Uiso   1.00
C528   C     0.40282   0.70306   0.61848   0.00000  Uiso   1.00
C529   C     0.38298   0.73919   0.57344   0.00000  Uiso   1.00
H530   H     0.33221   0.78692   0.80155   0.00000  Uiso   1.00
H531   H     0.40683   0.82277   0.87573   0.00000  Uiso   1.00
H532   H     0.26191   0.72782   0.85480   0.00000  Uiso   1.00
H533   H     0.31960   0.82199   0.68027   0.00000  Uiso   1.00
H534   H     0.50261   0.84385   0.94830   0.00000  Uiso   1.00
H535   H     0.19701   0.64363   0.90414   0.00000  Uiso   1.00
H536   H     0.31867   0.84221   0.53611   0.00000  Uiso   1.00
H537   H     0.43282   0.64313   0.72687   0.00000  Uiso   1.00
H538   H     0.51297   0.67110   0.79695   0.00000  Uiso   1.00
H539   H     0.36804   0.57614   0.77602   0.00000  Uiso   1.00
H540   H     0.42573   0.67031   0.60149   0.00000  Uiso   1.00
H541   H     0.58875   0.72075   0.88437   0.00000  Uiso   1.00
H542   H     0.28315   0.52052   0.84021   0.00000  Uiso   1.00
H543   H     0.40481   0.71910   0.47218   0.00000  Uiso   1.00
O544   O     0.59658   0.80328   0.96381   0.00000  Uiso   1.00
O545   O     0.19564   0.54060   0.90586   0.00000  Uiso   1.00
O546   O     0.35525   0.80113   0.42301   0.00000  Uiso   1.00
N547   N     0.51189   0.81105   0.92363   0.00000  Uiso   1.00
N548   N     0.22618   0.62385   0.88235   0.00000  Uiso   1.00
N549   N     0.33990   0.80950   0.53827   0.00000  Uiso   1.00
N550   N     0.55824   0.74481   0.88923   0.00000  Uiso   1.00
N551   N     0.27253   0.55761   0.84795   0.00000  Uiso   1.00
N552   N     0.38625   0.74326   0.50387   0.00000  Uiso   1.00
C553   C     0.25398   0.64473   0.53444   0.00000  Uiso   1.00
C554   C     0.25352   0.59024   0.56438   0.00000  Uiso   1.00
C555   C     0.29004   0.57024   0.60873   0.00000  Uiso   1.00
C556   C     0.28273   0.51953   0.63036   0.00000  Uiso   1.00
C557   C     0.28844   0.43942   0.68022   0.00000  Uiso   1.00
C558   C     0.20193   0.66898   0.55302   0.00000  Uiso   1.00
C559   C     0.19506   0.71519   0.58780   0.00000  Uiso   1.00
C560   C     0.14432   0.73076   0.59985   0.00000  Uiso   1.00
C561   C     0.06994   0.77292   0.63203   0.00000  Uiso   1.00
C562   C     0.25310   0.63763   0.45819   0.00000  Uiso   1.00
C563   C     0.28925   0.65749   0.41324   0.00000  Uiso   1.00
C564   C     0.28158   0.64668   0.34545   0.00000  Uiso   1.00
C565   C     0.28664   0.64017   0.23040   0.00000  Uiso   1.00
C566   C     0.17608   0.59023   0.49398   0.00000  Uiso   1.00
C567   C     0.21121   0.56063   0.54241   0.00000  Uiso   1.00
C568   C     0.20385   0.50994   0.56397   0.00000  Uiso   1.00
C569   C     0.24034   0.48987   0.60834   0.00000  Uiso   1.00
C570   C     0.15962   0.63938   0.53104   0.00000  Uiso   1.00
C571   C     0.10888   0.65488   0.54304   0.00000  Uiso   1.00
C572   C     0.10193   0.70110   0.57784   0.00000  Uiso   1.00
C573   C     0.21079   0.60802   0.43622   0.00000  Uiso   1.00
C574   C     0.20306   0.59718   0.36848   0.00000  Uiso   1.00
C575   C     0.23919   0.61702   0.32344   0.00000  Uiso   1.00
H576   H     0.28692   0.66779   0.55155   0.00000  Uiso   1.00
H577   H     0.32277   0.59317   0.62573   0.00000  Uiso   1.00
H578   H     0.22782   0.73809   0.60480   0.00000  Uiso   1.00
H579   H     0.32199   0.68040   0.43027   0.00000  Uiso   1.00
H580   H     0.34385   0.49739   0.69830   0.00000  Uiso   1.00
H581   H     0.14363   0.80299   0.65414   0.00000  Uiso   1.00
H582   H     0.34221   0.68133   0.28611   0.00000  Uiso   1.00
H583   H     0.14313   0.56718   0.47687   0.00000  Uiso   1.00
H584   H     0.17110   0.48703   0.54695   0.00000  Uiso   1.00
H585   H     0.07614   0.63196   0.52602   0.00000  Uiso   1.00
H586   H     0.17031   0.57427   0.35149   0.00000  Uiso   1.00
H587   H     0.22075   0.41125   0.63437   0.00000  Uiso   1.00
H588   H     0.02052   0.71685   0.59021   0.00000  Uiso   1.00
H589   H     0.21910   0.59519   0.22218   0.00000  Uiso   1.00
O590   O     0.30328   0.40342   0.71381   0.00000  Uiso   1.00
O591   O     0.04060   0.80436   0.65586   0.00000  Uiso   1.00
O592   O     0.30113   0.64475   0.17301   0.00000  Uiso   1.00
N593   N     0.31105   0.48811   0.67363   0.00000  Uiso   1.00
N594   N     0.12385   0.77382   0.63235   0.00000  Uiso   1.00
N595   N     0.30950   0.66010   0.28827   0.00000  Uiso   1.00
N596   N     0.24481   0.44176   0.63923   0.00000  Uiso   1.00
N597   N     0.05761   0.72747   0.59795   0.00000  Uiso   1.00
N598   N     0.24326   0.61375   0.25387   0.00000  Uiso   1.00
C599   C     0.75398   0.14473   0.03444   0.00000  Uiso   1.00
C600   C     0.75352   0.09024   0.06438   0.00000  Uiso   1.00
C601   C     0.79004   0.07024   0.10873   0.00000  Uiso   1.00
C602   C     0.78273   0.01953   0.13036   0.00000  Uiso   1.00
C603   C     0.78844   0.93942   0.18022   0.00000  Uiso   1.00
C604   C     0.70193   0.16898   0.05302   0.00000  Uiso   1.00
C605   C     0.69506   0.21519   0.08780   0.00000  Uiso   1.00
C606   C     0.64432   0.23076   0.09985   0.00000  Uiso   1.00
C607   C     0.56994   0.27292   0.13203   0.00000  Uiso   1.00
C608   C     0.75310   0.13763   0.95819   0.00000  Uiso   1.00
C609   C     0.78925   0.15749   0.91324   0.00000  Uiso   1.00
C610   C     0.78158   0.14668   0.84545   0.00000  Uiso   1.00
C611   C     0.78664   0.14017   0.73040   0.00000  Uiso   1.00
C612   C     0.67608   0.09023   0.99398   0.00000  Uiso   1.00
C613   C     0.71121   0.06063   0.04241   0.00000  Uiso   1.00
C614   C     0.70385   0.00994   0.06397   0.00000  Uiso   1.00
C615   C     0.74034   0.98987   0.10834   0.00000  Uiso   1.00
C616   C     0.65962   0.13938   0.03104   0.00000  Uiso   1.00
C617   C     0.60888   0.15488   0.04304   0.00000  Uiso   1.00
C618   C     0.60193   0.20110   0.07784   0.00000  Uiso   1.00
C619   C     0.71079   0.10802   0.93622   0.00000  Uiso   1.00
C620   C     0.70306   0.09718   0.86848   0.00000  Uiso   1.00
C621   C     0.73919   0.11702   0.82344   0.00000  Uiso   1.00
H622   H     0.78692   0.16779   0.05155   0.00000  Uiso   1.00
H623   H     0.82277   0.09317   0.12573   0.00000  Uiso   1.00
H624   H     0.72782   0.23809   0.10480   0.00000  Uiso   1.00
H625   H     0.82199   0.18040   0.93027   0.00000  Uiso   1.00
H626   H     0.84385   0.99739   0.19830   0.00000  Uiso   1.00
H627   H     0.64363   0.30299   0.15414   0.00000  Uiso   1.00
H628   H     0.84221   0.18133   0.78611   0.00000  Uiso   1.00
H629   H     0.64313   0.06718   0.97687   0.00000  Uiso   1.00
H630   H     0.67110   0.98703   0.04695   0.00000  Uiso   1.00
H631   H     0.57614   0.13196   0.02602   0.00000  Uiso   1.00
H632   H     0.67031   0.07427   0.85149   0.00000  Uiso   1.00
H633   H     0.72075   0.91125   0.13437   0.00000  Uiso   1.00
H634   H     0.52052   0.21685   0.09021   0.00000  Uiso   1.00
H635   H     0.71910   0.09519   0.72218   0.00000  Uiso   1.00
O636   O     0.80328   0.90342   0.21381   0.00000  Uiso   1.00
O637   O     0.54060   0.30436   0.15586   0.00000  Uiso   1.00
O638   O     0.80113   0.14475   0.67301   0.00000  Uiso   1.00
N639   N     0.81105   0.98811   0.17363   0.00000  Uiso   1.00
N640   N     0.62385   0.27382   0.13235   0.00000  Uiso   1.00
N641   N     0.80950   0.16010   0.78827   0.00000  Uiso   1.00
N642   N     0.74481   0.94176   0.13923   0.00000  Uiso   1.00
N643   N     0.55761   0.22747   0.09795   0.00000  Uiso   1.00
N644   N     0.74326   0.11375   0.75387   0.00000  Uiso   1.00
C645   C     0.24602   0.85527   0.03444   0.00000  Uiso   1.00
C646   C     0.24648   0.90976   0.06438   0.00000  Uiso   1.00
C647   C     0.20996   0.92976   0.10873   0.00000  Uiso   1.00
C648   C     0.21727   0.98047   0.13036   0.00000  Uiso   1.00
C649   C     0.21156   0.06058   0.18022   0.00000  Uiso   1.00
C650   C     0.29807   0.83102   0.05302   0.00000  Uiso   1.00
C651   C     0.30494   0.78481   0.08780   0.00000  Uiso   1.00
C652   C     0.35568   0.76924   0.09985   0.00000  Uiso   1.00
C653   C     0.43006   0.72708   0.13203   0.00000  Uiso   1.00
C654   C     0.24690   0.86237   0.95819   0.00000  Uiso   1.00
C655   C     0.21075   0.84251   0.91324   0.00000  Uiso   1.00
C656   C     0.21842   0.85332   0.84545   0.00000  Uiso   1.00
C657   C     0.21336   0.85983   0.73040   0.00000  Uiso   1.00
C658   C     0.32392   0.90977   0.99398   0.00000  Uiso   1.00
C659   C     0.28879   0.93937   0.04241   0.00000  Uiso   1.00
C660   C     0.29615   0.99006   0.06397   0.00000  Uiso   1.00
C661   C     0.25966   0.01013   0.10834   0.00000  Uiso   1.00
C662   C     0.34038   0.86062   0.03104   0.00000  Uiso   1.00
C663   C     0.39112   0.84512   0.04304   0.00000  Uiso   1.00
C664   C     0.39807   0.79890   0.07784   0.00000  Uiso   1.00
C665   C     0.28921   0.89198   0.93622   0.00000  Uiso   1.00
C666   C     0.29694   0.90282   0.86848   0.00000  Uiso   1.00
C667   C     0.26081   0.88298   0.82344   0.00000  Uiso   1.00
H668   H     0.21308   0.83221   0.05155   0.00000  Uiso   1.00
H669   H     0.17723   0.90683   0.12573   0.00000  Uiso   1.00
H670   H     0.27218   0.76191   0.10480   0.00000  Uiso   1.00
H671   H     0.17801   0.81960   0.93027   0.00000  Uiso   1.00
H672   H     0.15615   0.00261   0.19830   0.00000  Uiso   1.00
H673   H     0.35637   0.69701   0.15414   0.00000  Uiso   1.00
H674   H     0.15779   0.81867   0.78611   0.00000  Uiso   1.00
H675   H     0.35687   0.93282   0.97687   0.00000  Uiso   1.00
H676   H     0.32890   0.01297   0.04695   0.00000  Uiso   1.00
H677   H     0.42386   0.86804   0.02602   0.00000  Uiso   1.00
H678   H     0.32969   0.92573   0.85149   0.00000  Uiso   1.00
H679   H     0.27925   0.08875   0.13437   0.00000  Uiso   1.00
H680   H     0.47948   0.78315   0.09021   0.00000  Uiso   1.00
H681   H     0.28090   0.90481   0.72218   0.00000  Uiso   1.00
O682   O     0.19672   0.09658   0.21381   0.00000  Uiso   1.00
O683   O     0.45940   0.69564   0.15586   0.00000  Uiso   1.00
O684   O     0.19887   0.85525   0.67301   0.00000  Uiso   1.00
N685   N     0.18895   0.01189   0.17363   0.00000  Uiso   1.00
N686   N     0.37615   0.72618   0.13235   0.00000  Uiso   1.00
N687   N     0.19050   0.83990   0.78827   0.00000  Uiso   1.00
N688   N     0.25519   0.05824   0.13923   0.00000  Uiso   1.00
N689   N     0.44239   0.77253   0.09795   0.00000  Uiso   1.00
N690   N     0.25674   0.88625   0.75387   0.00000  Uiso   1.00
C691   C     0.74602   0.35527   0.53444   0.00000  Uiso   1.00
C692   C     0.74648   0.40976   0.56438   0.00000  Uiso   1.00
C693   C     0.70996   0.42976   0.60873   0.00000  Uiso   1.00
C694   C     0.71727   0.48047   0.63036   0.00000  Uiso   1.00
C695   C     0.71156   0.56058   0.68022   0.00000  Uiso   1.00
C696   C     0.79807   0.33102   0.55302   0.00000  Uiso   1.00
C697   C     0.80494   0.28481   0.58780   0.00000  Uiso   1.00
C698   C     0.85568   0.26924   0.59985   0.00000  Uiso   1.00
C699   C     0.93006   0.22708   0.63203   0.00000  Uiso   1.00
C700   C     0.74690   0.36237   0.45819   0.00000  Uiso   1.00
C701   C     0.71075   0.34251   0.41324   0.00000  Uiso   1.00
C702   C     0.71842   0.35332   0.34545   0.00000  Uiso   1.00
C703   C     0.71336   0.35983   0.23040   0.00000  Uiso   1.00
C704   C     0.82392   0.40977   0.49398   0.00000  Uiso   1.00
C705   C     0.78879   0.43937   0.54241   0.00000  Uiso   1.00
C706   C     0.79615   0.49006   0.56397   0.00000  Uiso   1.00
C707   C     0.75966   0.51013   0.60834   0.00000  Uiso   1.00
C708   C     0.84038   0.36062   0.53104   0.00000  Uiso   1.00
C709   C     0.89112   0.34512   0.54304   0.00000  Uiso   1.00
C710   C     0.89807   0.29890   0.57784   0.00000  Uiso   1.00
C711   C     0.78921   0.39198   0.43622   0.00000  Uiso   1.00
C712   C     0.79694   0.40282   0.36848   0.00000  Uiso   1.00
C713   C     0.76081   0.38298   0.32344   0.00000  Uiso   1.00
H714   H     0.71308   0.33221   0.55155   0.00000  Uiso   1.00
H715   H     0.67723   0.40683   0.62573   0.00000  Uiso   1.00
H716   H     0.77218   0.26191   0.60480   0.00000  Uiso   1.00
H717   H     0.67801   0.31960   0.43027   0.00000  Uiso   1.00
H718   H     0.65615   0.50261   0.69830   0.00000  Uiso   1.00
H719   H     0.85637   0.19701   0.65414   0.00000  Uiso   1.00
H720   H     0.65779   0.31867   0.28611   0.00000  Uiso   1.00
H721   H     0.85687   0.43282   0.47687   0.00000  Uiso   1.00
H722   H     0.82890   0.51297   0.54695   0.00000  Uiso   1.00
H723   H     0.92386   0.36804   0.52602   0.00000  Uiso   1.00
H724   H     0.82969   0.42573   0.35149   0.00000  Uiso   1.00
H725   H     0.77925   0.58875   0.63437   0.00000  Uiso   1.00
H726   H     0.97948   0.28315   0.59021   0.00000  Uiso   1.00
H727   H     0.78090   0.40481   0.22218   0.00000  Uiso   1.00
O728   O     0.69672   0.59658   0.71381   0.00000  Uiso   1.00
O729   O     0.95940   0.19564   0.65586   0.00000  Uiso   1.00
O730   O     0.69887   0.35525   0.17301   0.00000  Uiso   1.00
N731   N     0.68895   0.51189   0.67363   0.00000  Uiso   1.00
N732   N     0.87615   0.22618   0.63235   0.00000  Uiso   1.00
N733   N     0.69050   0.33990   0.28827   0.00000  Uiso   1.00
N734   N     0.75519   0.55824   0.63923   0.00000  Uiso   1.00
N735   N     0.94239   0.27253   0.59795   0.00000  Uiso   1.00
N736   N     0.75674   0.38625   0.25387   0.00000  Uiso   1.00
