data_job_02854
_audit_creation_date              2018-12-19
_audit_creation_method            'Materials Studio'
_symmetry_space_group_name_H-M    'P1'
_symmetry_Int_Tables_number       1
_symmetry_cell_setting            triclinic
loop_
_symmetry_equiv_pos_as_xyz
  x,y,z
_cell_length_a                    21.2421
_cell_length_b                    12.2780
_cell_length_c                    72.1045
_cell_angle_alpha                 90.0000
_cell_angle_beta                  107.1337
_cell_angle_gamma                 90.0000
loop_
_atom_site_label
_atom_site_type_symbol
_atom_site_fract_x
_atom_site_fract_y
_atom_site_fract_z
_atom_site_U_iso_or_equiv
_atom_site_adp_type
_atom_site_occupancy
C1     C     0.09597   0.35576   0.95725   0.00000  Uiso   1.00
C2     C     0.15353   0.39047   0.95001   0.00000  Uiso   1.00
C3     C     0.18497   0.32561   0.93970   0.00000  Uiso   1.00
C4     C     0.23661   0.37246   0.93440   0.00000  Uiso   1.00
C5     C     0.32305   0.40995   0.92242   0.00000  Uiso   1.00
C6     C     0.11802   0.37546   0.97910   0.00000  Uiso   1.00
C7     C     0.11959   0.29798   0.99325   0.00000  Uiso   1.00
C8     C     0.14134   0.33220   0.01244   0.00000  Uiso   1.00
C9     C     0.17260   0.34639   0.04563   0.00000  Uiso   1.00
C10    C     0.04092   0.43740   0.94877   0.00000  Uiso   1.00
C11    C     0.97765   0.41199   0.93740   0.00000  Uiso   1.00
C12    C     0.93447   0.49836   0.93105   0.00000  Uiso   1.00
C13    C     0.34602   0.10872   0.91714   0.00000  Uiso   1.00
C14    C     0.13180   0.55430   0.96618   0.00000  Uiso   1.00
C15    C     0.17299   0.49832   0.95486   0.00000  Uiso   1.00
C16    C     0.22460   0.54528   0.94958   0.00000  Uiso   1.00
C17    C     0.25611   0.48050   0.93925   0.00000  Uiso   1.00
C18    C     0.13748   0.48330   0.98395   0.00000  Uiso   1.00
C19    C     0.15923   0.51765   0.00313   0.00000  Uiso   1.00
C20    C     0.16083   0.44024   0.01730   0.00000  Uiso   1.00
C21    C     0.06038   0.54524   0.95362   0.00000  Uiso   1.00
C22    C     0.01729   0.63166   0.94728   0.00000  Uiso   1.00
C23    C     0.95397   0.60640   0.93591   0.00000  Uiso   1.00
H24    H     0.08083   0.27180   0.95348   0.00000  Uiso   1.00
H25    H     0.16990   0.24215   0.93595   0.00000  Uiso   1.00
H26    H     0.10452   0.21453   0.98949   0.00000  Uiso   1.00
H27    H     0.96261   0.32853   0.93365   0.00000  Uiso   1.00
H28    H     0.27725   0.25684   0.91865   0.00000  Uiso   1.00
H29    H     0.13938   0.19860   0.03155   0.00000  Uiso   1.00
H30    H     0.34012   0.93898   0.91381   0.00000  Uiso   1.00
H31    H     0.14695   0.63827   0.96996   0.00000  Uiso   1.00
H32    H     0.23965   0.62874   0.95333   0.00000  Uiso   1.00
H33    H     0.17428   0.60111   0.00688   0.00000  Uiso   1.00
H34    H     0.03236   0.71510   0.95104   0.00000  Uiso   1.00
H35    H     0.33387   0.57060   0.93277   0.00000  Uiso   1.00
H36    H     0.19599   0.51236   0.04566   0.00000  Uiso   1.00
H37    H     0.39674   0.25274   0.92792   0.00000  Uiso   1.00
O38    O     0.36536   0.40082   0.91448   0.00000  Uiso   1.00
O39    O     0.18447   0.32442   0.06260   0.00000  Uiso   1.00
O40    O     0.29185   0.13980   0.90812   0.00000  Uiso   1.00
N41    N     0.27784   0.33200   0.92425   0.00000  Uiso   1.00
N42    N     0.14895   0.27754   0.02981   0.00000  Uiso   1.00
N43    N     0.36917   0.00228   0.91973   0.00000  Uiso   1.00
N44    N     0.30831   0.50083   0.93185   0.00000  Uiso   1.00
N45    N     0.17942   0.44637   0.03740   0.00000  Uiso   1.00
N46    N     0.39963   0.17111   0.92733   0.00000  Uiso   1.00
C47    C     0.87776   0.54547   0.62357   0.00000  Uiso   1.00
C48    C     0.81902   0.62211   0.61661   0.00000  Uiso   1.00
C49    C     0.81708   0.71605   0.60575   0.00000  Uiso   1.00
C50    C     0.75874   0.77505   0.60083   0.00000  Uiso   1.00
C51    C     0.67581   0.89922   0.58915   0.00000  Uiso   1.00
C52    C     0.89273   0.53860   0.64557   0.00000  Uiso   1.00
C53    C     0.95276   0.56232   0.65905   0.00000  Uiso   1.00
C54    C     0.95646   0.55101   0.67851   0.00000  Uiso   1.00
C55    C     0.98798   0.54546   0.71178   0.00000  Uiso   1.00
C56    C     0.85290   0.43303   0.61579   0.00000  Uiso   1.00
C57    C     0.87946   0.36796   0.60425   0.00000  Uiso   1.00
C58    C     0.84964   0.26775   0.59863   0.00000  Uiso   1.00
C59    C     0.81932   0.09829   0.58568   0.00000  Uiso   1.00
C60    C     0.77759   0.48320   0.63414   0.00000  Uiso   1.00
C61    C     0.76461   0.58828   0.62235   0.00000  Uiso   1.00
C62    C     0.70625   0.64715   0.61744   0.00000  Uiso   1.00
C63    C     0.70423   0.74116   0.60658   0.00000  Uiso   1.00
C64    C     0.83832   0.50478   0.65130   0.00000  Uiso   1.00
C65    C     0.84193   0.49342   0.67074   0.00000  Uiso   1.00
C66    C     0.90196   0.51712   0.68425   0.00000  Uiso   1.00
C67    C     0.79849   0.39920   0.62153   0.00000  Uiso   1.00
C68    C     0.76863   0.29907   0.61593   0.00000  Uiso   1.00
C69    C     0.79513   0.23387   0.60438   0.00000  Uiso   1.00
H70    H     0.92013   0.57180   0.61911   0.00000  Uiso   1.00
H71    H     0.85920   0.74220   0.60132   0.00000  Uiso   1.00
H72    H     0.99486   0.58848   0.65461   0.00000  Uiso   1.00
H73    H     0.92156   0.39417   0.59981   0.00000  Uiso   1.00
H74    H     0.76767   0.91623   0.58413   0.00000  Uiso   1.00
H75    H     0.05372   0.59207   0.69649   0.00000  Uiso   1.00
H76    H     0.89916   0.18230   0.58094   0.00000  Uiso   1.00
H77    H     0.73523   0.45686   0.63861   0.00000  Uiso   1.00
H78    H     0.66416   0.62096   0.62188   0.00000  Uiso   1.00
H79    H     0.79982   0.46724   0.67518   0.00000  Uiso   1.00
H80    H     0.72652   0.27292   0.62038   0.00000  Uiso   1.00
H81    H     0.60937   0.81782   0.60082   0.00000  Uiso   1.00
H82    H     0.89542   0.49366   0.71319   0.00000  Uiso   1.00
H83    H     0.74086   0.08390   0.59763   0.00000  Uiso   1.00
O84    O     0.64511   0.97707   0.58113   0.00000  Uiso   1.00
O85    O     0.02040   0.55176   0.72855   0.00000  Uiso   1.00
O86    O     0.81762   0.01417   0.57694   0.00000  Uiso   1.00
N87    N     0.74016   0.87054   0.59035   0.00000  Uiso   1.00
N88    N     0.00760   0.56748   0.69541   0.00000  Uiso   1.00
N89    N     0.86311   0.18438   0.58737   0.00000  Uiso   1.00
N90    N     0.65498   0.81759   0.59933   0.00000  Uiso   1.00
N91    N     0.92242   0.51453   0.70439   0.00000  Uiso   1.00
N92    N     0.77793   0.13143   0.59636   0.00000  Uiso   1.00
C93    C     0.39565   0.63772   0.28995   0.00000  Uiso   1.00
C94    C     0.37573   0.52158   0.28326   0.00000  Uiso   1.00
C95    C     0.31321   0.48813   0.27252   0.00000  Uiso   1.00
C96    C     0.30502   0.37831   0.26784   0.00000  Uiso   1.00
C97    C     0.26610   0.20916   0.25656   0.00000  Uiso   1.00
C98    C     0.42479   0.63201   0.31195   0.00000  Uiso   1.00
C99    C     0.40351   0.69142   0.32535   0.00000  Uiso   1.00
C100   C     0.43663   0.67458   0.34482   0.00000  Uiso   1.00
C101   C     0.47390   0.67694   0.37809   0.00000  Uiso   1.00
C102   C     0.45265   0.66668   0.28204   0.00000  Uiso   1.00
C103   C     0.45482   0.75526   0.27029   0.00000  Uiso   1.00
C104   C     0.51140   0.76762   0.26459   0.00000  Uiso   1.00
C105   C     0.59194   0.82381   0.25141   0.00000  Uiso   1.00
C106   C     0.49229   0.50217   0.30073   0.00000  Uiso   1.00
C107   C     0.42822   0.44795   0.28911   0.00000  Uiso   1.00
C108   C     0.42013   0.33816   0.28444   0.00000  Uiso   1.00
C109   C     0.35760   0.30455   0.27370   0.00000  Uiso   1.00
C110   C     0.47727   0.55839   0.31781   0.00000  Uiso   1.00
C111   C     0.51043   0.54145   0.33727   0.00000  Uiso   1.00
C112   C     0.48921   0.60082   0.35069   0.00000  Uiso   1.00
C113   C     0.50514   0.59305   0.28789   0.00000  Uiso   1.00
C114   C     0.56173   0.60529   0.28221   0.00000  Uiso   1.00
C115   C     0.56399   0.69387   0.27045   0.00000  Uiso   1.00
H116   H     0.35479   0.69504   0.28540   0.00000  Uiso   1.00
H117   H     0.27260   0.54513   0.26800   0.00000  Uiso   1.00
H118   H     0.36290   0.74840   0.32081   0.00000  Uiso   1.00
H119   H     0.41419   0.81222   0.26576   0.00000  Uiso   1.00
H120   H     0.70462   0.84645   0.25129   0.00000  Uiso   1.00
H121   H     0.39503   0.77508   0.36265   0.00000  Uiso   1.00
H122   H     0.50320   0.90967   0.24657   0.00000  Uiso   1.00
H123   H     0.53315   0.44485   0.30529   0.00000  Uiso   1.00
H124   H     0.46075   0.28120   0.28897   0.00000  Uiso   1.00
H125   H     0.55105   0.48448   0.34179   0.00000  Uiso   1.00
H126   H     0.60234   0.54830   0.28674   0.00000  Uiso   1.00
H127   H     0.35734   0.13223   0.26832   0.00000  Uiso   1.00
H128   H     0.54775   0.56088   0.37968   0.00000  Uiso   1.00
H129   H     0.65591   0.69545   0.26360   0.00000  Uiso   1.00
O130   O     0.73013   0.63619   0.24872   0.00000  Uiso   1.00
O131   O     0.47995   0.69857   0.39482   0.00000  Uiso   1.00
O132   O     0.62186   0.87514   0.24253   0.00000  Uiso   1.00
N133   N     0.75050   0.81849   0.25753   0.00000  Uiso   1.00
N134   N     0.42852   0.71923   0.36165   0.00000  Uiso   1.00
N135   N     0.52965   0.84507   0.25313   0.00000  Uiso   1.00
N136   N     0.33268   0.20322   0.26669   0.00000  Uiso   1.00
N137   N     0.51069   0.60396   0.37081   0.00000  Uiso   1.00
N138   N     0.61182   0.72981   0.26229   0.00000  Uiso   1.00
C139   C     0.81844   0.17538   0.45724   0.00000  Uiso   1.00
C140   C     0.74641   0.14061   0.45000   0.00000  Uiso   1.00
C141   C     0.69432   0.20541   0.43968   0.00000  Uiso   1.00
C142   C     0.63209   0.15852   0.43439   0.00000  Uiso   1.00
C143   C     0.52171   0.12095   0.42243   0.00000  Uiso   1.00
C144   C     0.84012   0.15578   0.47909   0.00000  Uiso   1.00
C145   C     0.86683   0.23333   0.49322   0.00000  Uiso   1.00
C146   C     0.88348   0.19919   0.51242   0.00000  Uiso   1.00
C147   C     0.91863   0.18514   0.54561   0.00000  Uiso   1.00
C148   C     0.85653   0.09372   0.44876   0.00000  Uiso   1.00
C149   C     0.89707   0.11909   0.43739   0.00000  Uiso   1.00
C150   C     0.92756   0.03271   0.43105   0.00000  Uiso   1.00
C151   C     0.48820   0.42232   0.41715   0.00000  Uiso   1.00
C152   C     0.80054   0.97687   0.46620   0.00000  Uiso   1.00
C153   C     0.73669   0.03279   0.45487   0.00000  Uiso   1.00
C154   C     0.67451   0.98578   0.44960   0.00000  Uiso   1.00
C155   C     0.62234   0.05050   0.43927   0.00000  Uiso   1.00
C156   C     0.83039   0.04795   0.48396   0.00000  Uiso   1.00
C157   C     0.84701   0.01369   0.50314   0.00000  Uiso   1.00
C158   C     0.87374   0.09117   0.51729   0.00000  Uiso   1.00
C159   C     0.84681   0.98589   0.45362   0.00000  Uiso   1.00
C160   C     0.87725   0.89946   0.44730   0.00000  Uiso   1.00
C161   C     0.91782   0.92469   0.43593   0.00000  Uiso   1.00
H162   H     0.82602   0.25933   0.45345   0.00000  Uiso   1.00
H163   H     0.70187   0.28886   0.43592   0.00000  Uiso   1.00
H164   H     0.87435   0.31676   0.48945   0.00000  Uiso   1.00
H165   H     0.90458   0.20254   0.43363   0.00000  Uiso   1.00
H166   H     0.55994   0.27405   0.41864   0.00000  Uiso   1.00
H167   H     0.92364   0.33288   0.53151   0.00000  Uiso   1.00
H168   H     0.48739   0.59204   0.41379   0.00000  Uiso   1.00
H169   H     0.79297   0.89292   0.46999   0.00000  Uiso   1.00
H170   H     0.66700   0.90233   0.45336   0.00000  Uiso   1.00
H171   H     0.83948   0.93024   0.50690   0.00000  Uiso   1.00
H172   H     0.86971   0.81603   0.45107   0.00000  Uiso   1.00
H173   H     0.53164   0.96034   0.43280   0.00000  Uiso   1.00
H174   H     0.89535   0.01917   0.54567   0.00000  Uiso   1.00
H175   H     0.45909   0.27832   0.42795   0.00000  Uiso   1.00
O176   O     0.46352   0.13002   0.41449   0.00000  Uiso   1.00
O177   O     0.94070   0.20719   0.56257   0.00000  Uiso   1.00
O178   O     0.52433   0.39121   0.40813   0.00000  Uiso   1.00
N179   N     0.57056   0.19892   0.42425   0.00000  Uiso   1.00
N180   N     0.91060   0.25393   0.52978   0.00000  Uiso   1.00
N181   N     0.47021   0.52876   0.41973   0.00000  Uiso   1.00
N182   N     0.55534   0.03012   0.43187   0.00000  Uiso   1.00
N183   N     0.89537   0.08512   0.53740   0.00000  Uiso   1.00
N184   N     0.45499   0.35995   0.42735   0.00000  Uiso   1.00
C185   C     0.18437   0.89327   0.78994   0.00000  Uiso   1.00
C186   C     0.19087   0.00944   0.78325   0.00000  Uiso   1.00
C187   C     0.23189   0.04294   0.77251   0.00000  Uiso   1.00
C188   C     0.23071   0.15277   0.76784   0.00000  Uiso   1.00
C189   C     0.24704   0.32197   0.75657   0.00000  Uiso   1.00
C190   C     0.19927   0.89890   0.81194   0.00000  Uiso   1.00
C191   C     0.24735   0.83946   0.82532   0.00000  Uiso   1.00
C192   C     0.25323   0.85624   0.84480   0.00000  Uiso   1.00
C193   C     0.28255   0.85377   0.87807   0.00000  Uiso   1.00
C194   C     0.11153   0.86431   0.78204   0.00000  Uiso   1.00
C195   C     0.08584   0.77576   0.77028   0.00000  Uiso   1.00
C196   C     0.01786   0.76340   0.76458   0.00000  Uiso   1.00
C197   C     0.91097   0.70722   0.75142   0.00000  Uiso   1.00
C198   C     0.10931   0.02875   0.80074   0.00000  Uiso   1.00
C199   C     0.15010   0.08303   0.78912   0.00000  Uiso   1.00
C200   C     0.14886   0.19284   0.78446   0.00000  Uiso   1.00
C201   C     0.18987   0.22650   0.77372   0.00000  Uiso   1.00
C202   C     0.15850   0.97249   0.81781   0.00000  Uiso   1.00
C203   C     0.16431   0.98936   0.83727   0.00000  Uiso   1.00
C204   C     0.21239   0.92996   0.85068   0.00000  Uiso   1.00
C205   C     0.07077   0.93790   0.78790   0.00000  Uiso   1.00
C206   C     0.00281   0.92567   0.78223   0.00000  Uiso   1.00
C207   C     0.97702   0.83712   0.77046   0.00000  Uiso   1.00
H208   H     0.21611   0.83597   0.78537   0.00000  Uiso   1.00
H209   H     0.26344   0.98596   0.76797   0.00000  Uiso   1.00
H210   H     0.27888   0.78251   0.82077   0.00000  Uiso   1.00
H211   H     0.11741   0.71883   0.76574   0.00000  Uiso   1.00
H212   H     0.79796   0.68472   0.75128   0.00000  Uiso   1.00
H213   H     0.33051   0.75569   0.86261   0.00000  Uiso   1.00
H214   H     0.99000   0.62140   0.74656   0.00000  Uiso   1.00
H215   H     0.07757   0.08605   0.80531   0.00000  Uiso   1.00
H216   H     0.11730   0.24977   0.78901   0.00000  Uiso   1.00
H217   H     0.13275   0.04631   0.84181   0.00000  Uiso   1.00
H218   H     0.97128   0.98263   0.78677   0.00000  Uiso   1.00
H219   H     0.17935   0.39883   0.76835   0.00000  Uiso   1.00
H220   H     0.21190   0.96980   0.87968   0.00000  Uiso   1.00
H221   H     0.87140   0.83552   0.76363   0.00000  Uiso   1.00
O222   O     0.76731   0.89497   0.74873   0.00000  Uiso   1.00
O223   O     0.31000   0.83209   0.89480   0.00000  Uiso   1.00
O224   O     0.86327   0.65591   0.74254   0.00000  Uiso   1.00
N225   N     0.76458   0.71264   0.75753   0.00000  Uiso   1.00
N226   N     0.29502   0.81154   0.86162   0.00000  Uiso   1.00
N227   N     0.97668   0.68597   0.75312   0.00000  Uiso   1.00
N228   N     0.20076   0.32785   0.76672   0.00000  Uiso   1.00
N229   N     0.23120   0.92675   0.87081   0.00000  Uiso   1.00
N230   N     0.91286   0.80119   0.76231   0.00000  Uiso   1.00
C231   C     0.36932   0.98530   0.12356   0.00000  Uiso   1.00
C232   C     0.41417   0.90869   0.11660   0.00000  Uiso   1.00
C233   C     0.39443   0.81476   0.10574   0.00000  Uiso   1.00
C234   C     0.44296   0.75578   0.10083   0.00000  Uiso   1.00
C235   C     0.50258   0.63165   0.08916   0.00000  Uiso   1.00
C236   C     0.39828   0.99214   0.14555   0.00000  Uiso   1.00
C237   C     0.36518   0.96840   0.15903   0.00000  Uiso   1.00
C238   C     0.40034   0.97969   0.17848   0.00000  Uiso   1.00
C239   C     0.43528   0.98519   0.21176   0.00000  Uiso   1.00
C240   C     0.37863   0.09776   0.11578   0.00000  Uiso   1.00
C241   C     0.32900   0.16283   0.10423   0.00000  Uiso   1.00
C242   C     0.34761   0.26305   0.09863   0.00000  Uiso   1.00
C243   C     0.35204   0.43253   0.08568   0.00000  Uiso   1.00
C244   C     0.49061   0.04760   0.13415   0.00000  Uiso   1.00
C245   C     0.48005   0.94253   0.12236   0.00000  Uiso   1.00
C246   C     0.52863   0.88368   0.11746   0.00000  Uiso   1.00
C247   C     0.50896   0.78968   0.10659   0.00000  Uiso   1.00
C248   C     0.46416   0.02598   0.15131   0.00000  Uiso   1.00
C249   C     0.49938   0.03732   0.17075   0.00000  Uiso   1.00
C250   C     0.46634   0.01359   0.18425   0.00000  Uiso   1.00
C251   C     0.44451   0.13160   0.12154   0.00000  Uiso   1.00
C252   C     0.46320   0.23174   0.11595   0.00000  Uiso   1.00
C253   C     0.41361   0.29695   0.10439   0.00000  Uiso   1.00
H254   H     0.31803   0.95896   0.11908   0.00000  Uiso   1.00
H255   H     0.34344   0.78860   0.10129   0.00000  Uiso   1.00
H256   H     0.31419   0.94222   0.15457   0.00000  Uiso   1.00
H257   H     0.27802   0.13661   0.09978   0.00000  Uiso   1.00
H258   H     0.40066   0.61462   0.08411   0.00000  Uiso   1.00
H259   H     0.33900   0.93858   0.19645   0.00000  Uiso   1.00
H260   H     0.26272   0.34850   0.08092   0.00000  Uiso   1.00
H261   H     0.54191   0.07395   0.13863   0.00000  Uiso   1.00
H262   H     0.57961   0.90989   0.12192   0.00000  Uiso   1.00
H263   H     0.55036   0.06351   0.17519   0.00000  Uiso   1.00
H264   H     0.51419   0.25790   0.12041   0.00000  Uiso   1.00
H265   H     0.59235   0.71306   0.10085   0.00000  Uiso   1.00
H266   H     0.53068   0.03703   0.21319   0.00000  Uiso   1.00
H267   H     0.45440   0.44694   0.09766   0.00000  Uiso   1.00
O268   O     0.51727   0.55382   0.08114   0.00000  Uiso   1.00
O269   O     0.43636   0.97887   0.22852   0.00000  Uiso   1.00
O270   O     0.33628   0.51667   0.07695   0.00000  Uiso   1.00
N271   N     0.44060   0.66031   0.09035   0.00000  Uiso   1.00
N272   N     0.38295   0.96318   0.19537   0.00000  Uiso   1.00
N273   N     0.31163   0.34643   0.08737   0.00000  Uiso   1.00
N274   N     0.54375   0.71328   0.09935   0.00000  Uiso   1.00
N275   N     0.48609   0.01615   0.20438   0.00000  Uiso   1.00
N276   N     0.41478   0.39940   0.09638   0.00000  Uiso   1.00
C277   C     0.59597   0.85576   0.95725   0.00000  Uiso   1.00
C278   C     0.65353   0.89047   0.95001   0.00000  Uiso   1.00
C279   C     0.68497   0.82561   0.93970   0.00000  Uiso   1.00
C280   C     0.73661   0.87246   0.93440   0.00000  Uiso   1.00
C281   C     0.82305   0.90995   0.92242   0.00000  Uiso   1.00
C282   C     0.61802   0.87546   0.97910   0.00000  Uiso   1.00
C283   C     0.61959   0.79798   0.99325   0.00000  Uiso   1.00
C284   C     0.64134   0.83220   0.01244   0.00000  Uiso   1.00
C285   C     0.67260   0.84639   0.04563   0.00000  Uiso   1.00
C286   C     0.54092   0.93740   0.94877   0.00000  Uiso   1.00
C287   C     0.47765   0.91199   0.93740   0.00000  Uiso   1.00
C288   C     0.43447   0.99836   0.93105   0.00000  Uiso   1.00
C289   C     0.84602   0.60872   0.91714   0.00000  Uiso   1.00
C290   C     0.63180   0.05430   0.96618   0.00000  Uiso   1.00
C291   C     0.67299   0.99832   0.95486   0.00000  Uiso   1.00
C292   C     0.72460   0.04528   0.94958   0.00000  Uiso   1.00
C293   C     0.75611   0.98050   0.93925   0.00000  Uiso   1.00
C294   C     0.63748   0.98330   0.98395   0.00000  Uiso   1.00
C295   C     0.65923   0.01765   0.00313   0.00000  Uiso   1.00
C296   C     0.66083   0.94024   0.01730   0.00000  Uiso   1.00
C297   C     0.56038   0.04524   0.95362   0.00000  Uiso   1.00
C298   C     0.51729   0.13166   0.94728   0.00000  Uiso   1.00
C299   C     0.45397   0.10640   0.93591   0.00000  Uiso   1.00
H300   H     0.58083   0.77180   0.95348   0.00000  Uiso   1.00
H301   H     0.66990   0.74215   0.93595   0.00000  Uiso   1.00
H302   H     0.60452   0.71453   0.98949   0.00000  Uiso   1.00
H303   H     0.46261   0.82853   0.93365   0.00000  Uiso   1.00
H304   H     0.77725   0.75684   0.91865   0.00000  Uiso   1.00
H305   H     0.63938   0.69860   0.03155   0.00000  Uiso   1.00
H306   H     0.84012   0.43898   0.91381   0.00000  Uiso   1.00
H307   H     0.64695   0.13827   0.96996   0.00000  Uiso   1.00
H308   H     0.73965   0.12874   0.95333   0.00000  Uiso   1.00
H309   H     0.67428   0.10111   0.00688   0.00000  Uiso   1.00
H310   H     0.53236   0.21510   0.95104   0.00000  Uiso   1.00
H311   H     0.83387   0.07060   0.93277   0.00000  Uiso   1.00
H312   H     0.69599   0.01236   0.04566   0.00000  Uiso   1.00
H313   H     0.89674   0.75274   0.92792   0.00000  Uiso   1.00
O314   O     0.86536   0.90082   0.91448   0.00000  Uiso   1.00
O315   O     0.68447   0.82442   0.06260   0.00000  Uiso   1.00
O316   O     0.79185   0.63980   0.90812   0.00000  Uiso   1.00
N317   N     0.77784   0.83200   0.92425   0.00000  Uiso   1.00
N318   N     0.64895   0.77754   0.02981   0.00000  Uiso   1.00
N319   N     0.86917   0.50228   0.91973   0.00000  Uiso   1.00
N320   N     0.80831   0.00083   0.93185   0.00000  Uiso   1.00
N321   N     0.67942   0.94637   0.03740   0.00000  Uiso   1.00
N322   N     0.89963   0.67111   0.92733   0.00000  Uiso   1.00
C323   C     0.37776   0.04547   0.62357   0.00000  Uiso   1.00
C324   C     0.31902   0.12211   0.61661   0.00000  Uiso   1.00
C325   C     0.31708   0.21605   0.60575   0.00000  Uiso   1.00
C326   C     0.25874   0.27505   0.60083   0.00000  Uiso   1.00
C327   C     0.17581   0.39922   0.58915   0.00000  Uiso   1.00
C328   C     0.39273   0.03860   0.64557   0.00000  Uiso   1.00
C329   C     0.45276   0.06232   0.65905   0.00000  Uiso   1.00
C330   C     0.45646   0.05101   0.67851   0.00000  Uiso   1.00
C331   C     0.48798   0.04546   0.71178   0.00000  Uiso   1.00
C332   C     0.35290   0.93303   0.61579   0.00000  Uiso   1.00
C333   C     0.37946   0.86796   0.60425   0.00000  Uiso   1.00
C334   C     0.34964   0.76775   0.59863   0.00000  Uiso   1.00
C335   C     0.31932   0.59829   0.58568   0.00000  Uiso   1.00
C336   C     0.27759   0.98320   0.63414   0.00000  Uiso   1.00
C337   C     0.26461   0.08828   0.62235   0.00000  Uiso   1.00
C338   C     0.20625   0.14715   0.61744   0.00000  Uiso   1.00
C339   C     0.20423   0.24116   0.60658   0.00000  Uiso   1.00
C340   C     0.33832   0.00478   0.65130   0.00000  Uiso   1.00
C341   C     0.34193   0.99342   0.67074   0.00000  Uiso   1.00
C342   C     0.40196   0.01712   0.68425   0.00000  Uiso   1.00
C343   C     0.29849   0.89920   0.62153   0.00000  Uiso   1.00
C344   C     0.26863   0.79907   0.61593   0.00000  Uiso   1.00
C345   C     0.29513   0.73387   0.60438   0.00000  Uiso   1.00
H346   H     0.42013   0.07180   0.61911   0.00000  Uiso   1.00
H347   H     0.35920   0.24220   0.60132   0.00000  Uiso   1.00
H348   H     0.49486   0.08848   0.65461   0.00000  Uiso   1.00
H349   H     0.42156   0.89417   0.59981   0.00000  Uiso   1.00
H350   H     0.26767   0.41623   0.58413   0.00000  Uiso   1.00
H351   H     0.55372   0.09207   0.69649   0.00000  Uiso   1.00
H352   H     0.39916   0.68230   0.58094   0.00000  Uiso   1.00
H353   H     0.23523   0.95686   0.63861   0.00000  Uiso   1.00
H354   H     0.16416   0.12096   0.62188   0.00000  Uiso   1.00
H355   H     0.29982   0.96724   0.67518   0.00000  Uiso   1.00
H356   H     0.22652   0.77292   0.62038   0.00000  Uiso   1.00
H357   H     0.10937   0.31782   0.60082   0.00000  Uiso   1.00
H358   H     0.39542   0.99366   0.71319   0.00000  Uiso   1.00
H359   H     0.24086   0.58390   0.59763   0.00000  Uiso   1.00
O360   O     0.14511   0.47707   0.58113   0.00000  Uiso   1.00
O361   O     0.52040   0.05176   0.72855   0.00000  Uiso   1.00
O362   O     0.31762   0.51417   0.57694   0.00000  Uiso   1.00
N363   N     0.24016   0.37054   0.59035   0.00000  Uiso   1.00
N364   N     0.50760   0.06748   0.69541   0.00000  Uiso   1.00
N365   N     0.36311   0.68438   0.58737   0.00000  Uiso   1.00
N366   N     0.15498   0.31759   0.59933   0.00000  Uiso   1.00
N367   N     0.42242   0.01453   0.70439   0.00000  Uiso   1.00
N368   N     0.27793   0.63143   0.59636   0.00000  Uiso   1.00
C369   C     0.89565   0.13772   0.28995   0.00000  Uiso   1.00
C370   C     0.87573   0.02158   0.28326   0.00000  Uiso   1.00
C371   C     0.81321   0.98813   0.27252   0.00000  Uiso   1.00
C372   C     0.80502   0.87831   0.26784   0.00000  Uiso   1.00
C373   C     0.76610   0.70916   0.25656   0.00000  Uiso   1.00
C374   C     0.92479   0.13201   0.31195   0.00000  Uiso   1.00
C375   C     0.90351   0.19142   0.32535   0.00000  Uiso   1.00
C376   C     0.93663   0.17458   0.34482   0.00000  Uiso   1.00
C377   C     0.97390   0.17694   0.37809   0.00000  Uiso   1.00
C378   C     0.95265   0.16668   0.28204   0.00000  Uiso   1.00
C379   C     0.95482   0.25526   0.27029   0.00000  Uiso   1.00
C380   C     0.01140   0.26762   0.26459   0.00000  Uiso   1.00
C381   C     0.09194   0.32381   0.25141   0.00000  Uiso   1.00
C382   C     0.99229   0.00217   0.30073   0.00000  Uiso   1.00
C383   C     0.92822   0.94795   0.28911   0.00000  Uiso   1.00
C384   C     0.92013   0.83816   0.28444   0.00000  Uiso   1.00
C385   C     0.85760   0.80455   0.27370   0.00000  Uiso   1.00
C386   C     0.97727   0.05839   0.31781   0.00000  Uiso   1.00
C387   C     0.01043   0.04145   0.33727   0.00000  Uiso   1.00
C388   C     0.98921   0.10082   0.35069   0.00000  Uiso   1.00
C389   C     0.00514   0.09305   0.28789   0.00000  Uiso   1.00
C390   C     0.06173   0.10529   0.28221   0.00000  Uiso   1.00
C391   C     0.06399   0.19387   0.27045   0.00000  Uiso   1.00
H392   H     0.85479   0.19504   0.28540   0.00000  Uiso   1.00
H393   H     0.77260   0.04513   0.26800   0.00000  Uiso   1.00
H394   H     0.86290   0.24840   0.32081   0.00000  Uiso   1.00
H395   H     0.91419   0.31222   0.26576   0.00000  Uiso   1.00
H396   H     0.20462   0.34645   0.25129   0.00000  Uiso   1.00
H397   H     0.89503   0.27508   0.36265   0.00000  Uiso   1.00
H398   H     0.00320   0.40967   0.24657   0.00000  Uiso   1.00
H399   H     0.03315   0.94485   0.30529   0.00000  Uiso   1.00
H400   H     0.96075   0.78120   0.28897   0.00000  Uiso   1.00
H401   H     0.05105   0.98448   0.34179   0.00000  Uiso   1.00
H402   H     0.10234   0.04830   0.28674   0.00000  Uiso   1.00
H403   H     0.85734   0.63223   0.26832   0.00000  Uiso   1.00
H404   H     0.04775   0.06088   0.37968   0.00000  Uiso   1.00
H405   H     0.15591   0.19545   0.26360   0.00000  Uiso   1.00
O406   O     0.23013   0.13619   0.24872   0.00000  Uiso   1.00
O407   O     0.97995   0.19857   0.39482   0.00000  Uiso   1.00
O408   O     0.12186   0.37514   0.24253   0.00000  Uiso   1.00
N409   N     0.25050   0.31849   0.25753   0.00000  Uiso   1.00
N410   N     0.92852   0.21923   0.36165   0.00000  Uiso   1.00
N411   N     0.02965   0.34507   0.25313   0.00000  Uiso   1.00
N412   N     0.83268   0.70322   0.26669   0.00000  Uiso   1.00
N413   N     0.01069   0.10396   0.37081   0.00000  Uiso   1.00
N414   N     0.11182   0.22981   0.26229   0.00000  Uiso   1.00
C415   C     0.31844   0.67538   0.45724   0.00000  Uiso   1.00
C416   C     0.24641   0.64061   0.45000   0.00000  Uiso   1.00
C417   C     0.19432   0.70541   0.43968   0.00000  Uiso   1.00
C418   C     0.13209   0.65852   0.43439   0.00000  Uiso   1.00
C419   C     0.02171   0.62095   0.42243   0.00000  Uiso   1.00
C420   C     0.34012   0.65578   0.47909   0.00000  Uiso   1.00
C421   C     0.36683   0.73333   0.49322   0.00000  Uiso   1.00
C422   C     0.38348   0.69919   0.51242   0.00000  Uiso   1.00
C423   C     0.41863   0.68514   0.54561   0.00000  Uiso   1.00
C424   C     0.35653   0.59372   0.44876   0.00000  Uiso   1.00
C425   C     0.39707   0.61909   0.43739   0.00000  Uiso   1.00
C426   C     0.42756   0.53271   0.43105   0.00000  Uiso   1.00
C427   C     0.98820   0.92232   0.41715   0.00000  Uiso   1.00
C428   C     0.30054   0.47687   0.46620   0.00000  Uiso   1.00
C429   C     0.23669   0.53279   0.45487   0.00000  Uiso   1.00
C430   C     0.17451   0.48578   0.44960   0.00000  Uiso   1.00
C431   C     0.12234   0.55050   0.43927   0.00000  Uiso   1.00
C432   C     0.33039   0.54795   0.48396   0.00000  Uiso   1.00
C433   C     0.34701   0.51369   0.50314   0.00000  Uiso   1.00
C434   C     0.37374   0.59117   0.51729   0.00000  Uiso   1.00
C435   C     0.34681   0.48589   0.45362   0.00000  Uiso   1.00
C436   C     0.37725   0.39946   0.44730   0.00000  Uiso   1.00
C437   C     0.41782   0.42469   0.43593   0.00000  Uiso   1.00
H438   H     0.32602   0.75933   0.45345   0.00000  Uiso   1.00
H439   H     0.20187   0.78886   0.43592   0.00000  Uiso   1.00
H440   H     0.37435   0.81676   0.48945   0.00000  Uiso   1.00
H441   H     0.40458   0.70254   0.43363   0.00000  Uiso   1.00
H442   H     0.05994   0.77405   0.41864   0.00000  Uiso   1.00
H443   H     0.42364   0.83288   0.53151   0.00000  Uiso   1.00
H444   H     0.98739   0.09204   0.41379   0.00000  Uiso   1.00
H445   H     0.29297   0.39292   0.46999   0.00000  Uiso   1.00
H446   H     0.16700   0.40233   0.45336   0.00000  Uiso   1.00
H447   H     0.33948   0.43024   0.50690   0.00000  Uiso   1.00
H448   H     0.36971   0.31603   0.45107   0.00000  Uiso   1.00
H449   H     0.03164   0.46034   0.43280   0.00000  Uiso   1.00
H450   H     0.39535   0.51917   0.54567   0.00000  Uiso   1.00
H451   H     0.95909   0.77832   0.42795   0.00000  Uiso   1.00
O452   O     0.96352   0.63002   0.41449   0.00000  Uiso   1.00
O453   O     0.44070   0.70719   0.56257   0.00000  Uiso   1.00
O454   O     0.02433   0.89121   0.40813   0.00000  Uiso   1.00
N455   N     0.07056   0.69892   0.42425   0.00000  Uiso   1.00
N456   N     0.41060   0.75393   0.52978   0.00000  Uiso   1.00
N457   N     0.97021   0.02876   0.41973   0.00000  Uiso   1.00
N458   N     0.05534   0.53012   0.43187   0.00000  Uiso   1.00
N459   N     0.39537   0.58512   0.53740   0.00000  Uiso   1.00
N460   N     0.95499   0.85995   0.42735   0.00000  Uiso   1.00
C461   C     0.68437   0.39327   0.78994   0.00000  Uiso   1.00
C462   C     0.69087   0.50944   0.78325   0.00000  Uiso   1.00
C463   C     0.73189   0.54294   0.77251   0.00000  Uiso   1.00
C464   C     0.73071   0.65277   0.76784   0.00000  Uiso   1.00
C465   C     0.74704   0.82197   0.75657   0.00000  Uiso   1.00
C466   C     0.69927   0.39890   0.81194   0.00000  Uiso   1.00
C467   C     0.74735   0.33946   0.82532   0.00000  Uiso   1.00
C468   C     0.75323   0.35624   0.84480   0.00000  Uiso   1.00
C469   C     0.78255   0.35377   0.87807   0.00000  Uiso   1.00
C470   C     0.61153   0.36431   0.78204   0.00000  Uiso   1.00
C471   C     0.58584   0.27576   0.77028   0.00000  Uiso   1.00
C472   C     0.51786   0.26340   0.76458   0.00000  Uiso   1.00
C473   C     0.41097   0.20722   0.75142   0.00000  Uiso   1.00
C474   C     0.60931   0.52875   0.80074   0.00000  Uiso   1.00
C475   C     0.65010   0.58303   0.78912   0.00000  Uiso   1.00
C476   C     0.64886   0.69284   0.78446   0.00000  Uiso   1.00
C477   C     0.68987   0.72650   0.77372   0.00000  Uiso   1.00
C478   C     0.65850   0.47249   0.81781   0.00000  Uiso   1.00
C479   C     0.66431   0.48936   0.83727   0.00000  Uiso   1.00
C480   C     0.71239   0.42996   0.85068   0.00000  Uiso   1.00
C481   C     0.57077   0.43790   0.78790   0.00000  Uiso   1.00
C482   C     0.50281   0.42567   0.78223   0.00000  Uiso   1.00
C483   C     0.47702   0.33712   0.77046   0.00000  Uiso   1.00
H484   H     0.71611   0.33597   0.78537   0.00000  Uiso   1.00
H485   H     0.76344   0.48596   0.76797   0.00000  Uiso   1.00
H486   H     0.77888   0.28251   0.82077   0.00000  Uiso   1.00
H487   H     0.61741   0.21883   0.76574   0.00000  Uiso   1.00
H488   H     0.29796   0.18472   0.75128   0.00000  Uiso   1.00
H489   H     0.83051   0.25569   0.86261   0.00000  Uiso   1.00
H490   H     0.49000   0.12140   0.74656   0.00000  Uiso   1.00
H491   H     0.57757   0.58605   0.80531   0.00000  Uiso   1.00
H492   H     0.61730   0.74977   0.78901   0.00000  Uiso   1.00
H493   H     0.63275   0.54631   0.84181   0.00000  Uiso   1.00
H494   H     0.47128   0.48263   0.78677   0.00000  Uiso   1.00
H495   H     0.67935   0.89883   0.76835   0.00000  Uiso   1.00
H496   H     0.71190   0.46980   0.87968   0.00000  Uiso   1.00
H497   H     0.37140   0.33552   0.76363   0.00000  Uiso   1.00
O498   O     0.26731   0.39497   0.74873   0.00000  Uiso   1.00
O499   O     0.81000   0.33209   0.89480   0.00000  Uiso   1.00
O500   O     0.36327   0.15591   0.74254   0.00000  Uiso   1.00
N501   N     0.26458   0.21264   0.75753   0.00000  Uiso   1.00
N502   N     0.79502   0.31154   0.86162   0.00000  Uiso   1.00
N503   N     0.47668   0.18597   0.75312   0.00000  Uiso   1.00
N504   N     0.70076   0.82785   0.76672   0.00000  Uiso   1.00
N505   N     0.73120   0.42675   0.87081   0.00000  Uiso   1.00
N506   N     0.41286   0.30119   0.76231   0.00000  Uiso   1.00
C507   C     0.86932   0.48530   0.12356   0.00000  Uiso   1.00
C508   C     0.91417   0.40869   0.11660   0.00000  Uiso   1.00
C509   C     0.89443   0.31476   0.10574   0.00000  Uiso   1.00
C510   C     0.94296   0.25578   0.10083   0.00000  Uiso   1.00
C511   C     0.00258   0.13165   0.08916   0.00000  Uiso   1.00
C512   C     0.89828   0.49214   0.14555   0.00000  Uiso   1.00
C513   C     0.86518   0.46840   0.15903   0.00000  Uiso   1.00
C514   C     0.90034   0.47969   0.17848   0.00000  Uiso   1.00
C515   C     0.93528   0.48519   0.21176   0.00000  Uiso   1.00
C516   C     0.87863   0.59776   0.11578   0.00000  Uiso   1.00
C517   C     0.82900   0.66283   0.10423   0.00000  Uiso   1.00
C518   C     0.84761   0.76305   0.09863   0.00000  Uiso   1.00
C519   C     0.85204   0.93253   0.08568   0.00000  Uiso   1.00
C520   C     0.99061   0.54760   0.13415   0.00000  Uiso   1.00
C521   C     0.98005   0.44253   0.12236   0.00000  Uiso   1.00
C522   C     0.02863   0.38368   0.11746   0.00000  Uiso   1.00
C523   C     0.00896   0.28968   0.10659   0.00000  Uiso   1.00
C524   C     0.96416   0.52598   0.15131   0.00000  Uiso   1.00
C525   C     0.99938   0.53732   0.17075   0.00000  Uiso   1.00
C526   C     0.96634   0.51359   0.18425   0.00000  Uiso   1.00
C527   C     0.94451   0.63160   0.12154   0.00000  Uiso   1.00
C528   C     0.96320   0.73174   0.11595   0.00000  Uiso   1.00
C529   C     0.91361   0.79695   0.10439   0.00000  Uiso   1.00
H530   H     0.81803   0.45896   0.11908   0.00000  Uiso   1.00
H531   H     0.84344   0.28860   0.10129   0.00000  Uiso   1.00
H532   H     0.81419   0.44222   0.15457   0.00000  Uiso   1.00
H533   H     0.77802   0.63661   0.09978   0.00000  Uiso   1.00
H534   H     0.90066   0.11462   0.08411   0.00000  Uiso   1.00
H535   H     0.83900   0.43858   0.19645   0.00000  Uiso   1.00
H536   H     0.76272   0.84850   0.08092   0.00000  Uiso   1.00
H537   H     0.04191   0.57395   0.13863   0.00000  Uiso   1.00
H538   H     0.07961   0.40989   0.12192   0.00000  Uiso   1.00
H539   H     0.05036   0.56351   0.17519   0.00000  Uiso   1.00
H540   H     0.01419   0.75790   0.12041   0.00000  Uiso   1.00
H541   H     0.09235   0.21306   0.10085   0.00000  Uiso   1.00
H542   H     0.03068   0.53703   0.21319   0.00000  Uiso   1.00
H543   H     0.95440   0.94694   0.09766   0.00000  Uiso   1.00
O544   O     0.01727   0.05382   0.08114   0.00000  Uiso   1.00
O545   O     0.93636   0.47887   0.22852   0.00000  Uiso   1.00
O546   O     0.83628   0.01667   0.07695   0.00000  Uiso   1.00
N547   N     0.94060   0.16031   0.09035   0.00000  Uiso   1.00
N548   N     0.88295   0.46318   0.19537   0.00000  Uiso   1.00
N549   N     0.81163   0.84643   0.08737   0.00000  Uiso   1.00
N550   N     0.04375   0.21328   0.09935   0.00000  Uiso   1.00
N551   N     0.98609   0.51615   0.20438   0.00000  Uiso   1.00
N552   N     0.91478   0.89940   0.09638   0.00000  Uiso   1.00
C553   C     0.90403   0.35576   0.04275   0.00000  Uiso   1.00
C554   C     0.84647   0.39047   0.04999   0.00000  Uiso   1.00
C555   C     0.81503   0.32561   0.06030   0.00000  Uiso   1.00
C556   C     0.76339   0.37246   0.06560   0.00000  Uiso   1.00
C557   C     0.67695   0.40995   0.07758   0.00000  Uiso   1.00
C558   C     0.88198   0.37546   0.02090   0.00000  Uiso   1.00
C559   C     0.88041   0.29798   0.00675   0.00000  Uiso   1.00
C560   C     0.85866   0.33220   0.98756   0.00000  Uiso   1.00
C561   C     0.82740   0.34639   0.95437   0.00000  Uiso   1.00
C562   C     0.95908   0.43740   0.05123   0.00000  Uiso   1.00
C563   C     0.02235   0.41199   0.06260   0.00000  Uiso   1.00
C564   C     0.06553   0.49836   0.06895   0.00000  Uiso   1.00
C565   C     0.65398   0.10872   0.08286   0.00000  Uiso   1.00
C566   C     0.86820   0.55430   0.03382   0.00000  Uiso   1.00
C567   C     0.82701   0.49832   0.04514   0.00000  Uiso   1.00
C568   C     0.77540   0.54528   0.05042   0.00000  Uiso   1.00
C569   C     0.74389   0.48050   0.06075   0.00000  Uiso   1.00
C570   C     0.86252   0.48330   0.01605   0.00000  Uiso   1.00
C571   C     0.84077   0.51765   0.99687   0.00000  Uiso   1.00
C572   C     0.83917   0.44024   0.98270   0.00000  Uiso   1.00
C573   C     0.93962   0.54524   0.04638   0.00000  Uiso   1.00
C574   C     0.98271   0.63166   0.05272   0.00000  Uiso   1.00
C575   C     0.04603   0.60640   0.06409   0.00000  Uiso   1.00
H576   H     0.91917   0.27180   0.04652   0.00000  Uiso   1.00
H577   H     0.83010   0.24215   0.06405   0.00000  Uiso   1.00
H578   H     0.89548   0.21453   0.01051   0.00000  Uiso   1.00
H579   H     0.03739   0.32853   0.06635   0.00000  Uiso   1.00
H580   H     0.72275   0.25684   0.08135   0.00000  Uiso   1.00
H581   H     0.86062   0.19860   0.96845   0.00000  Uiso   1.00
H582   H     0.65988   0.93898   0.08619   0.00000  Uiso   1.00
H583   H     0.85305   0.63827   0.03004   0.00000  Uiso   1.00
H584   H     0.76035   0.62874   0.04667   0.00000  Uiso   1.00
H585   H     0.82572   0.60111   0.99312   0.00000  Uiso   1.00
H586   H     0.96764   0.71510   0.04896   0.00000  Uiso   1.00
H587   H     0.66613   0.57060   0.06723   0.00000  Uiso   1.00
H588   H     0.80401   0.51236   0.95434   0.00000  Uiso   1.00
H589   H     0.60326   0.25274   0.07208   0.00000  Uiso   1.00
O590   O     0.63464   0.40082   0.08552   0.00000  Uiso   1.00
O591   O     0.81553   0.32442   0.93740   0.00000  Uiso   1.00
O592   O     0.70815   0.13980   0.09188   0.00000  Uiso   1.00
N593   N     0.72216   0.33200   0.07575   0.00000  Uiso   1.00
N594   N     0.85105   0.27754   0.97019   0.00000  Uiso   1.00
N595   N     0.63083   0.00228   0.08027   0.00000  Uiso   1.00
N596   N     0.69169   0.50083   0.06815   0.00000  Uiso   1.00
N597   N     0.82058   0.44637   0.96260   0.00000  Uiso   1.00
N598   N     0.60037   0.17111   0.07267   0.00000  Uiso   1.00
C599   C     0.12224   0.54547   0.37643   0.00000  Uiso   1.00
C600   C     0.18098   0.62211   0.38339   0.00000  Uiso   1.00
C601   C     0.18292   0.71605   0.39425   0.00000  Uiso   1.00
C602   C     0.24126   0.77505   0.39917   0.00000  Uiso   1.00
C603   C     0.32419   0.89922   0.41085   0.00000  Uiso   1.00
C604   C     0.10727   0.53860   0.35443   0.00000  Uiso   1.00
C605   C     0.04724   0.56232   0.34095   0.00000  Uiso   1.00
C606   C     0.04354   0.55101   0.32149   0.00000  Uiso   1.00
C607   C     0.01202   0.54546   0.28822   0.00000  Uiso   1.00
C608   C     0.14710   0.43303   0.38421   0.00000  Uiso   1.00
C609   C     0.12054   0.36796   0.39575   0.00000  Uiso   1.00
C610   C     0.15036   0.26775   0.40137   0.00000  Uiso   1.00
C611   C     0.18068   0.09829   0.41432   0.00000  Uiso   1.00
C612   C     0.22241   0.48320   0.36586   0.00000  Uiso   1.00
C613   C     0.23539   0.58828   0.37765   0.00000  Uiso   1.00
C614   C     0.29375   0.64715   0.38256   0.00000  Uiso   1.00
C615   C     0.29577   0.74116   0.39342   0.00000  Uiso   1.00
C616   C     0.16168   0.50478   0.34870   0.00000  Uiso   1.00
C617   C     0.15807   0.49342   0.32926   0.00000  Uiso   1.00
C618   C     0.09804   0.51712   0.31575   0.00000  Uiso   1.00
C619   C     0.20151   0.39920   0.37847   0.00000  Uiso   1.00
C620   C     0.23137   0.29907   0.38407   0.00000  Uiso   1.00
C621   C     0.20487   0.23387   0.39562   0.00000  Uiso   1.00
H622   H     0.07987   0.57180   0.38089   0.00000  Uiso   1.00
H623   H     0.14080   0.74220   0.39868   0.00000  Uiso   1.00
H624   H     0.00514   0.58848   0.34539   0.00000  Uiso   1.00
H625   H     0.07844   0.39417   0.40019   0.00000  Uiso   1.00
H626   H     0.23233   0.91623   0.41587   0.00000  Uiso   1.00
H627   H     0.94628   0.59207   0.30351   0.00000  Uiso   1.00
H628   H     0.10084   0.18230   0.41906   0.00000  Uiso   1.00
H629   H     0.26477   0.45686   0.36139   0.00000  Uiso   1.00
H630   H     0.33584   0.62096   0.37812   0.00000  Uiso   1.00
H631   H     0.20018   0.46724   0.32482   0.00000  Uiso   1.00
H632   H     0.27348   0.27292   0.37962   0.00000  Uiso   1.00
H633   H     0.39063   0.81782   0.39918   0.00000  Uiso   1.00
H634   H     0.10458   0.49366   0.28681   0.00000  Uiso   1.00
H635   H     0.25914   0.08390   0.40237   0.00000  Uiso   1.00
O636   O     0.35489   0.97707   0.41887   0.00000  Uiso   1.00
O637   O     0.97960   0.55176   0.27145   0.00000  Uiso   1.00
O638   O     0.18238   0.01417   0.42306   0.00000  Uiso   1.00
N639   N     0.25984   0.87054   0.40965   0.00000  Uiso   1.00
N640   N     0.99240   0.56748   0.30459   0.00000  Uiso   1.00
N641   N     0.13689   0.18438   0.41263   0.00000  Uiso   1.00
N642   N     0.34502   0.81759   0.40067   0.00000  Uiso   1.00
N643   N     0.07758   0.51453   0.29561   0.00000  Uiso   1.00
N644   N     0.22207   0.13143   0.40364   0.00000  Uiso   1.00
C645   C     0.60435   0.63772   0.71005   0.00000  Uiso   1.00
C646   C     0.62427   0.52158   0.71674   0.00000  Uiso   1.00
C647   C     0.68679   0.48813   0.72748   0.00000  Uiso   1.00
C648   C     0.69498   0.37831   0.73216   0.00000  Uiso   1.00
C649   C     0.73390   0.20916   0.74344   0.00000  Uiso   1.00
C650   C     0.57521   0.63201   0.68805   0.00000  Uiso   1.00
C651   C     0.59649   0.69142   0.67465   0.00000  Uiso   1.00
C652   C     0.56337   0.67458   0.65518   0.00000  Uiso   1.00
C653   C     0.52610   0.67694   0.62191   0.00000  Uiso   1.00
C654   C     0.54735   0.66668   0.71796   0.00000  Uiso   1.00
C655   C     0.54518   0.75526   0.72971   0.00000  Uiso   1.00
C656   C     0.48860   0.76762   0.73541   0.00000  Uiso   1.00
C657   C     0.40806   0.82381   0.74859   0.00000  Uiso   1.00
C658   C     0.50771   0.50217   0.69927   0.00000  Uiso   1.00
C659   C     0.57178   0.44795   0.71089   0.00000  Uiso   1.00
C660   C     0.57987   0.33816   0.71556   0.00000  Uiso   1.00
C661   C     0.64240   0.30455   0.72630   0.00000  Uiso   1.00
C662   C     0.52273   0.55839   0.68219   0.00000  Uiso   1.00
C663   C     0.48957   0.54145   0.66273   0.00000  Uiso   1.00
C664   C     0.51079   0.60082   0.64931   0.00000  Uiso   1.00
C665   C     0.49486   0.59305   0.71211   0.00000  Uiso   1.00
C666   C     0.43827   0.60529   0.71779   0.00000  Uiso   1.00
C667   C     0.43601   0.69387   0.72955   0.00000  Uiso   1.00
H668   H     0.64521   0.69504   0.71460   0.00000  Uiso   1.00
H669   H     0.72740   0.54513   0.73200   0.00000  Uiso   1.00
H670   H     0.63710   0.74840   0.67919   0.00000  Uiso   1.00
H671   H     0.58581   0.81222   0.73424   0.00000  Uiso   1.00
H672   H     0.29538   0.84645   0.74871   0.00000  Uiso   1.00
H673   H     0.60497   0.77508   0.63735   0.00000  Uiso   1.00
H674   H     0.49680   0.90967   0.75343   0.00000  Uiso   1.00
H675   H     0.46685   0.44485   0.69471   0.00000  Uiso   1.00
H676   H     0.53925   0.28120   0.71103   0.00000  Uiso   1.00
H677   H     0.44895   0.48448   0.65821   0.00000  Uiso   1.00
H678   H     0.39766   0.54830   0.71326   0.00000  Uiso   1.00
H679   H     0.64266   0.13223   0.73168   0.00000  Uiso   1.00
H680   H     0.45225   0.56088   0.62032   0.00000  Uiso   1.00
H681   H     0.34409   0.69545   0.73640   0.00000  Uiso   1.00
O682   O     0.26987   0.63619   0.75128   0.00000  Uiso   1.00
O683   O     0.52005   0.69857   0.60518   0.00000  Uiso   1.00
O684   O     0.37814   0.87514   0.75747   0.00000  Uiso   1.00
N685   N     0.24950   0.81849   0.74247   0.00000  Uiso   1.00
N686   N     0.57148   0.71923   0.63835   0.00000  Uiso   1.00
N687   N     0.47035   0.84507   0.74687   0.00000  Uiso   1.00
N688   N     0.66732   0.20322   0.73331   0.00000  Uiso   1.00
N689   N     0.48931   0.60396   0.62919   0.00000  Uiso   1.00
N690   N     0.38818   0.72981   0.73771   0.00000  Uiso   1.00
C691   C     0.18156   0.17538   0.54276   0.00000  Uiso   1.00
C692   C     0.25359   0.14061   0.55000   0.00000  Uiso   1.00
C693   C     0.30568   0.20541   0.56032   0.00000  Uiso   1.00
C694   C     0.36791   0.15852   0.56561   0.00000  Uiso   1.00
C695   C     0.47829   0.12095   0.57757   0.00000  Uiso   1.00
C696   C     0.15988   0.15578   0.52091   0.00000  Uiso   1.00
C697   C     0.13317   0.23333   0.50678   0.00000  Uiso   1.00
C698   C     0.11652   0.19919   0.48758   0.00000  Uiso   1.00
C699   C     0.08137   0.18514   0.45439   0.00000  Uiso   1.00
C700   C     0.14347   0.09372   0.55124   0.00000  Uiso   1.00
C701   C     0.10293   0.11909   0.56261   0.00000  Uiso   1.00
C702   C     0.07244   0.03271   0.56895   0.00000  Uiso   1.00
C703   C     0.51180   0.42232   0.58285   0.00000  Uiso   1.00
C704   C     0.19946   0.97687   0.53380   0.00000  Uiso   1.00
C705   C     0.26331   0.03279   0.54513   0.00000  Uiso   1.00
C706   C     0.32549   0.98578   0.55040   0.00000  Uiso   1.00
C707   C     0.37766   0.05050   0.56073   0.00000  Uiso   1.00
C708   C     0.16961   0.04795   0.51604   0.00000  Uiso   1.00
C709   C     0.15299   0.01369   0.49686   0.00000  Uiso   1.00
C710   C     0.12626   0.09117   0.48271   0.00000  Uiso   1.00
C711   C     0.15319   0.98589   0.54638   0.00000  Uiso   1.00
C712   C     0.12275   0.89946   0.55270   0.00000  Uiso   1.00
C713   C     0.08218   0.92469   0.56407   0.00000  Uiso   1.00
H714   H     0.17398   0.25933   0.54655   0.00000  Uiso   1.00
H715   H     0.29813   0.28886   0.56408   0.00000  Uiso   1.00
H716   H     0.12565   0.31676   0.51055   0.00000  Uiso   1.00
H717   H     0.09542   0.20254   0.56637   0.00000  Uiso   1.00
H718   H     0.44006   0.27405   0.58136   0.00000  Uiso   1.00
H719   H     0.07636   0.33288   0.46849   0.00000  Uiso   1.00
H720   H     0.51261   0.59204   0.58621   0.00000  Uiso   1.00
H721   H     0.20703   0.89292   0.53001   0.00000  Uiso   1.00
H722   H     0.33300   0.90233   0.54664   0.00000  Uiso   1.00
H723   H     0.16052   0.93024   0.49310   0.00000  Uiso   1.00
H724   H     0.13029   0.81603   0.54893   0.00000  Uiso   1.00
H725   H     0.46836   0.96034   0.56720   0.00000  Uiso   1.00
H726   H     0.10465   0.01917   0.45433   0.00000  Uiso   1.00
H727   H     0.54091   0.27832   0.57205   0.00000  Uiso   1.00
O728   O     0.53648   0.13002   0.58551   0.00000  Uiso   1.00
O729   O     0.05930   0.20719   0.43743   0.00000  Uiso   1.00
O730   O     0.47567   0.39121   0.59187   0.00000  Uiso   1.00
N731   N     0.42944   0.19892   0.57575   0.00000  Uiso   1.00
N732   N     0.08940   0.25393   0.47022   0.00000  Uiso   1.00
N733   N     0.52979   0.52876   0.58027   0.00000  Uiso   1.00
N734   N     0.44466   0.03012   0.56813   0.00000  Uiso   1.00
N735   N     0.10463   0.08512   0.46260   0.00000  Uiso   1.00
N736   N     0.54501   0.35995   0.57265   0.00000  Uiso   1.00
C737   C     0.81563   0.89327   0.21006   0.00000  Uiso   1.00
C738   C     0.80913   0.00944   0.21675   0.00000  Uiso   1.00
C739   C     0.76811   0.04294   0.22749   0.00000  Uiso   1.00
C740   C     0.76929   0.15277   0.23216   0.00000  Uiso   1.00
C741   C     0.75296   0.32197   0.24343   0.00000  Uiso   1.00
C742   C     0.80073   0.89890   0.18806   0.00000  Uiso   1.00
C743   C     0.75265   0.83946   0.17468   0.00000  Uiso   1.00
C744   C     0.74677   0.85624   0.15520   0.00000  Uiso   1.00
C745   C     0.71745   0.85377   0.12193   0.00000  Uiso   1.00
C746   C     0.88847   0.86431   0.21796   0.00000  Uiso   1.00
C747   C     0.91416   0.77576   0.22972   0.00000  Uiso   1.00
C748   C     0.98214   0.76340   0.23542   0.00000  Uiso   1.00
C749   C     0.08903   0.70722   0.24858   0.00000  Uiso   1.00
C750   C     0.89069   0.02875   0.19926   0.00000  Uiso   1.00
C751   C     0.84990   0.08303   0.21088   0.00000  Uiso   1.00
C752   C     0.85114   0.19284   0.21554   0.00000  Uiso   1.00
C753   C     0.81013   0.22650   0.22628   0.00000  Uiso   1.00
C754   C     0.84150   0.97249   0.18219   0.00000  Uiso   1.00
C755   C     0.83569   0.98936   0.16273   0.00000  Uiso   1.00
C756   C     0.78761   0.92996   0.14932   0.00000  Uiso   1.00
C757   C     0.92923   0.93790   0.21210   0.00000  Uiso   1.00
C758   C     0.99719   0.92567   0.21777   0.00000  Uiso   1.00
C759   C     0.02298   0.83712   0.22954   0.00000  Uiso   1.00
H760   H     0.78389   0.83597   0.21463   0.00000  Uiso   1.00
H761   H     0.73656   0.98596   0.23203   0.00000  Uiso   1.00
H762   H     0.72112   0.78251   0.17923   0.00000  Uiso   1.00
H763   H     0.88259   0.71883   0.23426   0.00000  Uiso   1.00
H764   H     0.20204   0.68472   0.24872   0.00000  Uiso   1.00
H765   H     0.66949   0.75569   0.13739   0.00000  Uiso   1.00
H766   H     0.01000   0.62140   0.25344   0.00000  Uiso   1.00
H767   H     0.92243   0.08605   0.19469   0.00000  Uiso   1.00
H768   H     0.88270   0.24977   0.21099   0.00000  Uiso   1.00
H769   H     0.86725   0.04631   0.15819   0.00000  Uiso   1.00
H770   H     0.02872   0.98263   0.21323   0.00000  Uiso   1.00
H771   H     0.82065   0.39883   0.23165   0.00000  Uiso   1.00
H772   H     0.78810   0.96980   0.12032   0.00000  Uiso   1.00
H773   H     0.12860   0.83552   0.23637   0.00000  Uiso   1.00
O774   O     0.23269   0.89497   0.25127   0.00000  Uiso   1.00
O775   O     0.69000   0.83209   0.10520   0.00000  Uiso   1.00
O776   O     0.13673   0.65591   0.25746   0.00000  Uiso   1.00
N777   N     0.23542   0.71264   0.24247   0.00000  Uiso   1.00
N778   N     0.70498   0.81154   0.13838   0.00000  Uiso   1.00
N779   N     0.02332   0.68597   0.24688   0.00000  Uiso   1.00
N780   N     0.79924   0.32785   0.23328   0.00000  Uiso   1.00
N781   N     0.76880   0.92675   0.12919   0.00000  Uiso   1.00
N782   N     0.08714   0.80119   0.23769   0.00000  Uiso   1.00
C783   C     0.63068   0.98530   0.87644   0.00000  Uiso   1.00
C784   C     0.58583   0.90869   0.88340   0.00000  Uiso   1.00
C785   C     0.60557   0.81476   0.89426   0.00000  Uiso   1.00
C786   C     0.55704   0.75578   0.89917   0.00000  Uiso   1.00
C787   C     0.49742   0.63165   0.91084   0.00000  Uiso   1.00
C788   C     0.60172   0.99214   0.85445   0.00000  Uiso   1.00
C789   C     0.63482   0.96840   0.84097   0.00000  Uiso   1.00
C790   C     0.59966   0.97969   0.82152   0.00000  Uiso   1.00
C791   C     0.56472   0.98519   0.78824   0.00000  Uiso   1.00
C792   C     0.62137   0.09776   0.88422   0.00000  Uiso   1.00
C793   C     0.67100   0.16283   0.89577   0.00000  Uiso   1.00
C794   C     0.65239   0.26305   0.90137   0.00000  Uiso   1.00
C795   C     0.64796   0.43253   0.91432   0.00000  Uiso   1.00
C796   C     0.50939   0.04760   0.86585   0.00000  Uiso   1.00
C797   C     0.51995   0.94253   0.87764   0.00000  Uiso   1.00
C798   C     0.47137   0.88368   0.88254   0.00000  Uiso   1.00
C799   C     0.49104   0.78968   0.89341   0.00000  Uiso   1.00
C800   C     0.53584   0.02598   0.84869   0.00000  Uiso   1.00
C801   C     0.50062   0.03732   0.82925   0.00000  Uiso   1.00
C802   C     0.53366   0.01359   0.81575   0.00000  Uiso   1.00
C803   C     0.55549   0.13160   0.87846   0.00000  Uiso   1.00
C804   C     0.53680   0.23174   0.88405   0.00000  Uiso   1.00
C805   C     0.58639   0.29695   0.89561   0.00000  Uiso   1.00
H806   H     0.68197   0.95896   0.88092   0.00000  Uiso   1.00
H807   H     0.65656   0.78860   0.89871   0.00000  Uiso   1.00
H808   H     0.68581   0.94222   0.84543   0.00000  Uiso   1.00
H809   H     0.72198   0.13661   0.90022   0.00000  Uiso   1.00
H810   H     0.59934   0.61462   0.91589   0.00000  Uiso   1.00
H811   H     0.66100   0.93858   0.80355   0.00000  Uiso   1.00
H812   H     0.73728   0.34850   0.91908   0.00000  Uiso   1.00
H813   H     0.45809   0.07395   0.86137   0.00000  Uiso   1.00
H814   H     0.42039   0.90989   0.87808   0.00000  Uiso   1.00
H815   H     0.44964   0.06351   0.82481   0.00000  Uiso   1.00
H816   H     0.48581   0.25790   0.87959   0.00000  Uiso   1.00
H817   H     0.40765   0.71306   0.89915   0.00000  Uiso   1.00
H818   H     0.46932   0.03703   0.78681   0.00000  Uiso   1.00
H819   H     0.54560   0.44694   0.90234   0.00000  Uiso   1.00
O820   O     0.48273   0.55382   0.91886   0.00000  Uiso   1.00
O821   O     0.56364   0.97887   0.77148   0.00000  Uiso   1.00
O822   O     0.66372   0.51667   0.92305   0.00000  Uiso   1.00
N823   N     0.55940   0.66031   0.90965   0.00000  Uiso   1.00
N824   N     0.61705   0.96318   0.80463   0.00000  Uiso   1.00
N825   N     0.68837   0.34643   0.91263   0.00000  Uiso   1.00
N826   N     0.45625   0.71328   0.90065   0.00000  Uiso   1.00
N827   N     0.51391   0.01615   0.79562   0.00000  Uiso   1.00
N828   N     0.58522   0.39940   0.90362   0.00000  Uiso   1.00
C829   C     0.40403   0.85576   0.04275   0.00000  Uiso   1.00
C830   C     0.34647   0.89047   0.04999   0.00000  Uiso   1.00
C831   C     0.31503   0.82561   0.06030   0.00000  Uiso   1.00
C832   C     0.26339   0.87246   0.06560   0.00000  Uiso   1.00
C833   C     0.17695   0.90995   0.07758   0.00000  Uiso   1.00
C834   C     0.38198   0.87546   0.02090   0.00000  Uiso   1.00
C835   C     0.38041   0.79798   0.00675   0.00000  Uiso   1.00
C836   C     0.35866   0.83220   0.98756   0.00000  Uiso   1.00
C837   C     0.32740   0.84639   0.95437   0.00000  Uiso   1.00
C838   C     0.45908   0.93740   0.05123   0.00000  Uiso   1.00
C839   C     0.52235   0.91199   0.06260   0.00000  Uiso   1.00
C840   C     0.56553   0.99836   0.06895   0.00000  Uiso   1.00
C841   C     0.15398   0.60872   0.08286   0.00000  Uiso   1.00
C842   C     0.36820   0.05430   0.03382   0.00000  Uiso   1.00
C843   C     0.32701   0.99832   0.04514   0.00000  Uiso   1.00
C844   C     0.27540   0.04528   0.05042   0.00000  Uiso   1.00
C845   C     0.24389   0.98050   0.06075   0.00000  Uiso   1.00
C846   C     0.36252   0.98330   0.01605   0.00000  Uiso   1.00
C847   C     0.34077   0.01765   0.99687   0.00000  Uiso   1.00
C848   C     0.33917   0.94024   0.98270   0.00000  Uiso   1.00
C849   C     0.43962   0.04524   0.04638   0.00000  Uiso   1.00
C850   C     0.48271   0.13166   0.05272   0.00000  Uiso   1.00
C851   C     0.54603   0.10640   0.06409   0.00000  Uiso   1.00
H852   H     0.41917   0.77180   0.04652   0.00000  Uiso   1.00
H853   H     0.33010   0.74215   0.06405   0.00000  Uiso   1.00
H854   H     0.39548   0.71453   0.01051   0.00000  Uiso   1.00
H855   H     0.53739   0.82853   0.06635   0.00000  Uiso   1.00
H856   H     0.22275   0.75684   0.08135   0.00000  Uiso   1.00
H857   H     0.36062   0.69860   0.96845   0.00000  Uiso   1.00
H858   H     0.15988   0.43898   0.08619   0.00000  Uiso   1.00
H859   H     0.35305   0.13827   0.03004   0.00000  Uiso   1.00
H860   H     0.26035   0.12874   0.04667   0.00000  Uiso   1.00
H861   H     0.32572   0.10111   0.99312   0.00000  Uiso   1.00
H862   H     0.46764   0.21510   0.04896   0.00000  Uiso   1.00
H863   H     0.16613   0.07060   0.06723   0.00000  Uiso   1.00
H864   H     0.30401   0.01236   0.95434   0.00000  Uiso   1.00
H865   H     0.10326   0.75274   0.07208   0.00000  Uiso   1.00
O866   O     0.13464   0.90082   0.08552   0.00000  Uiso   1.00
O867   O     0.31553   0.82442   0.93740   0.00000  Uiso   1.00
O868   O     0.20815   0.63980   0.09188   0.00000  Uiso   1.00
N869   N     0.22216   0.83200   0.07575   0.00000  Uiso   1.00
N870   N     0.35105   0.77754   0.97019   0.00000  Uiso   1.00
N871   N     0.13083   0.50228   0.08027   0.00000  Uiso   1.00
N872   N     0.19169   0.00083   0.06815   0.00000  Uiso   1.00
N873   N     0.32058   0.94637   0.96260   0.00000  Uiso   1.00
N874   N     0.10037   0.67111   0.07267   0.00000  Uiso   1.00
C875   C     0.62224   0.04547   0.37643   0.00000  Uiso   1.00
C876   C     0.68098   0.12211   0.38339   0.00000  Uiso   1.00
C877   C     0.68292   0.21605   0.39425   0.00000  Uiso   1.00
C878   C     0.74126   0.27505   0.39917   0.00000  Uiso   1.00
C879   C     0.82419   0.39922   0.41085   0.00000  Uiso   1.00
C880   C     0.60727   0.03860   0.35443   0.00000  Uiso   1.00
C881   C     0.54724   0.06232   0.34095   0.00000  Uiso   1.00
C882   C     0.54354   0.05101   0.32149   0.00000  Uiso   1.00
C883   C     0.51202   0.04546   0.28822   0.00000  Uiso   1.00
C884   C     0.64710   0.93303   0.38421   0.00000  Uiso   1.00
C885   C     0.62054   0.86796   0.39575   0.00000  Uiso   1.00
C886   C     0.65036   0.76775   0.40137   0.00000  Uiso   1.00
C887   C     0.68068   0.59829   0.41432   0.00000  Uiso   1.00
C888   C     0.72241   0.98320   0.36586   0.00000  Uiso   1.00
C889   C     0.73539   0.08828   0.37765   0.00000  Uiso   1.00
C890   C     0.79375   0.14715   0.38256   0.00000  Uiso   1.00
C891   C     0.79577   0.24116   0.39342   0.00000  Uiso   1.00
C892   C     0.66168   0.00478   0.34870   0.00000  Uiso   1.00
C893   C     0.65807   0.99342   0.32926   0.00000  Uiso   1.00
C894   C     0.59804   0.01712   0.31575   0.00000  Uiso   1.00
C895   C     0.70151   0.89920   0.37847   0.00000  Uiso   1.00
C896   C     0.73137   0.79907   0.38407   0.00000  Uiso   1.00
C897   C     0.70487   0.73387   0.39562   0.00000  Uiso   1.00
H898   H     0.57987   0.07180   0.38089   0.00000  Uiso   1.00
H899   H     0.64080   0.24220   0.39868   0.00000  Uiso   1.00
H900   H     0.50514   0.08848   0.34539   0.00000  Uiso   1.00
H901   H     0.57844   0.89417   0.40019   0.00000  Uiso   1.00
H902   H     0.73233   0.41623   0.41587   0.00000  Uiso   1.00
H903   H     0.44628   0.09207   0.30351   0.00000  Uiso   1.00
H904   H     0.60084   0.68230   0.41906   0.00000  Uiso   1.00
H905   H     0.76477   0.95686   0.36139   0.00000  Uiso   1.00
H906   H     0.83584   0.12096   0.37812   0.00000  Uiso   1.00
H907   H     0.70018   0.96724   0.32482   0.00000  Uiso   1.00
H908   H     0.77348   0.77292   0.37962   0.00000  Uiso   1.00
H909   H     0.89063   0.31782   0.39918   0.00000  Uiso   1.00
H910   H     0.60458   0.99366   0.28681   0.00000  Uiso   1.00
H911   H     0.75914   0.58390   0.40237   0.00000  Uiso   1.00
O912   O     0.85489   0.47707   0.41887   0.00000  Uiso   1.00
O913   O     0.47960   0.05176   0.27145   0.00000  Uiso   1.00
O914   O     0.68238   0.51417   0.42306   0.00000  Uiso   1.00
N915   N     0.75984   0.37054   0.40965   0.00000  Uiso   1.00
N916   N     0.49240   0.06748   0.30459   0.00000  Uiso   1.00
N917   N     0.63689   0.68438   0.41263   0.00000  Uiso   1.00
N918   N     0.84502   0.31759   0.40067   0.00000  Uiso   1.00
N919   N     0.57758   0.01453   0.29561   0.00000  Uiso   1.00
N920   N     0.72207   0.63143   0.40364   0.00000  Uiso   1.00
C921   C     0.10435   0.13772   0.71005   0.00000  Uiso   1.00
C922   C     0.12427   0.02158   0.71674   0.00000  Uiso   1.00
C923   C     0.18679   0.98813   0.72748   0.00000  Uiso   1.00
C924   C     0.19498   0.87831   0.73216   0.00000  Uiso   1.00
C925   C     0.23390   0.70916   0.74344   0.00000  Uiso   1.00
C926   C     0.07521   0.13201   0.68805   0.00000  Uiso   1.00
C927   C     0.09649   0.19142   0.67465   0.00000  Uiso   1.00
C928   C     0.06337   0.17458   0.65518   0.00000  Uiso   1.00
C929   C     0.02610   0.17694   0.62191   0.00000  Uiso   1.00
C930   C     0.04735   0.16668   0.71796   0.00000  Uiso   1.00
C931   C     0.04518   0.25526   0.72971   0.00000  Uiso   1.00
C932   C     0.98860   0.26762   0.73541   0.00000  Uiso   1.00
C933   C     0.90806   0.32381   0.74859   0.00000  Uiso   1.00
C934   C     0.00771   0.00217   0.69927   0.00000  Uiso   1.00
C935   C     0.07178   0.94795   0.71089   0.00000  Uiso   1.00
C936   C     0.07987   0.83816   0.71556   0.00000  Uiso   1.00
C937   C     0.14240   0.80455   0.72630   0.00000  Uiso   1.00
C938   C     0.02273   0.05839   0.68219   0.00000  Uiso   1.00
C939   C     0.98957   0.04145   0.66273   0.00000  Uiso   1.00
C940   C     0.01079   0.10082   0.64931   0.00000  Uiso   1.00
C941   C     0.99486   0.09305   0.71211   0.00000  Uiso   1.00
C942   C     0.93827   0.10529   0.71779   0.00000  Uiso   1.00
C943   C     0.93601   0.19387   0.72955   0.00000  Uiso   1.00
H944   H     0.14521   0.19504   0.71460   0.00000  Uiso   1.00
H945   H     0.22740   0.04513   0.73200   0.00000  Uiso   1.00
H946   H     0.13710   0.24840   0.67919   0.00000  Uiso   1.00
H947   H     0.08581   0.31222   0.73424   0.00000  Uiso   1.00
H948   H     0.79538   0.34645   0.74871   0.00000  Uiso   1.00
H949   H     0.10497   0.27508   0.63735   0.00000  Uiso   1.00
H950   H     0.99680   0.40967   0.75343   0.00000  Uiso   1.00
H951   H     0.96685   0.94485   0.69471   0.00000  Uiso   1.00
H952   H     0.03925   0.78120   0.71103   0.00000  Uiso   1.00
H953   H     0.94895   0.98448   0.65821   0.00000  Uiso   1.00
H954   H     0.89766   0.04830   0.71326   0.00000  Uiso   1.00
H955   H     0.14266   0.63223   0.73168   0.00000  Uiso   1.00
H956   H     0.95225   0.06088   0.62032   0.00000  Uiso   1.00
H957   H     0.84409   0.19545   0.73640   0.00000  Uiso   1.00
O958   O     0.76987   0.13619   0.75128   0.00000  Uiso   1.00
O959   O     0.02005   0.19857   0.60518   0.00000  Uiso   1.00
O960   O     0.87814   0.37514   0.75747   0.00000  Uiso   1.00
N961   N     0.74950   0.31849   0.74247   0.00000  Uiso   1.00
N962   N     0.07148   0.21923   0.63835   0.00000  Uiso   1.00
N963   N     0.97035   0.34507   0.74687   0.00000  Uiso   1.00
N964   N     0.16732   0.70322   0.73331   0.00000  Uiso   1.00
N965   N     0.98931   0.10396   0.62919   0.00000  Uiso   1.00
N966   N     0.88818   0.22981   0.73771   0.00000  Uiso   1.00
C967   C     0.68156   0.67538   0.54276   0.00000  Uiso   1.00
C968   C     0.75359   0.64061   0.55000   0.00000  Uiso   1.00
C969   C     0.80568   0.70541   0.56032   0.00000  Uiso   1.00
C970   C     0.86791   0.65852   0.56561   0.00000  Uiso   1.00
C971   C     0.97829   0.62095   0.57757   0.00000  Uiso   1.00
C972   C     0.65988   0.65578   0.52091   0.00000  Uiso   1.00
C973   C     0.63317   0.73333   0.50678   0.00000  Uiso   1.00
C974   C     0.61652   0.69919   0.48758   0.00000  Uiso   1.00
C975   C     0.58137   0.68514   0.45439   0.00000  Uiso   1.00
C976   C     0.64347   0.59372   0.55124   0.00000  Uiso   1.00
C977   C     0.60293   0.61909   0.56261   0.00000  Uiso   1.00
C978   C     0.57244   0.53271   0.56895   0.00000  Uiso   1.00
C979   C     0.01180   0.92232   0.58285   0.00000  Uiso   1.00
C980   C     0.69946   0.47687   0.53380   0.00000  Uiso   1.00
C981   C     0.76331   0.53279   0.54513   0.00000  Uiso   1.00
C982   C     0.82549   0.48578   0.55040   0.00000  Uiso   1.00
C983   C     0.87766   0.55050   0.56073   0.00000  Uiso   1.00
C984   C     0.66961   0.54795   0.51604   0.00000  Uiso   1.00
C985   C     0.65299   0.51369   0.49686   0.00000  Uiso   1.00
C986   C     0.62626   0.59117   0.48271   0.00000  Uiso   1.00
C987   C     0.65319   0.48589   0.54638   0.00000  Uiso   1.00
C988   C     0.62275   0.39946   0.55270   0.00000  Uiso   1.00
C989   C     0.58218   0.42469   0.56407   0.00000  Uiso   1.00
H990   H     0.67398   0.75933   0.54655   0.00000  Uiso   1.00
H991   H     0.79813   0.78886   0.56408   0.00000  Uiso   1.00
H992   H     0.62565   0.81676   0.51055   0.00000  Uiso   1.00
H993   H     0.59542   0.70254   0.56637   0.00000  Uiso   1.00
H994   H     0.94006   0.77405   0.58136   0.00000  Uiso   1.00
H995   H     0.57636   0.83288   0.46849   0.00000  Uiso   1.00
H996   H     0.01261   0.09204   0.58621   0.00000  Uiso   1.00
H997   H     0.70703   0.39292   0.53001   0.00000  Uiso   1.00
H998   H     0.83300   0.40233   0.54664   0.00000  Uiso   1.00
H999   H     0.66052   0.43024   0.49310   0.00000  Uiso   1.00
H1000  H     0.63029   0.31603   0.54893   0.00000  Uiso   1.00
H1001  H     0.96836   0.46034   0.56720   0.00000  Uiso   1.00
H1002  H     0.60465   0.51917   0.45433   0.00000  Uiso   1.00
H1003  H     0.04091   0.77832   0.57205   0.00000  Uiso   1.00
O1004  O     0.03648   0.63002   0.58551   0.00000  Uiso   1.00
O1005  O     0.55930   0.70719   0.43743   0.00000  Uiso   1.00
O1006  O     0.97567   0.89121   0.59187   0.00000  Uiso   1.00
N1007  N     0.92944   0.69892   0.57575   0.00000  Uiso   1.00
N1008  N     0.58940   0.75393   0.47022   0.00000  Uiso   1.00
N1009  N     0.02979   0.02876   0.58027   0.00000  Uiso   1.00
N1010  N     0.94466   0.53012   0.56813   0.00000  Uiso   1.00
N1011  N     0.60463   0.58512   0.46260   0.00000  Uiso   1.00
N1012  N     0.04501   0.85995   0.57265   0.00000  Uiso   1.00
C1013  C     0.31563   0.39327   0.21006   0.00000  Uiso   1.00
C1014  C     0.30913   0.50944   0.21675   0.00000  Uiso   1.00
C1015  C     0.26811   0.54294   0.22749   0.00000  Uiso   1.00
C1016  C     0.26929   0.65277   0.23216   0.00000  Uiso   1.00
C1017  C     0.25296   0.82197   0.24343   0.00000  Uiso   1.00
C1018  C     0.30073   0.39890   0.18806   0.00000  Uiso   1.00
C1019  C     0.25265   0.33946   0.17468   0.00000  Uiso   1.00
C1020  C     0.24677   0.35624   0.15520   0.00000  Uiso   1.00
C1021  C     0.21745   0.35377   0.12193   0.00000  Uiso   1.00
C1022  C     0.38847   0.36431   0.21796   0.00000  Uiso   1.00
C1023  C     0.41416   0.27576   0.22972   0.00000  Uiso   1.00
C1024  C     0.48214   0.26340   0.23542   0.00000  Uiso   1.00
C1025  C     0.58903   0.20722   0.24858   0.00000  Uiso   1.00
C1026  C     0.39069   0.52875   0.19926   0.00000  Uiso   1.00
C1027  C     0.34990   0.58303   0.21088   0.00000  Uiso   1.00
C1028  C     0.35114   0.69284   0.21554   0.00000  Uiso   1.00
C1029  C     0.31013   0.72650   0.22628   0.00000  Uiso   1.00
C1030  C     0.34150   0.47249   0.18219   0.00000  Uiso   1.00
C1031  C     0.33569   0.48936   0.16273   0.00000  Uiso   1.00
C1032  C     0.28761   0.42996   0.14932   0.00000  Uiso   1.00
C1033  C     0.42923   0.43790   0.21210   0.00000  Uiso   1.00
C1034  C     0.49719   0.42567   0.21777   0.00000  Uiso   1.00
C1035  C     0.52298   0.33712   0.22954   0.00000  Uiso   1.00
H1036  H     0.28389   0.33597   0.21463   0.00000  Uiso   1.00
H1037  H     0.23656   0.48596   0.23203   0.00000  Uiso   1.00
H1038  H     0.22112   0.28251   0.17923   0.00000  Uiso   1.00
H1039  H     0.38259   0.21883   0.23426   0.00000  Uiso   1.00
H1040  H     0.70204   0.18472   0.24872   0.00000  Uiso   1.00
H1041  H     0.16949   0.25569   0.13739   0.00000  Uiso   1.00
H1042  H     0.51000   0.12140   0.25344   0.00000  Uiso   1.00
H1043  H     0.42243   0.58605   0.19469   0.00000  Uiso   1.00
H1044  H     0.38270   0.74977   0.21099   0.00000  Uiso   1.00
H1045  H     0.36725   0.54631   0.15819   0.00000  Uiso   1.00
H1046  H     0.52872   0.48263   0.21323   0.00000  Uiso   1.00
H1047  H     0.32065   0.89883   0.23165   0.00000  Uiso   1.00
H1048  H     0.28810   0.46980   0.12032   0.00000  Uiso   1.00
H1049  H     0.62860   0.33552   0.23637   0.00000  Uiso   1.00
O1050  O     0.73269   0.39497   0.25127   0.00000  Uiso   1.00
O1051  O     0.19000   0.33209   0.10520   0.00000  Uiso   1.00
O1052  O     0.63673   0.15591   0.25746   0.00000  Uiso   1.00
N1053  N     0.73542   0.21264   0.24247   0.00000  Uiso   1.00
N1054  N     0.20498   0.31154   0.13838   0.00000  Uiso   1.00
N1055  N     0.52332   0.18597   0.24688   0.00000  Uiso   1.00
N1056  N     0.29924   0.82785   0.23328   0.00000  Uiso   1.00
N1057  N     0.26880   0.42675   0.12919   0.00000  Uiso   1.00
N1058  N     0.58714   0.30119   0.23769   0.00000  Uiso   1.00
C1059  C     0.13068   0.48530   0.87644   0.00000  Uiso   1.00
C1060  C     0.08583   0.40869   0.88340   0.00000  Uiso   1.00
C1061  C     0.10557   0.31476   0.89426   0.00000  Uiso   1.00
C1062  C     0.05704   0.25578   0.89917   0.00000  Uiso   1.00
C1063  C     0.99742   0.13165   0.91084   0.00000  Uiso   1.00
C1064  C     0.10172   0.49214   0.85445   0.00000  Uiso   1.00
C1065  C     0.13482   0.46840   0.84097   0.00000  Uiso   1.00
C1066  C     0.09966   0.47969   0.82152   0.00000  Uiso   1.00
C1067  C     0.06472   0.48519   0.78824   0.00000  Uiso   1.00
C1068  C     0.12137   0.59776   0.88422   0.00000  Uiso   1.00
C1069  C     0.17100   0.66283   0.89577   0.00000  Uiso   1.00
C1070  C     0.15239   0.76305   0.90137   0.00000  Uiso   1.00
C1071  C     0.14796   0.93253   0.91432   0.00000  Uiso   1.00
C1072  C     0.00939   0.54760   0.86585   0.00000  Uiso   1.00
C1073  C     0.01995   0.44253   0.87764   0.00000  Uiso   1.00
C1074  C     0.97137   0.38368   0.88254   0.00000  Uiso   1.00
C1075  C     0.99104   0.28968   0.89341   0.00000  Uiso   1.00
C1076  C     0.03584   0.52598   0.84869   0.00000  Uiso   1.00
C1077  C     0.00062   0.53732   0.82925   0.00000  Uiso   1.00
C1078  C     0.03366   0.51359   0.81575   0.00000  Uiso   1.00
C1079  C     0.05549   0.63160   0.87846   0.00000  Uiso   1.00
C1080  C     0.03680   0.73174   0.88405   0.00000  Uiso   1.00
C1081  C     0.08639   0.79695   0.89561   0.00000  Uiso   1.00
H1082  H     0.18197   0.45896   0.88092   0.00000  Uiso   1.00
H1083  H     0.15656   0.28860   0.89871   0.00000  Uiso   1.00
H1084  H     0.18581   0.44222   0.84543   0.00000  Uiso   1.00
H1085  H     0.22198   0.63661   0.90022   0.00000  Uiso   1.00
H1086  H     0.09934   0.11462   0.91589   0.00000  Uiso   1.00
H1087  H     0.16100   0.43858   0.80355   0.00000  Uiso   1.00
H1088  H     0.23728   0.84850   0.91908   0.00000  Uiso   1.00
H1089  H     0.95809   0.57395   0.86137   0.00000  Uiso   1.00
H1090  H     0.92039   0.40989   0.87808   0.00000  Uiso   1.00
H1091  H     0.94964   0.56351   0.82481   0.00000  Uiso   1.00
H1092  H     0.98581   0.75790   0.87959   0.00000  Uiso   1.00
H1093  H     0.90765   0.21306   0.89915   0.00000  Uiso   1.00
H1094  H     0.96932   0.53703   0.78681   0.00000  Uiso   1.00
H1095  H     0.04560   0.94694   0.90234   0.00000  Uiso   1.00
O1096  O     0.98273   0.05382   0.91886   0.00000  Uiso   1.00
O1097  O     0.06364   0.47887   0.77148   0.00000  Uiso   1.00
O1098  O     0.16372   0.01667   0.92305   0.00000  Uiso   1.00
N1099  N     0.05940   0.16031   0.90965   0.00000  Uiso   1.00
N1100  N     0.11705   0.46318   0.80463   0.00000  Uiso   1.00
N1101  N     0.18837   0.84643   0.91263   0.00000  Uiso   1.00
N1102  N     0.95625   0.21328   0.90065   0.00000  Uiso   1.00
N1103  N     0.01391   0.51615   0.79562   0.00000  Uiso   1.00
N1104  N     0.08522   0.89940   0.90362   0.00000  Uiso   1.00
