data_job_02840
_audit_creation_date              2018-12-19
_audit_creation_method            'Materials Studio'
_symmetry_space_group_name_H-M    'P1'
_symmetry_Int_Tables_number       1
_symmetry_cell_setting            triclinic
loop_
_symmetry_equiv_pos_as_xyz
  x,y,z
_cell_length_a                    24.2177
_cell_length_b                    24.2177
_cell_length_c                    18.1157
_cell_angle_alpha                 90.0000
_cell_angle_beta                  90.0000
_cell_angle_gamma                 90.0000
loop_
_atom_site_label
_atom_site_type_symbol
_atom_site_fract_x
_atom_site_fract_y
_atom_site_fract_z
_atom_site_U_iso_or_equiv
_atom_site_adp_type
_atom_site_occupancy
C1     C     0.39220   0.36611   0.79297   0.00000  Uiso   1.00
C2     C     0.42688   0.34449   0.85702   0.00000  Uiso   1.00
C3     C     0.46521   0.30200   0.85309   0.00000  Uiso   1.00
C4     C     0.49267   0.28835   0.91784   0.00000  Uiso   1.00
C5     C     0.54810   0.25052   0.00722   0.00000  Uiso   1.00
C6     C     0.33218   0.36121   0.81754   0.00000  Uiso   1.00
C7     C     0.29089   0.33279   0.78041   0.00000  Uiso   1.00
C8     C     0.23863   0.33322   0.81193   0.00000  Uiso   1.00
C9     C     0.14702   0.32138   0.83998   0.00000  Uiso   1.00
C10    C     0.40426   0.42780   0.78795   0.00000  Uiso   1.00
C11    C     0.42357   0.45536   0.72594   0.00000  Uiso   1.00
C12    C     0.43199   0.51186   0.73254   0.00000  Uiso   1.00
C13    C     0.45230   0.60340   0.71465   0.00000  Uiso   1.00
C14    C     0.37281   0.41743   0.91494   0.00000  Uiso   1.00
C15    C     0.41634   0.37237   0.92327   0.00000  Uiso   1.00
C16    C     0.44376   0.35878   0.98804   0.00000  Uiso   1.00
C17    C     0.48212   0.31627   0.98421   0.00000  Uiso   1.00
C18    C     0.32164   0.38909   0.88378   0.00000  Uiso   1.00
C19    C     0.26943   0.38957   0.91536   0.00000  Uiso   1.00
C20    C     0.22807   0.36114   0.87830   0.00000  Uiso   1.00
C21    C     0.39373   0.45567   0.85420   0.00000  Uiso   1.00
C22    C     0.40211   0.51214   0.86089   0.00000  Uiso   1.00
C23    C     0.42143   0.53978   0.79891   0.00000  Uiso   1.00
H24    H     0.40040   0.34441   0.74139   0.00000  Uiso   1.00
H25    H     0.47335   0.28043   0.80181   0.00000  Uiso   1.00
H26    H     0.29905   0.31122   0.72914   0.00000  Uiso   1.00
H27    H     0.43171   0.43378   0.67468   0.00000  Uiso   1.00
H28    H     0.54956   0.22178   0.89802   0.00000  Uiso   1.00
H29    H     0.18204   0.28672   0.74478   0.00000  Uiso   1.00
H30    H     0.46179   0.54515   0.62993   0.00000  Uiso   1.00
H31    H     0.36461   0.43914   0.96652   0.00000  Uiso   1.00
H32    H     0.43560   0.38036   0.03930   0.00000  Uiso   1.00
H33    H     0.26129   0.41114   0.96663   0.00000  Uiso   1.00
H34    H     0.39396   0.53370   0.91217   0.00000  Uiso   1.00
H35    H     0.51892   0.30288   0.09078   0.00000  Uiso   1.00
H36    H     0.15140   0.36782   0.93753   0.00000  Uiso   1.00
H37    H     0.43114   0.62625   0.82269   0.00000  Uiso   1.00
O38    O     0.58157   0.22194   0.03822   0.00000  Uiso   1.00
O39    O     0.09940   0.30715   0.83716   0.00000  Uiso   1.00
O40    O     0.46642   0.64620   0.68649   0.00000  Uiso   1.00
N41    N     0.53262   0.24894   0.93340   0.00000  Uiso   1.00
N42    N     0.18901   0.30965   0.79013   0.00000  Uiso   1.00
N43    N     0.45053   0.55126   0.68275   0.00000  Uiso   1.00
N44    N     0.51613   0.29258   0.03712   0.00000  Uiso   1.00
N45    N     0.17252   0.35329   0.89385   0.00000  Uiso   1.00
N46    N     0.43404   0.59490   0.78647   0.00000  Uiso   1.00
C47    C     0.89220   0.86611   0.29297   0.00000  Uiso   1.00
C48    C     0.92688   0.84449   0.35702   0.00000  Uiso   1.00
C49    C     0.96521   0.80200   0.35309   0.00000  Uiso   1.00
C50    C     0.99267   0.78835   0.41784   0.00000  Uiso   1.00
C51    C     0.04810   0.75052   0.50722   0.00000  Uiso   1.00
C52    C     0.83218   0.86121   0.31754   0.00000  Uiso   1.00
C53    C     0.79089   0.83279   0.28041   0.00000  Uiso   1.00
C54    C     0.73863   0.83322   0.31193   0.00000  Uiso   1.00
C55    C     0.64702   0.82138   0.33998   0.00000  Uiso   1.00
C56    C     0.90426   0.92780   0.28795   0.00000  Uiso   1.00
C57    C     0.92357   0.95536   0.22594   0.00000  Uiso   1.00
C58    C     0.93199   0.01186   0.23254   0.00000  Uiso   1.00
C59    C     0.95230   0.10340   0.21465   0.00000  Uiso   1.00
C60    C     0.87281   0.91743   0.41494   0.00000  Uiso   1.00
C61    C     0.91634   0.87237   0.42327   0.00000  Uiso   1.00
C62    C     0.94376   0.85878   0.48804   0.00000  Uiso   1.00
C63    C     0.98212   0.81627   0.48421   0.00000  Uiso   1.00
C64    C     0.82164   0.88909   0.38378   0.00000  Uiso   1.00
C65    C     0.76943   0.88957   0.41536   0.00000  Uiso   1.00
C66    C     0.72807   0.86114   0.37830   0.00000  Uiso   1.00
C67    C     0.89373   0.95567   0.35420   0.00000  Uiso   1.00
C68    C     0.90211   0.01214   0.36089   0.00000  Uiso   1.00
C69    C     0.92143   0.03978   0.29891   0.00000  Uiso   1.00
H70    H     0.90040   0.84441   0.24139   0.00000  Uiso   1.00
H71    H     0.97335   0.78043   0.30181   0.00000  Uiso   1.00
H72    H     0.79905   0.81122   0.22914   0.00000  Uiso   1.00
H73    H     0.93171   0.93378   0.17468   0.00000  Uiso   1.00
H74    H     0.04956   0.72178   0.39802   0.00000  Uiso   1.00
H75    H     0.68204   0.78672   0.24478   0.00000  Uiso   1.00
H76    H     0.96179   0.04515   0.12993   0.00000  Uiso   1.00
H77    H     0.86461   0.93914   0.46652   0.00000  Uiso   1.00
H78    H     0.93560   0.88036   0.53930   0.00000  Uiso   1.00
H79    H     0.76129   0.91114   0.46663   0.00000  Uiso   1.00
H80    H     0.89396   0.03370   0.41217   0.00000  Uiso   1.00
H81    H     0.01892   0.80288   0.59078   0.00000  Uiso   1.00
H82    H     0.65140   0.86782   0.43753   0.00000  Uiso   1.00
H83    H     0.93114   0.12625   0.32269   0.00000  Uiso   1.00
O84    O     0.08157   0.72194   0.53822   0.00000  Uiso   1.00
O85    O     0.59940   0.80715   0.33716   0.00000  Uiso   1.00
O86    O     0.96642   0.14620   0.18649   0.00000  Uiso   1.00
N87    N     0.03262   0.74894   0.43340   0.00000  Uiso   1.00
N88    N     0.68901   0.80965   0.29013   0.00000  Uiso   1.00
N89    N     0.95053   0.05126   0.18275   0.00000  Uiso   1.00
N90    N     0.01613   0.79258   0.53712   0.00000  Uiso   1.00
N91    N     0.67252   0.85329   0.39385   0.00000  Uiso   1.00
N92    N     0.93404   0.09490   0.28647   0.00000  Uiso   1.00
C93    C     0.10780   0.13389   0.29297   0.00000  Uiso   1.00
C94    C     0.07312   0.15551   0.35702   0.00000  Uiso   1.00
C95    C     0.03479   0.19800   0.35309   0.00000  Uiso   1.00
C96    C     0.00733   0.21165   0.41784   0.00000  Uiso   1.00
C97    C     0.95190   0.24948   0.50722   0.00000  Uiso   1.00
C98    C     0.16782   0.13879   0.31754   0.00000  Uiso   1.00
C99    C     0.20911   0.16721   0.28041   0.00000  Uiso   1.00
C100   C     0.26137   0.16678   0.31193   0.00000  Uiso   1.00
C101   C     0.35298   0.17862   0.33998   0.00000  Uiso   1.00
C102   C     0.09574   0.07220   0.28795   0.00000  Uiso   1.00
C103   C     0.07643   0.04464   0.22594   0.00000  Uiso   1.00
C104   C     0.06801   0.98814   0.23254   0.00000  Uiso   1.00
C105   C     0.04770   0.89660   0.21465   0.00000  Uiso   1.00
C106   C     0.12719   0.08257   0.41494   0.00000  Uiso   1.00
C107   C     0.08366   0.12763   0.42327   0.00000  Uiso   1.00
C108   C     0.05624   0.14122   0.48804   0.00000  Uiso   1.00
C109   C     0.01788   0.18373   0.48421   0.00000  Uiso   1.00
C110   C     0.17836   0.11091   0.38378   0.00000  Uiso   1.00
C111   C     0.23057   0.11043   0.41536   0.00000  Uiso   1.00
C112   C     0.27193   0.13886   0.37830   0.00000  Uiso   1.00
C113   C     0.10627   0.04433   0.35420   0.00000  Uiso   1.00
C114   C     0.09789   0.98786   0.36089   0.00000  Uiso   1.00
C115   C     0.07857   0.96022   0.29891   0.00000  Uiso   1.00
H116   H     0.09960   0.15559   0.24139   0.00000  Uiso   1.00
H117   H     0.02665   0.21957   0.30181   0.00000  Uiso   1.00
H118   H     0.20095   0.18878   0.22914   0.00000  Uiso   1.00
H119   H     0.06829   0.06622   0.17468   0.00000  Uiso   1.00
H120   H     0.95044   0.27822   0.39802   0.00000  Uiso   1.00
H121   H     0.31796   0.21328   0.24478   0.00000  Uiso   1.00
H122   H     0.03821   0.95485   0.12993   0.00000  Uiso   1.00
H123   H     0.13539   0.06086   0.46652   0.00000  Uiso   1.00
H124   H     0.06440   0.11964   0.53930   0.00000  Uiso   1.00
H125   H     0.23871   0.08886   0.46663   0.00000  Uiso   1.00
H126   H     0.10604   0.96630   0.41217   0.00000  Uiso   1.00
H127   H     0.98108   0.19712   0.59078   0.00000  Uiso   1.00
H128   H     0.34860   0.13218   0.43753   0.00000  Uiso   1.00
H129   H     0.06886   0.87375   0.32269   0.00000  Uiso   1.00
O130   O     0.91843   0.27806   0.53822   0.00000  Uiso   1.00
O131   O     0.40060   0.19285   0.33716   0.00000  Uiso   1.00
O132   O     0.03358   0.85380   0.18649   0.00000  Uiso   1.00
N133   N     0.96738   0.25106   0.43340   0.00000  Uiso   1.00
N134   N     0.31099   0.19035   0.29013   0.00000  Uiso   1.00
N135   N     0.04947   0.94874   0.18275   0.00000  Uiso   1.00
N136   N     0.98387   0.20742   0.53712   0.00000  Uiso   1.00
N137   N     0.32748   0.14671   0.39385   0.00000  Uiso   1.00
N138   N     0.06596   0.90510   0.28647   0.00000  Uiso   1.00
C139   C     0.60780   0.63389   0.79297   0.00000  Uiso   1.00
C140   C     0.57312   0.65551   0.85702   0.00000  Uiso   1.00
C141   C     0.53479   0.69800   0.85309   0.00000  Uiso   1.00
C142   C     0.50733   0.71165   0.91784   0.00000  Uiso   1.00
C143   C     0.45190   0.74948   0.00722   0.00000  Uiso   1.00
C144   C     0.66782   0.63879   0.81754   0.00000  Uiso   1.00
C145   C     0.70911   0.66721   0.78041   0.00000  Uiso   1.00
C146   C     0.76137   0.66678   0.81193   0.00000  Uiso   1.00
C147   C     0.85298   0.67862   0.83998   0.00000  Uiso   1.00
C148   C     0.59574   0.57220   0.78795   0.00000  Uiso   1.00
C149   C     0.57643   0.54464   0.72594   0.00000  Uiso   1.00
C150   C     0.56801   0.48814   0.73254   0.00000  Uiso   1.00
C151   C     0.54770   0.39660   0.71465   0.00000  Uiso   1.00
C152   C     0.62719   0.58257   0.91494   0.00000  Uiso   1.00
C153   C     0.58366   0.62763   0.92327   0.00000  Uiso   1.00
C154   C     0.55624   0.64122   0.98804   0.00000  Uiso   1.00
C155   C     0.51788   0.68373   0.98421   0.00000  Uiso   1.00
C156   C     0.67836   0.61091   0.88378   0.00000  Uiso   1.00
C157   C     0.73057   0.61043   0.91536   0.00000  Uiso   1.00
C158   C     0.77193   0.63886   0.87830   0.00000  Uiso   1.00
C159   C     0.60627   0.54433   0.85420   0.00000  Uiso   1.00
C160   C     0.59789   0.48786   0.86089   0.00000  Uiso   1.00
C161   C     0.57857   0.46022   0.79891   0.00000  Uiso   1.00
H162   H     0.59960   0.65559   0.74139   0.00000  Uiso   1.00
H163   H     0.52665   0.71957   0.80181   0.00000  Uiso   1.00
H164   H     0.70095   0.68878   0.72914   0.00000  Uiso   1.00
H165   H     0.56829   0.56622   0.67468   0.00000  Uiso   1.00
H166   H     0.45044   0.77822   0.89802   0.00000  Uiso   1.00
H167   H     0.81796   0.71328   0.74478   0.00000  Uiso   1.00
H168   H     0.53821   0.45485   0.62993   0.00000  Uiso   1.00
H169   H     0.63539   0.56086   0.96652   0.00000  Uiso   1.00
H170   H     0.56440   0.61964   0.03930   0.00000  Uiso   1.00
H171   H     0.73871   0.58886   0.96663   0.00000  Uiso   1.00
H172   H     0.60604   0.46630   0.91217   0.00000  Uiso   1.00
H173   H     0.48108   0.69712   0.09078   0.00000  Uiso   1.00
H174   H     0.84860   0.63218   0.93753   0.00000  Uiso   1.00
H175   H     0.56886   0.37375   0.82269   0.00000  Uiso   1.00
O176   O     0.41843   0.77806   0.03822   0.00000  Uiso   1.00
O177   O     0.90060   0.69285   0.83716   0.00000  Uiso   1.00
O178   O     0.53358   0.35380   0.68649   0.00000  Uiso   1.00
N179   N     0.46738   0.75106   0.93340   0.00000  Uiso   1.00
N180   N     0.81099   0.69035   0.79013   0.00000  Uiso   1.00
N181   N     0.54947   0.44874   0.68275   0.00000  Uiso   1.00
N182   N     0.48387   0.70742   0.03712   0.00000  Uiso   1.00
N183   N     0.82748   0.64671   0.89385   0.00000  Uiso   1.00
N184   N     0.56596   0.40510   0.78647   0.00000  Uiso   1.00
C185   C     0.63389   0.89220   0.04297   0.00000  Uiso   1.00
C186   C     0.65551   0.92688   0.10702   0.00000  Uiso   1.00
C187   C     0.69800   0.96521   0.10309   0.00000  Uiso   1.00
C188   C     0.71165   0.99267   0.16784   0.00000  Uiso   1.00
C189   C     0.74948   0.04810   0.25722   0.00000  Uiso   1.00
C190   C     0.63879   0.83218   0.06754   0.00000  Uiso   1.00
C191   C     0.66721   0.79089   0.03041   0.00000  Uiso   1.00
C192   C     0.66678   0.73863   0.06193   0.00000  Uiso   1.00
C193   C     0.67862   0.64702   0.08998   0.00000  Uiso   1.00
C194   C     0.57220   0.90426   0.03795   0.00000  Uiso   1.00
C195   C     0.54464   0.92357   0.97594   0.00000  Uiso   1.00
C196   C     0.48814   0.93199   0.98254   0.00000  Uiso   1.00
C197   C     0.39660   0.95230   0.96465   0.00000  Uiso   1.00
C198   C     0.58257   0.87281   0.16494   0.00000  Uiso   1.00
C199   C     0.62763   0.91634   0.17327   0.00000  Uiso   1.00
C200   C     0.64122   0.94376   0.23804   0.00000  Uiso   1.00
C201   C     0.68373   0.98212   0.23421   0.00000  Uiso   1.00
C202   C     0.61091   0.82164   0.13378   0.00000  Uiso   1.00
C203   C     0.61043   0.76943   0.16536   0.00000  Uiso   1.00
C204   C     0.63886   0.72807   0.12830   0.00000  Uiso   1.00
C205   C     0.54433   0.89373   0.10420   0.00000  Uiso   1.00
C206   C     0.48786   0.90211   0.11089   0.00000  Uiso   1.00
C207   C     0.46022   0.92143   0.04891   0.00000  Uiso   1.00
H208   H     0.65559   0.90040   0.99139   0.00000  Uiso   1.00
H209   H     0.71957   0.97335   0.05181   0.00000  Uiso   1.00
H210   H     0.68878   0.79905   0.97914   0.00000  Uiso   1.00
H211   H     0.56622   0.93171   0.92468   0.00000  Uiso   1.00
H212   H     0.77822   0.04956   0.14802   0.00000  Uiso   1.00
H213   H     0.71328   0.68204   0.99478   0.00000  Uiso   1.00
H214   H     0.45485   0.96179   0.87993   0.00000  Uiso   1.00
H215   H     0.56086   0.86461   0.21652   0.00000  Uiso   1.00
H216   H     0.61964   0.93560   0.28930   0.00000  Uiso   1.00
H217   H     0.58886   0.76129   0.21663   0.00000  Uiso   1.00
H218   H     0.46630   0.89396   0.16217   0.00000  Uiso   1.00
H219   H     0.69712   0.01892   0.34078   0.00000  Uiso   1.00
H220   H     0.63218   0.65140   0.18753   0.00000  Uiso   1.00
H221   H     0.37375   0.93114   0.07269   0.00000  Uiso   1.00
O222   O     0.77806   0.08157   0.28822   0.00000  Uiso   1.00
O223   O     0.69285   0.59940   0.08716   0.00000  Uiso   1.00
O224   O     0.35380   0.96642   0.93649   0.00000  Uiso   1.00
N225   N     0.75106   0.03262   0.18340   0.00000  Uiso   1.00
N226   N     0.69035   0.68901   0.04013   0.00000  Uiso   1.00
N227   N     0.44874   0.95053   0.93275   0.00000  Uiso   1.00
N228   N     0.70742   0.01613   0.28712   0.00000  Uiso   1.00
N229   N     0.64671   0.67252   0.14385   0.00000  Uiso   1.00
N230   N     0.40510   0.93404   0.03647   0.00000  Uiso   1.00
C231   C     0.13389   0.39220   0.54297   0.00000  Uiso   1.00
C232   C     0.15551   0.42688   0.60702   0.00000  Uiso   1.00
C233   C     0.19800   0.46521   0.60309   0.00000  Uiso   1.00
C234   C     0.21165   0.49267   0.66784   0.00000  Uiso   1.00
C235   C     0.24948   0.54810   0.75722   0.00000  Uiso   1.00
C236   C     0.13879   0.33218   0.56754   0.00000  Uiso   1.00
C237   C     0.16721   0.29089   0.53041   0.00000  Uiso   1.00
C238   C     0.16678   0.23863   0.56193   0.00000  Uiso   1.00
C239   C     0.17862   0.14702   0.58998   0.00000  Uiso   1.00
C240   C     0.07220   0.40426   0.53795   0.00000  Uiso   1.00
C241   C     0.04464   0.42357   0.47594   0.00000  Uiso   1.00
C242   C     0.98814   0.43199   0.48254   0.00000  Uiso   1.00
C243   C     0.89660   0.45230   0.46465   0.00000  Uiso   1.00
C244   C     0.08257   0.37281   0.66494   0.00000  Uiso   1.00
C245   C     0.12763   0.41634   0.67327   0.00000  Uiso   1.00
C246   C     0.14122   0.44376   0.73804   0.00000  Uiso   1.00
C247   C     0.18373   0.48212   0.73421   0.00000  Uiso   1.00
C248   C     0.11091   0.32164   0.63378   0.00000  Uiso   1.00
C249   C     0.11043   0.26943   0.66536   0.00000  Uiso   1.00
C250   C     0.13886   0.22807   0.62830   0.00000  Uiso   1.00
C251   C     0.04433   0.39373   0.60420   0.00000  Uiso   1.00
C252   C     0.98786   0.40211   0.61089   0.00000  Uiso   1.00
C253   C     0.96022   0.42143   0.54891   0.00000  Uiso   1.00
H254   H     0.15559   0.40040   0.49139   0.00000  Uiso   1.00
H255   H     0.21957   0.47335   0.55181   0.00000  Uiso   1.00
H256   H     0.18878   0.29905   0.47914   0.00000  Uiso   1.00
H257   H     0.06622   0.43171   0.42468   0.00000  Uiso   1.00
H258   H     0.27822   0.54956   0.64802   0.00000  Uiso   1.00
H259   H     0.21328   0.18204   0.49478   0.00000  Uiso   1.00
H260   H     0.95485   0.46179   0.37993   0.00000  Uiso   1.00
H261   H     0.06086   0.36461   0.71652   0.00000  Uiso   1.00
H262   H     0.11964   0.43560   0.78930   0.00000  Uiso   1.00
H263   H     0.08886   0.26129   0.71663   0.00000  Uiso   1.00
H264   H     0.96630   0.39396   0.66217   0.00000  Uiso   1.00
H265   H     0.19712   0.51892   0.84078   0.00000  Uiso   1.00
H266   H     0.13218   0.15140   0.68753   0.00000  Uiso   1.00
H267   H     0.87375   0.43114   0.57269   0.00000  Uiso   1.00
O268   O     0.27806   0.58157   0.78822   0.00000  Uiso   1.00
O269   O     0.19285   0.09940   0.58716   0.00000  Uiso   1.00
O270   O     0.85380   0.46642   0.43649   0.00000  Uiso   1.00
N271   N     0.25106   0.53262   0.68340   0.00000  Uiso   1.00
N272   N     0.19035   0.18901   0.54013   0.00000  Uiso   1.00
N273   N     0.94874   0.45053   0.43275   0.00000  Uiso   1.00
N274   N     0.20742   0.51613   0.78712   0.00000  Uiso   1.00
N275   N     0.14671   0.17252   0.64385   0.00000  Uiso   1.00
N276   N     0.90510   0.43404   0.53647   0.00000  Uiso   1.00
C277   C     0.86611   0.60780   0.54297   0.00000  Uiso   1.00
C278   C     0.84449   0.57312   0.60702   0.00000  Uiso   1.00
C279   C     0.80200   0.53479   0.60309   0.00000  Uiso   1.00
C280   C     0.78835   0.50733   0.66784   0.00000  Uiso   1.00
C281   C     0.75052   0.45190   0.75722   0.00000  Uiso   1.00
C282   C     0.86121   0.66782   0.56754   0.00000  Uiso   1.00
C283   C     0.83279   0.70911   0.53041   0.00000  Uiso   1.00
C284   C     0.83322   0.76137   0.56193   0.00000  Uiso   1.00
C285   C     0.82138   0.85298   0.58998   0.00000  Uiso   1.00
C286   C     0.92780   0.59574   0.53795   0.00000  Uiso   1.00
C287   C     0.95536   0.57643   0.47594   0.00000  Uiso   1.00
C288   C     0.01186   0.56801   0.48254   0.00000  Uiso   1.00
C289   C     0.10340   0.54770   0.46465   0.00000  Uiso   1.00
C290   C     0.91743   0.62719   0.66494   0.00000  Uiso   1.00
C291   C     0.87237   0.58366   0.67327   0.00000  Uiso   1.00
C292   C     0.85878   0.55624   0.73804   0.00000  Uiso   1.00
C293   C     0.81627   0.51788   0.73421   0.00000  Uiso   1.00
C294   C     0.88909   0.67836   0.63378   0.00000  Uiso   1.00
C295   C     0.88957   0.73057   0.66536   0.00000  Uiso   1.00
C296   C     0.86114   0.77193   0.62830   0.00000  Uiso   1.00
C297   C     0.95567   0.60627   0.60420   0.00000  Uiso   1.00
C298   C     0.01214   0.59789   0.61089   0.00000  Uiso   1.00
C299   C     0.03978   0.57857   0.54891   0.00000  Uiso   1.00
H300   H     0.84441   0.59960   0.49139   0.00000  Uiso   1.00
H301   H     0.78043   0.52665   0.55181   0.00000  Uiso   1.00
H302   H     0.81122   0.70095   0.47914   0.00000  Uiso   1.00
H303   H     0.93378   0.56829   0.42468   0.00000  Uiso   1.00
H304   H     0.72178   0.45044   0.64802   0.00000  Uiso   1.00
H305   H     0.78672   0.81796   0.49478   0.00000  Uiso   1.00
H306   H     0.04515   0.53821   0.37993   0.00000  Uiso   1.00
H307   H     0.93914   0.63539   0.71652   0.00000  Uiso   1.00
H308   H     0.88036   0.56440   0.78930   0.00000  Uiso   1.00
H309   H     0.91114   0.73871   0.71663   0.00000  Uiso   1.00
H310   H     0.03370   0.60604   0.66217   0.00000  Uiso   1.00
H311   H     0.80288   0.48108   0.84078   0.00000  Uiso   1.00
H312   H     0.86782   0.84860   0.68753   0.00000  Uiso   1.00
H313   H     0.12625   0.56886   0.57269   0.00000  Uiso   1.00
O314   O     0.72194   0.41843   0.78822   0.00000  Uiso   1.00
O315   O     0.80715   0.90060   0.58716   0.00000  Uiso   1.00
O316   O     0.14620   0.53358   0.43649   0.00000  Uiso   1.00
N317   N     0.74894   0.46738   0.68340   0.00000  Uiso   1.00
N318   N     0.80965   0.81099   0.54013   0.00000  Uiso   1.00
N319   N     0.05126   0.54947   0.43275   0.00000  Uiso   1.00
N320   N     0.79258   0.48387   0.78712   0.00000  Uiso   1.00
N321   N     0.85329   0.82748   0.64385   0.00000  Uiso   1.00
N322   N     0.09490   0.56596   0.53647   0.00000  Uiso   1.00
C323   C     0.36611   0.10780   0.04297   0.00000  Uiso   1.00
C324   C     0.34449   0.07312   0.10702   0.00000  Uiso   1.00
C325   C     0.30200   0.03479   0.10309   0.00000  Uiso   1.00
C326   C     0.28835   0.00733   0.16784   0.00000  Uiso   1.00
C327   C     0.25052   0.95190   0.25722   0.00000  Uiso   1.00
C328   C     0.36121   0.16782   0.06754   0.00000  Uiso   1.00
C329   C     0.33279   0.20911   0.03041   0.00000  Uiso   1.00
C330   C     0.33322   0.26137   0.06193   0.00000  Uiso   1.00
C331   C     0.32138   0.35298   0.08998   0.00000  Uiso   1.00
C332   C     0.42780   0.09574   0.03795   0.00000  Uiso   1.00
C333   C     0.45536   0.07643   0.97594   0.00000  Uiso   1.00
C334   C     0.51186   0.06801   0.98254   0.00000  Uiso   1.00
C335   C     0.60340   0.04770   0.96465   0.00000  Uiso   1.00
C336   C     0.41743   0.12719   0.16494   0.00000  Uiso   1.00
C337   C     0.37237   0.08366   0.17327   0.00000  Uiso   1.00
C338   C     0.35878   0.05624   0.23804   0.00000  Uiso   1.00
C339   C     0.31627   0.01788   0.23421   0.00000  Uiso   1.00
C340   C     0.38909   0.17836   0.13378   0.00000  Uiso   1.00
C341   C     0.38957   0.23057   0.16536   0.00000  Uiso   1.00
C342   C     0.36114   0.27193   0.12830   0.00000  Uiso   1.00
C343   C     0.45567   0.10627   0.10420   0.00000  Uiso   1.00
C344   C     0.51214   0.09789   0.11089   0.00000  Uiso   1.00
C345   C     0.53978   0.07857   0.04891   0.00000  Uiso   1.00
H346   H     0.34441   0.09960   0.99139   0.00000  Uiso   1.00
H347   H     0.28043   0.02665   0.05181   0.00000  Uiso   1.00
H348   H     0.31122   0.20095   0.97914   0.00000  Uiso   1.00
H349   H     0.43378   0.06829   0.92468   0.00000  Uiso   1.00
H350   H     0.22178   0.95044   0.14802   0.00000  Uiso   1.00
H351   H     0.28672   0.31796   0.99478   0.00000  Uiso   1.00
H352   H     0.54515   0.03821   0.87993   0.00000  Uiso   1.00
H353   H     0.43914   0.13539   0.21652   0.00000  Uiso   1.00
H354   H     0.38036   0.06440   0.28930   0.00000  Uiso   1.00
H355   H     0.41114   0.23871   0.21663   0.00000  Uiso   1.00
H356   H     0.53370   0.10604   0.16217   0.00000  Uiso   1.00
H357   H     0.30288   0.98108   0.34078   0.00000  Uiso   1.00
H358   H     0.36782   0.34860   0.18753   0.00000  Uiso   1.00
H359   H     0.62625   0.06886   0.07269   0.00000  Uiso   1.00
O360   O     0.22194   0.91843   0.28822   0.00000  Uiso   1.00
O361   O     0.30715   0.40060   0.08716   0.00000  Uiso   1.00
O362   O     0.64620   0.03358   0.93649   0.00000  Uiso   1.00
N363   N     0.24894   0.96738   0.18340   0.00000  Uiso   1.00
N364   N     0.30965   0.31099   0.04013   0.00000  Uiso   1.00
N365   N     0.55126   0.04947   0.93275   0.00000  Uiso   1.00
N366   N     0.29258   0.98387   0.28712   0.00000  Uiso   1.00
N367   N     0.35329   0.32748   0.14385   0.00000  Uiso   1.00
N368   N     0.59490   0.06596   0.03647   0.00000  Uiso   1.00
C369   C     0.39220   0.63389   0.29297   0.00000  Uiso   1.00
C370   C     0.42688   0.65551   0.35702   0.00000  Uiso   1.00
C371   C     0.46521   0.69800   0.35309   0.00000  Uiso   1.00
C372   C     0.49267   0.71165   0.41784   0.00000  Uiso   1.00
C373   C     0.54810   0.74948   0.50722   0.00000  Uiso   1.00
C374   C     0.33218   0.63879   0.31754   0.00000  Uiso   1.00
C375   C     0.29089   0.66721   0.28041   0.00000  Uiso   1.00
C376   C     0.23863   0.66678   0.31193   0.00000  Uiso   1.00
C377   C     0.14702   0.67862   0.33998   0.00000  Uiso   1.00
C378   C     0.40426   0.57220   0.28795   0.00000  Uiso   1.00
C379   C     0.42357   0.54464   0.22594   0.00000  Uiso   1.00
C380   C     0.43199   0.48814   0.23254   0.00000  Uiso   1.00
C381   C     0.45230   0.39660   0.21465   0.00000  Uiso   1.00
C382   C     0.37281   0.58257   0.41494   0.00000  Uiso   1.00
C383   C     0.41634   0.62763   0.42327   0.00000  Uiso   1.00
C384   C     0.44376   0.64122   0.48804   0.00000  Uiso   1.00
C385   C     0.48212   0.68373   0.48421   0.00000  Uiso   1.00
C386   C     0.32164   0.61091   0.38378   0.00000  Uiso   1.00
C387   C     0.26943   0.61043   0.41536   0.00000  Uiso   1.00
C388   C     0.22807   0.63886   0.37830   0.00000  Uiso   1.00
C389   C     0.39373   0.54433   0.35420   0.00000  Uiso   1.00
C390   C     0.40211   0.48786   0.36089   0.00000  Uiso   1.00
C391   C     0.42143   0.46022   0.29891   0.00000  Uiso   1.00
H392   H     0.40040   0.65559   0.24139   0.00000  Uiso   1.00
H393   H     0.47335   0.71957   0.30181   0.00000  Uiso   1.00
H394   H     0.29905   0.68878   0.22914   0.00000  Uiso   1.00
H395   H     0.43171   0.56622   0.17468   0.00000  Uiso   1.00
H396   H     0.54956   0.77822   0.39802   0.00000  Uiso   1.00
H397   H     0.18204   0.71328   0.24478   0.00000  Uiso   1.00
H398   H     0.46179   0.45485   0.12993   0.00000  Uiso   1.00
H399   H     0.36461   0.56086   0.46652   0.00000  Uiso   1.00
H400   H     0.43560   0.61964   0.53930   0.00000  Uiso   1.00
H401   H     0.26129   0.58886   0.46663   0.00000  Uiso   1.00
H402   H     0.39396   0.46630   0.41217   0.00000  Uiso   1.00
H403   H     0.51892   0.69712   0.59078   0.00000  Uiso   1.00
H404   H     0.15140   0.63218   0.43753   0.00000  Uiso   1.00
H405   H     0.43114   0.37375   0.32269   0.00000  Uiso   1.00
O406   O     0.58157   0.77806   0.53822   0.00000  Uiso   1.00
O407   O     0.09940   0.69285   0.33716   0.00000  Uiso   1.00
O408   O     0.46642   0.35380   0.18649   0.00000  Uiso   1.00
N409   N     0.53262   0.75106   0.43340   0.00000  Uiso   1.00
N410   N     0.18901   0.69035   0.29013   0.00000  Uiso   1.00
N411   N     0.45053   0.44874   0.18275   0.00000  Uiso   1.00
N412   N     0.51613   0.70742   0.53712   0.00000  Uiso   1.00
N413   N     0.17252   0.64671   0.39385   0.00000  Uiso   1.00
N414   N     0.43404   0.40510   0.28647   0.00000  Uiso   1.00
C415   C     0.89220   0.13389   0.79297   0.00000  Uiso   1.00
C416   C     0.92688   0.15551   0.85702   0.00000  Uiso   1.00
C417   C     0.96521   0.19800   0.85309   0.00000  Uiso   1.00
C418   C     0.99267   0.21165   0.91784   0.00000  Uiso   1.00
C419   C     0.04810   0.24948   0.00722   0.00000  Uiso   1.00
C420   C     0.83218   0.13879   0.81754   0.00000  Uiso   1.00
C421   C     0.79089   0.16721   0.78041   0.00000  Uiso   1.00
C422   C     0.73863   0.16678   0.81193   0.00000  Uiso   1.00
C423   C     0.64702   0.17862   0.83998   0.00000  Uiso   1.00
C424   C     0.90426   0.07220   0.78795   0.00000  Uiso   1.00
C425   C     0.92357   0.04464   0.72594   0.00000  Uiso   1.00
C426   C     0.93199   0.98814   0.73254   0.00000  Uiso   1.00
C427   C     0.95230   0.89660   0.71465   0.00000  Uiso   1.00
C428   C     0.87281   0.08257   0.91494   0.00000  Uiso   1.00
C429   C     0.91634   0.12763   0.92327   0.00000  Uiso   1.00
C430   C     0.94376   0.14122   0.98804   0.00000  Uiso   1.00
C431   C     0.98212   0.18373   0.98421   0.00000  Uiso   1.00
C432   C     0.82164   0.11091   0.88378   0.00000  Uiso   1.00
C433   C     0.76943   0.11043   0.91536   0.00000  Uiso   1.00
C434   C     0.72807   0.13886   0.87830   0.00000  Uiso   1.00
C435   C     0.89373   0.04433   0.85420   0.00000  Uiso   1.00
C436   C     0.90211   0.98786   0.86089   0.00000  Uiso   1.00
C437   C     0.92143   0.96022   0.79891   0.00000  Uiso   1.00
H438   H     0.90040   0.15559   0.74139   0.00000  Uiso   1.00
H439   H     0.97335   0.21957   0.80181   0.00000  Uiso   1.00
H440   H     0.79905   0.18878   0.72914   0.00000  Uiso   1.00
H441   H     0.93171   0.06622   0.67468   0.00000  Uiso   1.00
H442   H     0.04956   0.27822   0.89802   0.00000  Uiso   1.00
H443   H     0.68204   0.21328   0.74478   0.00000  Uiso   1.00
H444   H     0.96179   0.95485   0.62993   0.00000  Uiso   1.00
H445   H     0.86461   0.06086   0.96652   0.00000  Uiso   1.00
H446   H     0.93560   0.11964   0.03930   0.00000  Uiso   1.00
H447   H     0.76129   0.08886   0.96663   0.00000  Uiso   1.00
H448   H     0.89396   0.96630   0.91217   0.00000  Uiso   1.00
H449   H     0.01892   0.19712   0.09078   0.00000  Uiso   1.00
H450   H     0.65140   0.13218   0.93753   0.00000  Uiso   1.00
H451   H     0.93114   0.87375   0.82269   0.00000  Uiso   1.00
O452   O     0.08157   0.27806   0.03822   0.00000  Uiso   1.00
O453   O     0.59940   0.19285   0.83716   0.00000  Uiso   1.00
O454   O     0.96642   0.85380   0.68649   0.00000  Uiso   1.00
N455   N     0.03262   0.25106   0.93340   0.00000  Uiso   1.00
N456   N     0.68901   0.19035   0.79013   0.00000  Uiso   1.00
N457   N     0.95053   0.94874   0.68275   0.00000  Uiso   1.00
N458   N     0.01613   0.20742   0.03712   0.00000  Uiso   1.00
N459   N     0.67252   0.14671   0.89385   0.00000  Uiso   1.00
N460   N     0.93404   0.90510   0.78647   0.00000  Uiso   1.00
C461   C     0.10780   0.86611   0.79297   0.00000  Uiso   1.00
C462   C     0.07312   0.84449   0.85702   0.00000  Uiso   1.00
C463   C     0.03479   0.80200   0.85309   0.00000  Uiso   1.00
C464   C     0.00733   0.78835   0.91784   0.00000  Uiso   1.00
C465   C     0.95190   0.75052   0.00722   0.00000  Uiso   1.00
C466   C     0.16782   0.86121   0.81754   0.00000  Uiso   1.00
C467   C     0.20911   0.83279   0.78041   0.00000  Uiso   1.00
C468   C     0.26137   0.83322   0.81193   0.00000  Uiso   1.00
C469   C     0.35298   0.82138   0.83998   0.00000  Uiso   1.00
C470   C     0.09574   0.92780   0.78795   0.00000  Uiso   1.00
C471   C     0.07643   0.95536   0.72594   0.00000  Uiso   1.00
C472   C     0.06801   0.01186   0.73254   0.00000  Uiso   1.00
C473   C     0.04770   0.10340   0.71465   0.00000  Uiso   1.00
C474   C     0.12719   0.91743   0.91494   0.00000  Uiso   1.00
C475   C     0.08366   0.87237   0.92327   0.00000  Uiso   1.00
C476   C     0.05624   0.85878   0.98804   0.00000  Uiso   1.00
C477   C     0.01788   0.81627   0.98421   0.00000  Uiso   1.00
C478   C     0.17836   0.88909   0.88378   0.00000  Uiso   1.00
C479   C     0.23057   0.88957   0.91536   0.00000  Uiso   1.00
C480   C     0.27193   0.86114   0.87830   0.00000  Uiso   1.00
C481   C     0.10627   0.95567   0.85420   0.00000  Uiso   1.00
C482   C     0.09789   0.01214   0.86089   0.00000  Uiso   1.00
C483   C     0.07857   0.03978   0.79891   0.00000  Uiso   1.00
H484   H     0.09960   0.84441   0.74139   0.00000  Uiso   1.00
H485   H     0.02665   0.78043   0.80181   0.00000  Uiso   1.00
H486   H     0.20095   0.81122   0.72914   0.00000  Uiso   1.00
H487   H     0.06829   0.93378   0.67468   0.00000  Uiso   1.00
H488   H     0.95044   0.72178   0.89802   0.00000  Uiso   1.00
H489   H     0.31796   0.78672   0.74478   0.00000  Uiso   1.00
H490   H     0.03821   0.04515   0.62993   0.00000  Uiso   1.00
H491   H     0.13539   0.93914   0.96652   0.00000  Uiso   1.00
H492   H     0.06440   0.88036   0.03930   0.00000  Uiso   1.00
H493   H     0.23871   0.91114   0.96663   0.00000  Uiso   1.00
H494   H     0.10604   0.03370   0.91217   0.00000  Uiso   1.00
H495   H     0.98108   0.80288   0.09078   0.00000  Uiso   1.00
H496   H     0.34860   0.86782   0.93753   0.00000  Uiso   1.00
H497   H     0.06886   0.12625   0.82269   0.00000  Uiso   1.00
O498   O     0.91843   0.72194   0.03822   0.00000  Uiso   1.00
O499   O     0.40060   0.80715   0.83716   0.00000  Uiso   1.00
O500   O     0.03358   0.14620   0.68649   0.00000  Uiso   1.00
N501   N     0.96738   0.74894   0.93340   0.00000  Uiso   1.00
N502   N     0.31099   0.80965   0.79013   0.00000  Uiso   1.00
N503   N     0.04947   0.05126   0.68275   0.00000  Uiso   1.00
N504   N     0.98387   0.79258   0.03712   0.00000  Uiso   1.00
N505   N     0.32748   0.85329   0.89385   0.00000  Uiso   1.00
N506   N     0.06596   0.09490   0.78647   0.00000  Uiso   1.00
C507   C     0.60780   0.36611   0.29297   0.00000  Uiso   1.00
C508   C     0.57312   0.34449   0.35702   0.00000  Uiso   1.00
C509   C     0.53479   0.30200   0.35309   0.00000  Uiso   1.00
C510   C     0.50733   0.28835   0.41784   0.00000  Uiso   1.00
C511   C     0.45190   0.25052   0.50722   0.00000  Uiso   1.00
C512   C     0.66782   0.36121   0.31754   0.00000  Uiso   1.00
C513   C     0.70911   0.33279   0.28041   0.00000  Uiso   1.00
C514   C     0.76137   0.33322   0.31193   0.00000  Uiso   1.00
C515   C     0.85298   0.32138   0.33998   0.00000  Uiso   1.00
C516   C     0.59574   0.42780   0.28795   0.00000  Uiso   1.00
C517   C     0.57643   0.45536   0.22594   0.00000  Uiso   1.00
C518   C     0.56801   0.51186   0.23254   0.00000  Uiso   1.00
C519   C     0.54770   0.60340   0.21465   0.00000  Uiso   1.00
C520   C     0.62719   0.41743   0.41494   0.00000  Uiso   1.00
C521   C     0.58366   0.37237   0.42327   0.00000  Uiso   1.00
C522   C     0.55624   0.35878   0.48804   0.00000  Uiso   1.00
C523   C     0.51788   0.31627   0.48421   0.00000  Uiso   1.00
C524   C     0.67836   0.38909   0.38378   0.00000  Uiso   1.00
C525   C     0.73057   0.38957   0.41536   0.00000  Uiso   1.00
C526   C     0.77193   0.36114   0.37830   0.00000  Uiso   1.00
C527   C     0.60627   0.45567   0.35420   0.00000  Uiso   1.00
C528   C     0.59789   0.51214   0.36089   0.00000  Uiso   1.00
C529   C     0.57857   0.53978   0.29891   0.00000  Uiso   1.00
H530   H     0.59960   0.34441   0.24139   0.00000  Uiso   1.00
H531   H     0.52665   0.28043   0.30181   0.00000  Uiso   1.00
H532   H     0.70095   0.31122   0.22914   0.00000  Uiso   1.00
H533   H     0.56829   0.43378   0.17468   0.00000  Uiso   1.00
H534   H     0.45044   0.22178   0.39802   0.00000  Uiso   1.00
H535   H     0.81796   0.28672   0.24478   0.00000  Uiso   1.00
H536   H     0.53821   0.54515   0.12993   0.00000  Uiso   1.00
H537   H     0.63539   0.43914   0.46652   0.00000  Uiso   1.00
H538   H     0.56440   0.38036   0.53930   0.00000  Uiso   1.00
H539   H     0.73871   0.41114   0.46663   0.00000  Uiso   1.00
H540   H     0.60604   0.53370   0.41217   0.00000  Uiso   1.00
H541   H     0.48108   0.30288   0.59078   0.00000  Uiso   1.00
H542   H     0.84860   0.36782   0.43753   0.00000  Uiso   1.00
H543   H     0.56886   0.62625   0.32269   0.00000  Uiso   1.00
O544   O     0.41843   0.22194   0.53822   0.00000  Uiso   1.00
O545   O     0.90060   0.30715   0.33716   0.00000  Uiso   1.00
O546   O     0.53358   0.64620   0.18649   0.00000  Uiso   1.00
N547   N     0.46738   0.24894   0.43340   0.00000  Uiso   1.00
N548   N     0.81099   0.30965   0.29013   0.00000  Uiso   1.00
N549   N     0.54947   0.55126   0.18275   0.00000  Uiso   1.00
N550   N     0.48387   0.29258   0.53712   0.00000  Uiso   1.00
N551   N     0.82748   0.35329   0.39385   0.00000  Uiso   1.00
N552   N     0.56596   0.59490   0.28647   0.00000  Uiso   1.00
C553   C     0.63389   0.10780   0.54297   0.00000  Uiso   1.00
C554   C     0.65551   0.07312   0.60702   0.00000  Uiso   1.00
C555   C     0.69800   0.03479   0.60309   0.00000  Uiso   1.00
C556   C     0.71165   0.00733   0.66784   0.00000  Uiso   1.00
C557   C     0.74948   0.95190   0.75722   0.00000  Uiso   1.00
C558   C     0.63879   0.16782   0.56754   0.00000  Uiso   1.00
C559   C     0.66721   0.20911   0.53041   0.00000  Uiso   1.00
C560   C     0.66678   0.26137   0.56193   0.00000  Uiso   1.00
C561   C     0.67862   0.35298   0.58998   0.00000  Uiso   1.00
C562   C     0.57220   0.09574   0.53795   0.00000  Uiso   1.00
C563   C     0.54464   0.07643   0.47594   0.00000  Uiso   1.00
C564   C     0.48814   0.06801   0.48254   0.00000  Uiso   1.00
C565   C     0.39660   0.04770   0.46465   0.00000  Uiso   1.00
C566   C     0.58257   0.12719   0.66494   0.00000  Uiso   1.00
C567   C     0.62763   0.08366   0.67327   0.00000  Uiso   1.00
C568   C     0.64122   0.05624   0.73804   0.00000  Uiso   1.00
C569   C     0.68373   0.01788   0.73421   0.00000  Uiso   1.00
C570   C     0.61091   0.17836   0.63378   0.00000  Uiso   1.00
C571   C     0.61043   0.23057   0.66536   0.00000  Uiso   1.00
C572   C     0.63886   0.27193   0.62830   0.00000  Uiso   1.00
C573   C     0.54433   0.10627   0.60420   0.00000  Uiso   1.00
C574   C     0.48786   0.09789   0.61089   0.00000  Uiso   1.00
C575   C     0.46022   0.07857   0.54891   0.00000  Uiso   1.00
H576   H     0.65559   0.09960   0.49139   0.00000  Uiso   1.00
H577   H     0.71957   0.02665   0.55181   0.00000  Uiso   1.00
H578   H     0.68878   0.20095   0.47914   0.00000  Uiso   1.00
H579   H     0.56622   0.06829   0.42468   0.00000  Uiso   1.00
H580   H     0.77822   0.95044   0.64802   0.00000  Uiso   1.00
H581   H     0.71328   0.31796   0.49478   0.00000  Uiso   1.00
H582   H     0.45485   0.03821   0.37993   0.00000  Uiso   1.00
H583   H     0.56086   0.13539   0.71652   0.00000  Uiso   1.00
H584   H     0.61964   0.06440   0.78930   0.00000  Uiso   1.00
H585   H     0.58886   0.23871   0.71663   0.00000  Uiso   1.00
H586   H     0.46630   0.10604   0.66217   0.00000  Uiso   1.00
H587   H     0.69712   0.98108   0.84078   0.00000  Uiso   1.00
H588   H     0.63218   0.34860   0.68753   0.00000  Uiso   1.00
H589   H     0.37375   0.06886   0.57269   0.00000  Uiso   1.00
O590   O     0.77806   0.91843   0.78822   0.00000  Uiso   1.00
O591   O     0.69285   0.40060   0.58716   0.00000  Uiso   1.00
O592   O     0.35380   0.03358   0.43649   0.00000  Uiso   1.00
N593   N     0.75106   0.96738   0.68340   0.00000  Uiso   1.00
N594   N     0.69035   0.31099   0.54013   0.00000  Uiso   1.00
N595   N     0.44874   0.04947   0.43275   0.00000  Uiso   1.00
N596   N     0.70742   0.98387   0.78712   0.00000  Uiso   1.00
N597   N     0.64671   0.32748   0.64385   0.00000  Uiso   1.00
N598   N     0.40510   0.06596   0.53647   0.00000  Uiso   1.00
C599   C     0.13389   0.60780   0.04297   0.00000  Uiso   1.00
C600   C     0.15551   0.57312   0.10702   0.00000  Uiso   1.00
C601   C     0.19800   0.53479   0.10309   0.00000  Uiso   1.00
C602   C     0.21165   0.50733   0.16784   0.00000  Uiso   1.00
C603   C     0.24948   0.45190   0.25722   0.00000  Uiso   1.00
C604   C     0.13879   0.66782   0.06754   0.00000  Uiso   1.00
C605   C     0.16721   0.70911   0.03041   0.00000  Uiso   1.00
C606   C     0.16678   0.76137   0.06193   0.00000  Uiso   1.00
C607   C     0.17862   0.85298   0.08998   0.00000  Uiso   1.00
C608   C     0.07220   0.59574   0.03795   0.00000  Uiso   1.00
C609   C     0.04464   0.57643   0.97594   0.00000  Uiso   1.00
C610   C     0.98814   0.56801   0.98254   0.00000  Uiso   1.00
C611   C     0.89660   0.54770   0.96465   0.00000  Uiso   1.00
C612   C     0.08257   0.62719   0.16494   0.00000  Uiso   1.00
C613   C     0.12763   0.58366   0.17327   0.00000  Uiso   1.00
C614   C     0.14122   0.55624   0.23804   0.00000  Uiso   1.00
C615   C     0.18373   0.51788   0.23421   0.00000  Uiso   1.00
C616   C     0.11091   0.67836   0.13378   0.00000  Uiso   1.00
C617   C     0.11043   0.73057   0.16536   0.00000  Uiso   1.00
C618   C     0.13886   0.77193   0.12830   0.00000  Uiso   1.00
C619   C     0.04433   0.60627   0.10420   0.00000  Uiso   1.00
C620   C     0.98786   0.59789   0.11089   0.00000  Uiso   1.00
C621   C     0.96022   0.57857   0.04891   0.00000  Uiso   1.00
H622   H     0.15559   0.59960   0.99139   0.00000  Uiso   1.00
H623   H     0.21957   0.52665   0.05181   0.00000  Uiso   1.00
H624   H     0.18878   0.70095   0.97914   0.00000  Uiso   1.00
H625   H     0.06622   0.56829   0.92468   0.00000  Uiso   1.00
H626   H     0.27822   0.45044   0.14802   0.00000  Uiso   1.00
H627   H     0.21328   0.81796   0.99478   0.00000  Uiso   1.00
H628   H     0.95485   0.53821   0.87993   0.00000  Uiso   1.00
H629   H     0.06086   0.63539   0.21652   0.00000  Uiso   1.00
H630   H     0.11964   0.56440   0.28930   0.00000  Uiso   1.00
H631   H     0.08886   0.73871   0.21663   0.00000  Uiso   1.00
H632   H     0.96630   0.60604   0.16217   0.00000  Uiso   1.00
H633   H     0.19712   0.48108   0.34078   0.00000  Uiso   1.00
H634   H     0.13218   0.84860   0.18753   0.00000  Uiso   1.00
H635   H     0.87375   0.56886   0.07269   0.00000  Uiso   1.00
O636   O     0.27806   0.41843   0.28822   0.00000  Uiso   1.00
O637   O     0.19285   0.90060   0.08716   0.00000  Uiso   1.00
O638   O     0.85380   0.53358   0.93649   0.00000  Uiso   1.00
N639   N     0.25106   0.46738   0.18340   0.00000  Uiso   1.00
N640   N     0.19035   0.81099   0.04013   0.00000  Uiso   1.00
N641   N     0.94874   0.54947   0.93275   0.00000  Uiso   1.00
N642   N     0.20742   0.48387   0.28712   0.00000  Uiso   1.00
N643   N     0.14671   0.82748   0.14385   0.00000  Uiso   1.00
N644   N     0.90510   0.56596   0.03647   0.00000  Uiso   1.00
C645   C     0.86611   0.39220   0.04297   0.00000  Uiso   1.00
C646   C     0.84449   0.42688   0.10702   0.00000  Uiso   1.00
C647   C     0.80200   0.46521   0.10309   0.00000  Uiso   1.00
C648   C     0.78835   0.49267   0.16784   0.00000  Uiso   1.00
C649   C     0.75052   0.54810   0.25722   0.00000  Uiso   1.00
C650   C     0.86121   0.33218   0.06754   0.00000  Uiso   1.00
C651   C     0.83279   0.29089   0.03041   0.00000  Uiso   1.00
C652   C     0.83322   0.23863   0.06193   0.00000  Uiso   1.00
C653   C     0.82138   0.14702   0.08998   0.00000  Uiso   1.00
C654   C     0.92780   0.40426   0.03795   0.00000  Uiso   1.00
C655   C     0.95536   0.42357   0.97594   0.00000  Uiso   1.00
C656   C     0.01186   0.43199   0.98254   0.00000  Uiso   1.00
C657   C     0.10340   0.45230   0.96465   0.00000  Uiso   1.00
C658   C     0.91743   0.37281   0.16494   0.00000  Uiso   1.00
C659   C     0.87237   0.41634   0.17327   0.00000  Uiso   1.00
C660   C     0.85878   0.44376   0.23804   0.00000  Uiso   1.00
C661   C     0.81627   0.48212   0.23421   0.00000  Uiso   1.00
C662   C     0.88909   0.32164   0.13378   0.00000  Uiso   1.00
C663   C     0.88957   0.26943   0.16536   0.00000  Uiso   1.00
C664   C     0.86114   0.22807   0.12830   0.00000  Uiso   1.00
C665   C     0.95567   0.39373   0.10420   0.00000  Uiso   1.00
C666   C     0.01214   0.40211   0.11089   0.00000  Uiso   1.00
C667   C     0.03978   0.42143   0.04891   0.00000  Uiso   1.00
H668   H     0.84441   0.40040   0.99139   0.00000  Uiso   1.00
H669   H     0.78043   0.47335   0.05181   0.00000  Uiso   1.00
H670   H     0.81122   0.29905   0.97914   0.00000  Uiso   1.00
H671   H     0.93378   0.43171   0.92468   0.00000  Uiso   1.00
H672   H     0.72178   0.54956   0.14802   0.00000  Uiso   1.00
H673   H     0.78672   0.18204   0.99478   0.00000  Uiso   1.00
H674   H     0.04515   0.46179   0.87993   0.00000  Uiso   1.00
H675   H     0.93914   0.36461   0.21652   0.00000  Uiso   1.00
H676   H     0.88036   0.43560   0.28930   0.00000  Uiso   1.00
H677   H     0.91114   0.26129   0.21663   0.00000  Uiso   1.00
H678   H     0.03370   0.39396   0.16217   0.00000  Uiso   1.00
H679   H     0.80288   0.51892   0.34078   0.00000  Uiso   1.00
H680   H     0.86782   0.15140   0.18753   0.00000  Uiso   1.00
H681   H     0.12625   0.43114   0.07269   0.00000  Uiso   1.00
O682   O     0.72194   0.58157   0.28822   0.00000  Uiso   1.00
O683   O     0.80715   0.09940   0.08716   0.00000  Uiso   1.00
O684   O     0.14620   0.46642   0.93649   0.00000  Uiso   1.00
N685   N     0.74894   0.53262   0.18340   0.00000  Uiso   1.00
N686   N     0.80965   0.18901   0.04013   0.00000  Uiso   1.00
N687   N     0.05126   0.45053   0.93275   0.00000  Uiso   1.00
N688   N     0.79258   0.51613   0.28712   0.00000  Uiso   1.00
N689   N     0.85329   0.17252   0.14385   0.00000  Uiso   1.00
N690   N     0.09490   0.43404   0.03647   0.00000  Uiso   1.00
C691   C     0.36611   0.89220   0.54297   0.00000  Uiso   1.00
C692   C     0.34449   0.92688   0.60702   0.00000  Uiso   1.00
C693   C     0.30200   0.96521   0.60309   0.00000  Uiso   1.00
C694   C     0.28835   0.99267   0.66784   0.00000  Uiso   1.00
C695   C     0.25052   0.04810   0.75722   0.00000  Uiso   1.00
C696   C     0.36121   0.83218   0.56754   0.00000  Uiso   1.00
C697   C     0.33279   0.79089   0.53041   0.00000  Uiso   1.00
C698   C     0.33322   0.73863   0.56193   0.00000  Uiso   1.00
C699   C     0.32138   0.64702   0.58998   0.00000  Uiso   1.00
C700   C     0.42780   0.90426   0.53795   0.00000  Uiso   1.00
C701   C     0.45536   0.92357   0.47594   0.00000  Uiso   1.00
C702   C     0.51186   0.93199   0.48254   0.00000  Uiso   1.00
C703   C     0.60340   0.95230   0.46465   0.00000  Uiso   1.00
C704   C     0.41743   0.87281   0.66494   0.00000  Uiso   1.00
C705   C     0.37237   0.91634   0.67327   0.00000  Uiso   1.00
C706   C     0.35878   0.94376   0.73804   0.00000  Uiso   1.00
C707   C     0.31627   0.98212   0.73421   0.00000  Uiso   1.00
C708   C     0.38909   0.82164   0.63378   0.00000  Uiso   1.00
C709   C     0.38957   0.76943   0.66536   0.00000  Uiso   1.00
C710   C     0.36114   0.72807   0.62830   0.00000  Uiso   1.00
C711   C     0.45567   0.89373   0.60420   0.00000  Uiso   1.00
C712   C     0.51214   0.90211   0.61089   0.00000  Uiso   1.00
C713   C     0.53978   0.92143   0.54891   0.00000  Uiso   1.00
H714   H     0.34441   0.90040   0.49139   0.00000  Uiso   1.00
H715   H     0.28043   0.97335   0.55181   0.00000  Uiso   1.00
H716   H     0.31122   0.79905   0.47914   0.00000  Uiso   1.00
H717   H     0.43378   0.93171   0.42468   0.00000  Uiso   1.00
H718   H     0.22178   0.04956   0.64802   0.00000  Uiso   1.00
H719   H     0.28672   0.68204   0.49478   0.00000  Uiso   1.00
H720   H     0.54515   0.96179   0.37993   0.00000  Uiso   1.00
H721   H     0.43914   0.86461   0.71652   0.00000  Uiso   1.00
H722   H     0.38036   0.93560   0.78930   0.00000  Uiso   1.00
H723   H     0.41114   0.76129   0.71663   0.00000  Uiso   1.00
H724   H     0.53370   0.89396   0.66217   0.00000  Uiso   1.00
H725   H     0.30288   0.01892   0.84078   0.00000  Uiso   1.00
H726   H     0.36782   0.65140   0.68753   0.00000  Uiso   1.00
H727   H     0.62625   0.93114   0.57269   0.00000  Uiso   1.00
O728   O     0.22194   0.08157   0.78822   0.00000  Uiso   1.00
O729   O     0.30715   0.59940   0.58716   0.00000  Uiso   1.00
O730   O     0.64620   0.96642   0.43649   0.00000  Uiso   1.00
N731   N     0.24894   0.03262   0.68340   0.00000  Uiso   1.00
N732   N     0.30965   0.68901   0.54013   0.00000  Uiso   1.00
N733   N     0.55126   0.95053   0.43275   0.00000  Uiso   1.00
N734   N     0.29258   0.01613   0.78712   0.00000  Uiso   1.00
N735   N     0.35329   0.67252   0.64385   0.00000  Uiso   1.00
N736   N     0.59490   0.93404   0.53647   0.00000  Uiso   1.00
