data_job_02815
_audit_creation_date              2018-12-19
_audit_creation_method            'Materials Studio'
_symmetry_space_group_name_H-M    'P1'
_symmetry_Int_Tables_number       1
_symmetry_cell_setting            triclinic
loop_
_symmetry_equiv_pos_as_xyz
  x,y,z
_cell_length_a                    41.0352
_cell_length_b                    19.8370
_cell_length_c                    15.5386
_cell_angle_alpha                 90.0000
_cell_angle_beta                  90.0000
_cell_angle_gamma                 90.0000
loop_
_atom_site_label
_atom_site_type_symbol
_atom_site_fract_x
_atom_site_fract_y
_atom_site_fract_z
_atom_site_U_iso_or_equiv
_atom_site_adp_type
_atom_site_occupancy
C1     C     0.68260   0.41525   0.76107   0.00000  Uiso   1.00
C2     C     0.66816   0.42879   0.67231   0.00000  Uiso   1.00
C3     C     0.67581   0.39419   0.59736   0.00000  Uiso   1.00
C4     C     0.65995   0.41422   0.52269   0.00000  Uiso   1.00
C5     C     0.64100   0.42724   0.38481   0.00000  Uiso   1.00
C6     C     0.69727   0.48188   0.79096   0.00000  Uiso   1.00
C7     C     0.72940   0.49192   0.81579   0.00000  Uiso   1.00
C8     C     0.73804   0.55664   0.84101   0.00000  Uiso   1.00
C9     C     0.76427   0.65209   0.88739   0.00000  Uiso   1.00
C10    C     0.65374   0.40162   0.82040   0.00000  Uiso   1.00
C11    C     0.64927   0.34417   0.87000   0.00000  Uiso   1.00
C12    C     0.62127   0.34132   0.92003   0.00000  Uiso   1.00
C13    C     0.57992   0.31213   0.01212   0.00000  Uiso   1.00
C14    C     0.64083   0.51234   0.76175   0.00000  Uiso   1.00
C15    C     0.64547   0.48153   0.67268   0.00000  Uiso   1.00
C16    C     0.62960   0.50161   0.59811   0.00000  Uiso   1.00
C17    C     0.63722   0.46705   0.52306   0.00000  Uiso   1.00
C18    C     0.67459   0.53462   0.79133   0.00000  Uiso   1.00
C19    C     0.68318   0.59934   0.81653   0.00000  Uiso   1.00
C20    C     0.71531   0.60947   0.84138   0.00000  Uiso   1.00
C21    C     0.63105   0.45435   0.82077   0.00000  Uiso   1.00
C22    C     0.60305   0.45159   0.87074   0.00000  Uiso   1.00
C23    C     0.59854   0.39415   0.92039   0.00000  Uiso   1.00
H24    H     0.70027   0.37420   0.76079   0.00000  Uiso   1.00
H25    H     0.69337   0.35339   0.59711   0.00000  Uiso   1.00
H26    H     0.74695   0.45110   0.81550   0.00000  Uiso   1.00
H27    H     0.66683   0.30337   0.86970   0.00000  Uiso   1.00
H28    H     0.67574   0.35359   0.41578   0.00000  Uiso   1.00
H29    H     0.78870   0.55962   0.87632   0.00000  Uiso   1.00
H30    H     0.61976   0.24811   0.99061   0.00000  Uiso   1.00
H31    H     0.62316   0.55340   0.76203   0.00000  Uiso   1.00
H32    H     0.61204   0.54242   0.59841   0.00000  Uiso   1.00
H33    H     0.66562   0.64014   0.81681   0.00000  Uiso   1.00
H34    H     0.58550   0.49241   0.87100   0.00000  Uiso   1.00
H35    H     0.60972   0.50702   0.41684   0.00000  Uiso   1.00
H36    H     0.72269   0.71305   0.87738   0.00000  Uiso   1.00
H37    H     0.55375   0.40154   0.99166   0.00000  Uiso   1.00
O38    O     0.63681   0.41986   0.30865   0.00000  Uiso   1.00
O39    O     0.78501   0.69016   0.91287   0.00000  Uiso   1.00
O40    O     0.56337   0.28146   0.06280   0.00000  Uiso   1.00
N41    N     0.66172   0.39120   0.43849   0.00000  Uiso   1.00
N42    N     0.76734   0.58382   0.86905   0.00000  Uiso   1.00
N43    N     0.60940   0.29259   0.97592   0.00000  Uiso   1.00
N44    N     0.62620   0.47375   0.43906   0.00000  Uiso   1.00
N45    N     0.73182   0.66638   0.86962   0.00000  Uiso   1.00
N46    N     0.57388   0.37515   0.97648   0.00000  Uiso   1.00
C47    C     0.68260   0.91525   0.26107   0.00000  Uiso   1.00
C48    C     0.66816   0.92879   0.17231   0.00000  Uiso   1.00
C49    C     0.67581   0.89419   0.09736   0.00000  Uiso   1.00
C50    C     0.65995   0.91422   0.02269   0.00000  Uiso   1.00
C51    C     0.64100   0.92724   0.88481   0.00000  Uiso   1.00
C52    C     0.69727   0.98188   0.29096   0.00000  Uiso   1.00
C53    C     0.72940   0.99192   0.31579   0.00000  Uiso   1.00
C54    C     0.73804   0.05664   0.34101   0.00000  Uiso   1.00
C55    C     0.76427   0.15209   0.38739   0.00000  Uiso   1.00
C56    C     0.65374   0.90162   0.32040   0.00000  Uiso   1.00
C57    C     0.64927   0.84417   0.37000   0.00000  Uiso   1.00
C58    C     0.62127   0.84132   0.42003   0.00000  Uiso   1.00
C59    C     0.57992   0.81213   0.51212   0.00000  Uiso   1.00
C60    C     0.64083   0.01234   0.26175   0.00000  Uiso   1.00
C61    C     0.64547   0.98153   0.17268   0.00000  Uiso   1.00
C62    C     0.62960   0.00161   0.09811   0.00000  Uiso   1.00
C63    C     0.63722   0.96705   0.02306   0.00000  Uiso   1.00
C64    C     0.67459   0.03462   0.29133   0.00000  Uiso   1.00
C65    C     0.68318   0.09934   0.31653   0.00000  Uiso   1.00
C66    C     0.71531   0.10947   0.34138   0.00000  Uiso   1.00
C67    C     0.63105   0.95435   0.32077   0.00000  Uiso   1.00
C68    C     0.60305   0.95159   0.37074   0.00000  Uiso   1.00
C69    C     0.59854   0.89415   0.42039   0.00000  Uiso   1.00
H70    H     0.70027   0.87420   0.26079   0.00000  Uiso   1.00
H71    H     0.69337   0.85339   0.09711   0.00000  Uiso   1.00
H72    H     0.74695   0.95110   0.31550   0.00000  Uiso   1.00
H73    H     0.66683   0.80337   0.36970   0.00000  Uiso   1.00
H74    H     0.67574   0.85359   0.91578   0.00000  Uiso   1.00
H75    H     0.78870   0.05962   0.37632   0.00000  Uiso   1.00
H76    H     0.61976   0.74811   0.49061   0.00000  Uiso   1.00
H77    H     0.62316   0.05340   0.26203   0.00000  Uiso   1.00
H78    H     0.61204   0.04242   0.09841   0.00000  Uiso   1.00
H79    H     0.66562   0.14014   0.31681   0.00000  Uiso   1.00
H80    H     0.58550   0.99241   0.37100   0.00000  Uiso   1.00
H81    H     0.60972   0.00702   0.91684   0.00000  Uiso   1.00
H82    H     0.72269   0.21305   0.37738   0.00000  Uiso   1.00
H83    H     0.55375   0.90154   0.49166   0.00000  Uiso   1.00
O84    O     0.63681   0.91986   0.80865   0.00000  Uiso   1.00
O85    O     0.78501   0.19016   0.41287   0.00000  Uiso   1.00
O86    O     0.56337   0.78146   0.56280   0.00000  Uiso   1.00
N87    N     0.66172   0.89120   0.93849   0.00000  Uiso   1.00
N88    N     0.76734   0.08382   0.36905   0.00000  Uiso   1.00
N89    N     0.60940   0.79259   0.47592   0.00000  Uiso   1.00
N90    N     0.62620   0.97375   0.93906   0.00000  Uiso   1.00
N91    N     0.73182   0.16638   0.36962   0.00000  Uiso   1.00
N92    N     0.57388   0.87515   0.47648   0.00000  Uiso   1.00
C93    C     0.18260   0.41525   0.26107   0.00000  Uiso   1.00
C94    C     0.16816   0.42879   0.17231   0.00000  Uiso   1.00
C95    C     0.17581   0.39419   0.09736   0.00000  Uiso   1.00
C96    C     0.15995   0.41422   0.02269   0.00000  Uiso   1.00
C97    C     0.14100   0.42724   0.88481   0.00000  Uiso   1.00
C98    C     0.19727   0.48188   0.29096   0.00000  Uiso   1.00
C99    C     0.22940   0.49192   0.31579   0.00000  Uiso   1.00
C100   C     0.23804   0.55664   0.34101   0.00000  Uiso   1.00
C101   C     0.26427   0.65209   0.38739   0.00000  Uiso   1.00
C102   C     0.15374   0.40162   0.32040   0.00000  Uiso   1.00
C103   C     0.14927   0.34417   0.37000   0.00000  Uiso   1.00
C104   C     0.12127   0.34132   0.42003   0.00000  Uiso   1.00
C105   C     0.07992   0.31213   0.51212   0.00000  Uiso   1.00
C106   C     0.14083   0.51234   0.26175   0.00000  Uiso   1.00
C107   C     0.14547   0.48153   0.17268   0.00000  Uiso   1.00
C108   C     0.12960   0.50161   0.09811   0.00000  Uiso   1.00
C109   C     0.13722   0.46705   0.02306   0.00000  Uiso   1.00
C110   C     0.17459   0.53462   0.29133   0.00000  Uiso   1.00
C111   C     0.18318   0.59934   0.31653   0.00000  Uiso   1.00
C112   C     0.21531   0.60947   0.34138   0.00000  Uiso   1.00
C113   C     0.13105   0.45435   0.32077   0.00000  Uiso   1.00
C114   C     0.10305   0.45159   0.37074   0.00000  Uiso   1.00
C115   C     0.09854   0.39415   0.42039   0.00000  Uiso   1.00
H116   H     0.20027   0.37420   0.26079   0.00000  Uiso   1.00
H117   H     0.19337   0.35339   0.09711   0.00000  Uiso   1.00
H118   H     0.24695   0.45110   0.31550   0.00000  Uiso   1.00
H119   H     0.16683   0.30337   0.36970   0.00000  Uiso   1.00
H120   H     0.17574   0.35359   0.91578   0.00000  Uiso   1.00
H121   H     0.28870   0.55962   0.37632   0.00000  Uiso   1.00
H122   H     0.11976   0.24811   0.49061   0.00000  Uiso   1.00
H123   H     0.12316   0.55340   0.26203   0.00000  Uiso   1.00
H124   H     0.11204   0.54242   0.09841   0.00000  Uiso   1.00
H125   H     0.16562   0.64014   0.31681   0.00000  Uiso   1.00
H126   H     0.08550   0.49241   0.37100   0.00000  Uiso   1.00
H127   H     0.10972   0.50702   0.91684   0.00000  Uiso   1.00
H128   H     0.22269   0.71305   0.37738   0.00000  Uiso   1.00
H129   H     0.05375   0.40154   0.49166   0.00000  Uiso   1.00
O130   O     0.13681   0.41986   0.80865   0.00000  Uiso   1.00
O131   O     0.28501   0.69016   0.41287   0.00000  Uiso   1.00
O132   O     0.06337   0.28146   0.56280   0.00000  Uiso   1.00
N133   N     0.16172   0.39120   0.93849   0.00000  Uiso   1.00
N134   N     0.26734   0.58382   0.36905   0.00000  Uiso   1.00
N135   N     0.10940   0.29259   0.47592   0.00000  Uiso   1.00
N136   N     0.12620   0.47375   0.93906   0.00000  Uiso   1.00
N137   N     0.23182   0.66638   0.36962   0.00000  Uiso   1.00
N138   N     0.07388   0.37515   0.47648   0.00000  Uiso   1.00
C139   C     0.18260   0.91525   0.76107   0.00000  Uiso   1.00
C140   C     0.16816   0.92879   0.67231   0.00000  Uiso   1.00
C141   C     0.17581   0.89419   0.59736   0.00000  Uiso   1.00
C142   C     0.15995   0.91422   0.52269   0.00000  Uiso   1.00
C143   C     0.14100   0.92724   0.38481   0.00000  Uiso   1.00
C144   C     0.19727   0.98188   0.79096   0.00000  Uiso   1.00
C145   C     0.22940   0.99192   0.81579   0.00000  Uiso   1.00
C146   C     0.23804   0.05664   0.84101   0.00000  Uiso   1.00
C147   C     0.26427   0.15209   0.88739   0.00000  Uiso   1.00
C148   C     0.15374   0.90162   0.82040   0.00000  Uiso   1.00
C149   C     0.14927   0.84417   0.87000   0.00000  Uiso   1.00
C150   C     0.12127   0.84132   0.92003   0.00000  Uiso   1.00
C151   C     0.07992   0.81213   0.01212   0.00000  Uiso   1.00
C152   C     0.14083   0.01234   0.76175   0.00000  Uiso   1.00
C153   C     0.14547   0.98153   0.67268   0.00000  Uiso   1.00
C154   C     0.12960   0.00161   0.59811   0.00000  Uiso   1.00
C155   C     0.13722   0.96705   0.52306   0.00000  Uiso   1.00
C156   C     0.17459   0.03462   0.79133   0.00000  Uiso   1.00
C157   C     0.18318   0.09934   0.81653   0.00000  Uiso   1.00
C158   C     0.21531   0.10947   0.84138   0.00000  Uiso   1.00
C159   C     0.13105   0.95435   0.82077   0.00000  Uiso   1.00
C160   C     0.10305   0.95159   0.87074   0.00000  Uiso   1.00
C161   C     0.09854   0.89415   0.92039   0.00000  Uiso   1.00
H162   H     0.20027   0.87420   0.76079   0.00000  Uiso   1.00
H163   H     0.19337   0.85339   0.59711   0.00000  Uiso   1.00
H164   H     0.24695   0.95110   0.81550   0.00000  Uiso   1.00
H165   H     0.16683   0.80337   0.86970   0.00000  Uiso   1.00
H166   H     0.17574   0.85359   0.41578   0.00000  Uiso   1.00
H167   H     0.28870   0.05962   0.87632   0.00000  Uiso   1.00
H168   H     0.11976   0.74811   0.99061   0.00000  Uiso   1.00
H169   H     0.12316   0.05340   0.76203   0.00000  Uiso   1.00
H170   H     0.11204   0.04242   0.59841   0.00000  Uiso   1.00
H171   H     0.16562   0.14014   0.81681   0.00000  Uiso   1.00
H172   H     0.08550   0.99241   0.87100   0.00000  Uiso   1.00
H173   H     0.10972   0.00702   0.41684   0.00000  Uiso   1.00
H174   H     0.22269   0.21305   0.87738   0.00000  Uiso   1.00
H175   H     0.05375   0.90154   0.99166   0.00000  Uiso   1.00
O176   O     0.13681   0.91986   0.30865   0.00000  Uiso   1.00
O177   O     0.28501   0.19016   0.91287   0.00000  Uiso   1.00
O178   O     0.06337   0.78146   0.06280   0.00000  Uiso   1.00
N179   N     0.16172   0.89120   0.43849   0.00000  Uiso   1.00
N180   N     0.26734   0.08382   0.86905   0.00000  Uiso   1.00
N181   N     0.10940   0.79259   0.97592   0.00000  Uiso   1.00
N182   N     0.12620   0.97375   0.43906   0.00000  Uiso   1.00
N183   N     0.23182   0.16638   0.86962   0.00000  Uiso   1.00
N184   N     0.07388   0.87515   0.97648   0.00000  Uiso   1.00
C185   C     0.31740   0.58475   0.76107   0.00000  Uiso   1.00
C186   C     0.33184   0.57121   0.67231   0.00000  Uiso   1.00
C187   C     0.32419   0.60581   0.59736   0.00000  Uiso   1.00
C188   C     0.34005   0.58578   0.52269   0.00000  Uiso   1.00
C189   C     0.35900   0.57276   0.38481   0.00000  Uiso   1.00
C190   C     0.30273   0.51812   0.79096   0.00000  Uiso   1.00
C191   C     0.27060   0.50808   0.81579   0.00000  Uiso   1.00
C192   C     0.26196   0.44336   0.84101   0.00000  Uiso   1.00
C193   C     0.23573   0.34791   0.88739   0.00000  Uiso   1.00
C194   C     0.34626   0.59838   0.82040   0.00000  Uiso   1.00
C195   C     0.35073   0.65583   0.87000   0.00000  Uiso   1.00
C196   C     0.37873   0.65868   0.92003   0.00000  Uiso   1.00
C197   C     0.42008   0.68787   0.01212   0.00000  Uiso   1.00
C198   C     0.35917   0.48766   0.76175   0.00000  Uiso   1.00
C199   C     0.35453   0.51847   0.67268   0.00000  Uiso   1.00
C200   C     0.37040   0.49839   0.59811   0.00000  Uiso   1.00
C201   C     0.36278   0.53295   0.52306   0.00000  Uiso   1.00
C202   C     0.32541   0.46538   0.79133   0.00000  Uiso   1.00
C203   C     0.31682   0.40066   0.81653   0.00000  Uiso   1.00
C204   C     0.28469   0.39053   0.84138   0.00000  Uiso   1.00
C205   C     0.36895   0.54565   0.82077   0.00000  Uiso   1.00
C206   C     0.39695   0.54841   0.87074   0.00000  Uiso   1.00
C207   C     0.40146   0.60585   0.92039   0.00000  Uiso   1.00
H208   H     0.29973   0.62580   0.76079   0.00000  Uiso   1.00
H209   H     0.30663   0.64661   0.59711   0.00000  Uiso   1.00
H210   H     0.25305   0.54890   0.81550   0.00000  Uiso   1.00
H211   H     0.33317   0.69663   0.86970   0.00000  Uiso   1.00
H212   H     0.32426   0.64641   0.41578   0.00000  Uiso   1.00
H213   H     0.21130   0.44038   0.87632   0.00000  Uiso   1.00
H214   H     0.38024   0.75189   0.99061   0.00000  Uiso   1.00
H215   H     0.37684   0.44660   0.76203   0.00000  Uiso   1.00
H216   H     0.38796   0.45758   0.59841   0.00000  Uiso   1.00
H217   H     0.33438   0.35986   0.81681   0.00000  Uiso   1.00
H218   H     0.41450   0.50759   0.87100   0.00000  Uiso   1.00
H219   H     0.39028   0.49298   0.41684   0.00000  Uiso   1.00
H220   H     0.27731   0.28695   0.87738   0.00000  Uiso   1.00
H221   H     0.44625   0.59846   0.99166   0.00000  Uiso   1.00
O222   O     0.36319   0.58014   0.30865   0.00000  Uiso   1.00
O223   O     0.21499   0.30984   0.91287   0.00000  Uiso   1.00
O224   O     0.43663   0.71854   0.06280   0.00000  Uiso   1.00
N225   N     0.33828   0.60880   0.43849   0.00000  Uiso   1.00
N226   N     0.23266   0.41618   0.86905   0.00000  Uiso   1.00
N227   N     0.39060   0.70741   0.97592   0.00000  Uiso   1.00
N228   N     0.37380   0.52625   0.43906   0.00000  Uiso   1.00
N229   N     0.26818   0.33362   0.86962   0.00000  Uiso   1.00
N230   N     0.42612   0.62485   0.97648   0.00000  Uiso   1.00
C231   C     0.31740   0.08475   0.26107   0.00000  Uiso   1.00
C232   C     0.33184   0.07121   0.17231   0.00000  Uiso   1.00
C233   C     0.32419   0.10581   0.09736   0.00000  Uiso   1.00
C234   C     0.34005   0.08578   0.02269   0.00000  Uiso   1.00
C235   C     0.35900   0.07276   0.88481   0.00000  Uiso   1.00
C236   C     0.30273   0.01812   0.29096   0.00000  Uiso   1.00
C237   C     0.27060   0.00808   0.31579   0.00000  Uiso   1.00
C238   C     0.26196   0.94336   0.34101   0.00000  Uiso   1.00
C239   C     0.23573   0.84791   0.38739   0.00000  Uiso   1.00
C240   C     0.34626   0.09838   0.32040   0.00000  Uiso   1.00
C241   C     0.35073   0.15583   0.37000   0.00000  Uiso   1.00
C242   C     0.37873   0.15868   0.42003   0.00000  Uiso   1.00
C243   C     0.42008   0.18787   0.51212   0.00000  Uiso   1.00
C244   C     0.35917   0.98766   0.26175   0.00000  Uiso   1.00
C245   C     0.35453   0.01847   0.17268   0.00000  Uiso   1.00
C246   C     0.37040   0.99839   0.09811   0.00000  Uiso   1.00
C247   C     0.36278   0.03295   0.02306   0.00000  Uiso   1.00
C248   C     0.32541   0.96538   0.29133   0.00000  Uiso   1.00
C249   C     0.31682   0.90066   0.31653   0.00000  Uiso   1.00
C250   C     0.28469   0.89053   0.34138   0.00000  Uiso   1.00
C251   C     0.36895   0.04565   0.32077   0.00000  Uiso   1.00
C252   C     0.39695   0.04841   0.37074   0.00000  Uiso   1.00
C253   C     0.40146   0.10585   0.42039   0.00000  Uiso   1.00
H254   H     0.29973   0.12580   0.26079   0.00000  Uiso   1.00
H255   H     0.30663   0.14661   0.09711   0.00000  Uiso   1.00
H256   H     0.25305   0.04890   0.31550   0.00000  Uiso   1.00
H257   H     0.33317   0.19663   0.36970   0.00000  Uiso   1.00
H258   H     0.32426   0.14641   0.91578   0.00000  Uiso   1.00
H259   H     0.21130   0.94038   0.37632   0.00000  Uiso   1.00
H260   H     0.38024   0.25189   0.49061   0.00000  Uiso   1.00
H261   H     0.37684   0.94660   0.26203   0.00000  Uiso   1.00
H262   H     0.38796   0.95758   0.09841   0.00000  Uiso   1.00
H263   H     0.33438   0.85986   0.31681   0.00000  Uiso   1.00
H264   H     0.41450   0.00759   0.37100   0.00000  Uiso   1.00
H265   H     0.39028   0.99298   0.91684   0.00000  Uiso   1.00
H266   H     0.27731   0.78695   0.37738   0.00000  Uiso   1.00
H267   H     0.44625   0.09846   0.49166   0.00000  Uiso   1.00
O268   O     0.36319   0.08014   0.80865   0.00000  Uiso   1.00
O269   O     0.21499   0.80984   0.41287   0.00000  Uiso   1.00
O270   O     0.43663   0.21854   0.56280   0.00000  Uiso   1.00
N271   N     0.33828   0.10880   0.93849   0.00000  Uiso   1.00
N272   N     0.23266   0.91618   0.36905   0.00000  Uiso   1.00
N273   N     0.39060   0.20741   0.47592   0.00000  Uiso   1.00
N274   N     0.37380   0.02625   0.93906   0.00000  Uiso   1.00
N275   N     0.26818   0.83362   0.36962   0.00000  Uiso   1.00
N276   N     0.42612   0.12485   0.47648   0.00000  Uiso   1.00
C277   C     0.81740   0.58475   0.26107   0.00000  Uiso   1.00
C278   C     0.83184   0.57121   0.17231   0.00000  Uiso   1.00
C279   C     0.82419   0.60581   0.09736   0.00000  Uiso   1.00
C280   C     0.84005   0.58578   0.02269   0.00000  Uiso   1.00
C281   C     0.85900   0.57276   0.88481   0.00000  Uiso   1.00
C282   C     0.80273   0.51812   0.29096   0.00000  Uiso   1.00
C283   C     0.77060   0.50808   0.31579   0.00000  Uiso   1.00
C284   C     0.76196   0.44336   0.34101   0.00000  Uiso   1.00
C285   C     0.73573   0.34791   0.38739   0.00000  Uiso   1.00
C286   C     0.84626   0.59838   0.32040   0.00000  Uiso   1.00
C287   C     0.85073   0.65583   0.37000   0.00000  Uiso   1.00
C288   C     0.87873   0.65868   0.42003   0.00000  Uiso   1.00
C289   C     0.92008   0.68787   0.51212   0.00000  Uiso   1.00
C290   C     0.85917   0.48766   0.26175   0.00000  Uiso   1.00
C291   C     0.85453   0.51847   0.17268   0.00000  Uiso   1.00
C292   C     0.87040   0.49839   0.09811   0.00000  Uiso   1.00
C293   C     0.86278   0.53295   0.02306   0.00000  Uiso   1.00
C294   C     0.82541   0.46538   0.29133   0.00000  Uiso   1.00
C295   C     0.81682   0.40066   0.31653   0.00000  Uiso   1.00
C296   C     0.78469   0.39053   0.34138   0.00000  Uiso   1.00
C297   C     0.86895   0.54565   0.32077   0.00000  Uiso   1.00
C298   C     0.89695   0.54841   0.37074   0.00000  Uiso   1.00
C299   C     0.90146   0.60585   0.42039   0.00000  Uiso   1.00
H300   H     0.79973   0.62580   0.26079   0.00000  Uiso   1.00
H301   H     0.80663   0.64661   0.09711   0.00000  Uiso   1.00
H302   H     0.75305   0.54890   0.31550   0.00000  Uiso   1.00
H303   H     0.83317   0.69663   0.36970   0.00000  Uiso   1.00
H304   H     0.82426   0.64641   0.91578   0.00000  Uiso   1.00
H305   H     0.71130   0.44038   0.37632   0.00000  Uiso   1.00
H306   H     0.88024   0.75189   0.49061   0.00000  Uiso   1.00
H307   H     0.87684   0.44660   0.26203   0.00000  Uiso   1.00
H308   H     0.88796   0.45758   0.09841   0.00000  Uiso   1.00
H309   H     0.83438   0.35986   0.31681   0.00000  Uiso   1.00
H310   H     0.91450   0.50759   0.37100   0.00000  Uiso   1.00
H311   H     0.89028   0.49298   0.91684   0.00000  Uiso   1.00
H312   H     0.77731   0.28695   0.37738   0.00000  Uiso   1.00
H313   H     0.94625   0.59846   0.49166   0.00000  Uiso   1.00
O314   O     0.86319   0.58014   0.80865   0.00000  Uiso   1.00
O315   O     0.71499   0.30984   0.41287   0.00000  Uiso   1.00
O316   O     0.93663   0.71854   0.56280   0.00000  Uiso   1.00
N317   N     0.83828   0.60880   0.93849   0.00000  Uiso   1.00
N318   N     0.73266   0.41618   0.36905   0.00000  Uiso   1.00
N319   N     0.89060   0.70741   0.47592   0.00000  Uiso   1.00
N320   N     0.87380   0.52625   0.93906   0.00000  Uiso   1.00
N321   N     0.76818   0.33362   0.36962   0.00000  Uiso   1.00
N322   N     0.92612   0.62485   0.47648   0.00000  Uiso   1.00
C323   C     0.81740   0.08475   0.76107   0.00000  Uiso   1.00
C324   C     0.83184   0.07121   0.67231   0.00000  Uiso   1.00
C325   C     0.82419   0.10581   0.59736   0.00000  Uiso   1.00
C326   C     0.84005   0.08578   0.52269   0.00000  Uiso   1.00
C327   C     0.85900   0.07276   0.38481   0.00000  Uiso   1.00
C328   C     0.80273   0.01812   0.79096   0.00000  Uiso   1.00
C329   C     0.77060   0.00808   0.81579   0.00000  Uiso   1.00
C330   C     0.76196   0.94336   0.84101   0.00000  Uiso   1.00
C331   C     0.73573   0.84791   0.88739   0.00000  Uiso   1.00
C332   C     0.84626   0.09838   0.82040   0.00000  Uiso   1.00
C333   C     0.85073   0.15583   0.87000   0.00000  Uiso   1.00
C334   C     0.87873   0.15868   0.92003   0.00000  Uiso   1.00
C335   C     0.92008   0.18787   0.01212   0.00000  Uiso   1.00
C336   C     0.85917   0.98766   0.76175   0.00000  Uiso   1.00
C337   C     0.85453   0.01847   0.67268   0.00000  Uiso   1.00
C338   C     0.87040   0.99839   0.59811   0.00000  Uiso   1.00
C339   C     0.86278   0.03295   0.52306   0.00000  Uiso   1.00
C340   C     0.82541   0.96538   0.79133   0.00000  Uiso   1.00
C341   C     0.81682   0.90066   0.81653   0.00000  Uiso   1.00
C342   C     0.78469   0.89053   0.84138   0.00000  Uiso   1.00
C343   C     0.86895   0.04565   0.82077   0.00000  Uiso   1.00
C344   C     0.89695   0.04841   0.87074   0.00000  Uiso   1.00
C345   C     0.90146   0.10585   0.92039   0.00000  Uiso   1.00
H346   H     0.79973   0.12580   0.76079   0.00000  Uiso   1.00
H347   H     0.80663   0.14661   0.59711   0.00000  Uiso   1.00
H348   H     0.75305   0.04890   0.81550   0.00000  Uiso   1.00
H349   H     0.83317   0.19663   0.86970   0.00000  Uiso   1.00
H350   H     0.82426   0.14641   0.41578   0.00000  Uiso   1.00
H351   H     0.71130   0.94038   0.87632   0.00000  Uiso   1.00
H352   H     0.88024   0.25189   0.99061   0.00000  Uiso   1.00
H353   H     0.87684   0.94660   0.76203   0.00000  Uiso   1.00
H354   H     0.88796   0.95758   0.59841   0.00000  Uiso   1.00
H355   H     0.83438   0.85986   0.81681   0.00000  Uiso   1.00
H356   H     0.91450   0.00759   0.87100   0.00000  Uiso   1.00
H357   H     0.89028   0.99298   0.41684   0.00000  Uiso   1.00
H358   H     0.77731   0.78695   0.87738   0.00000  Uiso   1.00
H359   H     0.94625   0.09846   0.99166   0.00000  Uiso   1.00
O360   O     0.86319   0.08014   0.30865   0.00000  Uiso   1.00
O361   O     0.71499   0.80984   0.91287   0.00000  Uiso   1.00
O362   O     0.93663   0.21854   0.06280   0.00000  Uiso   1.00
N363   N     0.83828   0.10880   0.43849   0.00000  Uiso   1.00
N364   N     0.73266   0.91618   0.86905   0.00000  Uiso   1.00
N365   N     0.89060   0.20741   0.97592   0.00000  Uiso   1.00
N366   N     0.87380   0.02625   0.43906   0.00000  Uiso   1.00
N367   N     0.76818   0.83362   0.86962   0.00000  Uiso   1.00
N368   N     0.92612   0.12485   0.97648   0.00000  Uiso   1.00
C369   C     0.93260   0.83475   0.01107   0.00000  Uiso   1.00
C370   C     0.91816   0.82121   0.92231   0.00000  Uiso   1.00
C371   C     0.92581   0.85581   0.84736   0.00000  Uiso   1.00
C372   C     0.90995   0.83578   0.77269   0.00000  Uiso   1.00
C373   C     0.89100   0.82276   0.63481   0.00000  Uiso   1.00
C374   C     0.94727   0.76812   0.04096   0.00000  Uiso   1.00
C375   C     0.97940   0.75808   0.06579   0.00000  Uiso   1.00
C376   C     0.98804   0.69336   0.09101   0.00000  Uiso   1.00
C377   C     0.01427   0.59791   0.13739   0.00000  Uiso   1.00
C378   C     0.90374   0.84838   0.07040   0.00000  Uiso   1.00
C379   C     0.89927   0.90583   0.12000   0.00000  Uiso   1.00
C380   C     0.87127   0.90868   0.17003   0.00000  Uiso   1.00
C381   C     0.82992   0.93787   0.26212   0.00000  Uiso   1.00
C382   C     0.89083   0.73766   0.01175   0.00000  Uiso   1.00
C383   C     0.89547   0.76847   0.92268   0.00000  Uiso   1.00
C384   C     0.87960   0.74839   0.84811   0.00000  Uiso   1.00
C385   C     0.88722   0.78295   0.77306   0.00000  Uiso   1.00
C386   C     0.92459   0.71538   0.04133   0.00000  Uiso   1.00
C387   C     0.93318   0.65066   0.06653   0.00000  Uiso   1.00
C388   C     0.96531   0.64053   0.09138   0.00000  Uiso   1.00
C389   C     0.88105   0.79565   0.07077   0.00000  Uiso   1.00
C390   C     0.85305   0.79841   0.12074   0.00000  Uiso   1.00
C391   C     0.84854   0.85585   0.17039   0.00000  Uiso   1.00
H392   H     0.95027   0.87580   0.01079   0.00000  Uiso   1.00
H393   H     0.94337   0.89661   0.84711   0.00000  Uiso   1.00
H394   H     0.99695   0.79890   0.06550   0.00000  Uiso   1.00
H395   H     0.91683   0.94663   0.11970   0.00000  Uiso   1.00
H396   H     0.92574   0.89641   0.66578   0.00000  Uiso   1.00
H397   H     0.03870   0.69038   0.12632   0.00000  Uiso   1.00
H398   H     0.86976   0.00189   0.24061   0.00000  Uiso   1.00
H399   H     0.87316   0.69660   0.01203   0.00000  Uiso   1.00
H400   H     0.86204   0.70758   0.84841   0.00000  Uiso   1.00
H401   H     0.91562   0.60986   0.06681   0.00000  Uiso   1.00
H402   H     0.83550   0.75759   0.12100   0.00000  Uiso   1.00
H403   H     0.85972   0.74298   0.66684   0.00000  Uiso   1.00
H404   H     0.97269   0.53695   0.12738   0.00000  Uiso   1.00
H405   H     0.80375   0.84846   0.24166   0.00000  Uiso   1.00
O406   O     0.88681   0.83014   0.55865   0.00000  Uiso   1.00
O407   O     0.03501   0.55984   0.16287   0.00000  Uiso   1.00
O408   O     0.81337   0.96854   0.31280   0.00000  Uiso   1.00
N409   N     0.91172   0.85880   0.68849   0.00000  Uiso   1.00
N410   N     0.01734   0.66618   0.11905   0.00000  Uiso   1.00
N411   N     0.85940   0.95741   0.22592   0.00000  Uiso   1.00
N412   N     0.87620   0.77625   0.68906   0.00000  Uiso   1.00
N413   N     0.98182   0.58362   0.11962   0.00000  Uiso   1.00
N414   N     0.82388   0.87485   0.22648   0.00000  Uiso   1.00
C415   C     0.93260   0.33475   0.51107   0.00000  Uiso   1.00
C416   C     0.91816   0.32121   0.42231   0.00000  Uiso   1.00
C417   C     0.92581   0.35581   0.34736   0.00000  Uiso   1.00
C418   C     0.90995   0.33578   0.27269   0.00000  Uiso   1.00
C419   C     0.89100   0.32276   0.13481   0.00000  Uiso   1.00
C420   C     0.94727   0.26812   0.54096   0.00000  Uiso   1.00
C421   C     0.97940   0.25808   0.56579   0.00000  Uiso   1.00
C422   C     0.98804   0.19336   0.59101   0.00000  Uiso   1.00
C423   C     0.01427   0.09791   0.63739   0.00000  Uiso   1.00
C424   C     0.90374   0.34838   0.57040   0.00000  Uiso   1.00
C425   C     0.89927   0.40583   0.62000   0.00000  Uiso   1.00
C426   C     0.87127   0.40868   0.67003   0.00000  Uiso   1.00
C427   C     0.82992   0.43787   0.76212   0.00000  Uiso   1.00
C428   C     0.89083   0.23766   0.51175   0.00000  Uiso   1.00
C429   C     0.89547   0.26847   0.42268   0.00000  Uiso   1.00
C430   C     0.87960   0.24839   0.34811   0.00000  Uiso   1.00
C431   C     0.88722   0.28295   0.27306   0.00000  Uiso   1.00
C432   C     0.92459   0.21538   0.54133   0.00000  Uiso   1.00
C433   C     0.93318   0.15066   0.56653   0.00000  Uiso   1.00
C434   C     0.96531   0.14053   0.59138   0.00000  Uiso   1.00
C435   C     0.88105   0.29565   0.57077   0.00000  Uiso   1.00
C436   C     0.85305   0.29841   0.62074   0.00000  Uiso   1.00
C437   C     0.84854   0.35585   0.67039   0.00000  Uiso   1.00
H438   H     0.95027   0.37580   0.51079   0.00000  Uiso   1.00
H439   H     0.94337   0.39661   0.34711   0.00000  Uiso   1.00
H440   H     0.99695   0.29890   0.56550   0.00000  Uiso   1.00
H441   H     0.91683   0.44663   0.61970   0.00000  Uiso   1.00
H442   H     0.92574   0.39641   0.16578   0.00000  Uiso   1.00
H443   H     0.03870   0.19038   0.62632   0.00000  Uiso   1.00
H444   H     0.86976   0.50189   0.74061   0.00000  Uiso   1.00
H445   H     0.87316   0.19660   0.51203   0.00000  Uiso   1.00
H446   H     0.86204   0.20758   0.34841   0.00000  Uiso   1.00
H447   H     0.91562   0.10986   0.56681   0.00000  Uiso   1.00
H448   H     0.83550   0.25759   0.62100   0.00000  Uiso   1.00
H449   H     0.85972   0.24298   0.16684   0.00000  Uiso   1.00
H450   H     0.97269   0.03695   0.62738   0.00000  Uiso   1.00
H451   H     0.80375   0.34846   0.74166   0.00000  Uiso   1.00
O452   O     0.88681   0.33014   0.05865   0.00000  Uiso   1.00
O453   O     0.03501   0.05984   0.66287   0.00000  Uiso   1.00
O454   O     0.81337   0.46854   0.81280   0.00000  Uiso   1.00
N455   N     0.91172   0.35880   0.18849   0.00000  Uiso   1.00
N456   N     0.01734   0.16618   0.61905   0.00000  Uiso   1.00
N457   N     0.85940   0.45741   0.72592   0.00000  Uiso   1.00
N458   N     0.87620   0.27625   0.18906   0.00000  Uiso   1.00
N459   N     0.98182   0.08362   0.61962   0.00000  Uiso   1.00
N460   N     0.82388   0.37485   0.72648   0.00000  Uiso   1.00
C461   C     0.43260   0.83475   0.51107   0.00000  Uiso   1.00
C462   C     0.41816   0.82121   0.42231   0.00000  Uiso   1.00
C463   C     0.42581   0.85581   0.34736   0.00000  Uiso   1.00
C464   C     0.40995   0.83578   0.27269   0.00000  Uiso   1.00
C465   C     0.39100   0.82276   0.13481   0.00000  Uiso   1.00
C466   C     0.44727   0.76812   0.54096   0.00000  Uiso   1.00
C467   C     0.47940   0.75808   0.56579   0.00000  Uiso   1.00
C468   C     0.48804   0.69336   0.59101   0.00000  Uiso   1.00
C469   C     0.51427   0.59791   0.63739   0.00000  Uiso   1.00
C470   C     0.40374   0.84838   0.57040   0.00000  Uiso   1.00
C471   C     0.39927   0.90583   0.62000   0.00000  Uiso   1.00
C472   C     0.37127   0.90868   0.67003   0.00000  Uiso   1.00
C473   C     0.32992   0.93787   0.76212   0.00000  Uiso   1.00
C474   C     0.39083   0.73766   0.51175   0.00000  Uiso   1.00
C475   C     0.39547   0.76847   0.42268   0.00000  Uiso   1.00
C476   C     0.37960   0.74839   0.34811   0.00000  Uiso   1.00
C477   C     0.38722   0.78295   0.27306   0.00000  Uiso   1.00
C478   C     0.42459   0.71538   0.54133   0.00000  Uiso   1.00
C479   C     0.43318   0.65066   0.56653   0.00000  Uiso   1.00
C480   C     0.46531   0.64053   0.59138   0.00000  Uiso   1.00
C481   C     0.38105   0.79565   0.57077   0.00000  Uiso   1.00
C482   C     0.35305   0.79841   0.62074   0.00000  Uiso   1.00
C483   C     0.34854   0.85585   0.67039   0.00000  Uiso   1.00
H484   H     0.45027   0.87580   0.51079   0.00000  Uiso   1.00
H485   H     0.44337   0.89661   0.34711   0.00000  Uiso   1.00
H486   H     0.49695   0.79890   0.56550   0.00000  Uiso   1.00
H487   H     0.41683   0.94663   0.61970   0.00000  Uiso   1.00
H488   H     0.42574   0.89641   0.16578   0.00000  Uiso   1.00
H489   H     0.53870   0.69038   0.62632   0.00000  Uiso   1.00
H490   H     0.36976   0.00189   0.74061   0.00000  Uiso   1.00
H491   H     0.37316   0.69660   0.51203   0.00000  Uiso   1.00
H492   H     0.36204   0.70758   0.34841   0.00000  Uiso   1.00
H493   H     0.41562   0.60986   0.56681   0.00000  Uiso   1.00
H494   H     0.33550   0.75759   0.62100   0.00000  Uiso   1.00
H495   H     0.35972   0.74298   0.16684   0.00000  Uiso   1.00
H496   H     0.47269   0.53695   0.62738   0.00000  Uiso   1.00
H497   H     0.30375   0.84846   0.74166   0.00000  Uiso   1.00
O498   O     0.38681   0.83014   0.05865   0.00000  Uiso   1.00
O499   O     0.53501   0.55984   0.66287   0.00000  Uiso   1.00
O500   O     0.31337   0.96854   0.81280   0.00000  Uiso   1.00
N501   N     0.41172   0.85880   0.18849   0.00000  Uiso   1.00
N502   N     0.51734   0.66618   0.61905   0.00000  Uiso   1.00
N503   N     0.35940   0.95741   0.72592   0.00000  Uiso   1.00
N504   N     0.37620   0.77625   0.18906   0.00000  Uiso   1.00
N505   N     0.48182   0.58362   0.61962   0.00000  Uiso   1.00
N506   N     0.32388   0.87485   0.72648   0.00000  Uiso   1.00
C507   C     0.43260   0.33475   0.01107   0.00000  Uiso   1.00
C508   C     0.41816   0.32121   0.92231   0.00000  Uiso   1.00
C509   C     0.42581   0.35581   0.84736   0.00000  Uiso   1.00
C510   C     0.40995   0.33578   0.77269   0.00000  Uiso   1.00
C511   C     0.39100   0.32276   0.63481   0.00000  Uiso   1.00
C512   C     0.44727   0.26812   0.04096   0.00000  Uiso   1.00
C513   C     0.47940   0.25808   0.06579   0.00000  Uiso   1.00
C514   C     0.48804   0.19336   0.09101   0.00000  Uiso   1.00
C515   C     0.51427   0.09791   0.13739   0.00000  Uiso   1.00
C516   C     0.40374   0.34838   0.07040   0.00000  Uiso   1.00
C517   C     0.39927   0.40583   0.12000   0.00000  Uiso   1.00
C518   C     0.37127   0.40868   0.17003   0.00000  Uiso   1.00
C519   C     0.32992   0.43787   0.26212   0.00000  Uiso   1.00
C520   C     0.39083   0.23766   0.01175   0.00000  Uiso   1.00
C521   C     0.39547   0.26847   0.92268   0.00000  Uiso   1.00
C522   C     0.37960   0.24839   0.84811   0.00000  Uiso   1.00
C523   C     0.38722   0.28295   0.77306   0.00000  Uiso   1.00
C524   C     0.42459   0.21538   0.04133   0.00000  Uiso   1.00
C525   C     0.43318   0.15066   0.06653   0.00000  Uiso   1.00
C526   C     0.46531   0.14053   0.09138   0.00000  Uiso   1.00
C527   C     0.38105   0.29565   0.07077   0.00000  Uiso   1.00
C528   C     0.35305   0.29841   0.12074   0.00000  Uiso   1.00
C529   C     0.34854   0.35585   0.17039   0.00000  Uiso   1.00
H530   H     0.45027   0.37580   0.01079   0.00000  Uiso   1.00
H531   H     0.44337   0.39661   0.84711   0.00000  Uiso   1.00
H532   H     0.49695   0.29890   0.06550   0.00000  Uiso   1.00
H533   H     0.41683   0.44663   0.11970   0.00000  Uiso   1.00
H534   H     0.42574   0.39641   0.66578   0.00000  Uiso   1.00
H535   H     0.53870   0.19038   0.12632   0.00000  Uiso   1.00
H536   H     0.36976   0.50189   0.24061   0.00000  Uiso   1.00
H537   H     0.37316   0.19660   0.01203   0.00000  Uiso   1.00
H538   H     0.36204   0.20758   0.84841   0.00000  Uiso   1.00
H539   H     0.41562   0.10986   0.06681   0.00000  Uiso   1.00
H540   H     0.33550   0.25759   0.12100   0.00000  Uiso   1.00
H541   H     0.35972   0.24298   0.66684   0.00000  Uiso   1.00
H542   H     0.47269   0.03695   0.12738   0.00000  Uiso   1.00
H543   H     0.30375   0.34846   0.24166   0.00000  Uiso   1.00
O544   O     0.38681   0.33014   0.55865   0.00000  Uiso   1.00
O545   O     0.53501   0.05984   0.16287   0.00000  Uiso   1.00
O546   O     0.31337   0.46854   0.31280   0.00000  Uiso   1.00
N547   N     0.41172   0.35880   0.68849   0.00000  Uiso   1.00
N548   N     0.51734   0.16618   0.11905   0.00000  Uiso   1.00
N549   N     0.35940   0.45741   0.22592   0.00000  Uiso   1.00
N550   N     0.37620   0.27625   0.68906   0.00000  Uiso   1.00
N551   N     0.48182   0.08362   0.11962   0.00000  Uiso   1.00
N552   N     0.32388   0.37485   0.22648   0.00000  Uiso   1.00
C553   C     0.56740   0.66525   0.01107   0.00000  Uiso   1.00
C554   C     0.58184   0.67879   0.92231   0.00000  Uiso   1.00
C555   C     0.57419   0.64419   0.84736   0.00000  Uiso   1.00
C556   C     0.59005   0.66422   0.77269   0.00000  Uiso   1.00
C557   C     0.60900   0.67724   0.63481   0.00000  Uiso   1.00
C558   C     0.55273   0.73188   0.04096   0.00000  Uiso   1.00
C559   C     0.52060   0.74192   0.06579   0.00000  Uiso   1.00
C560   C     0.51196   0.80664   0.09101   0.00000  Uiso   1.00
C561   C     0.48573   0.90209   0.13739   0.00000  Uiso   1.00
C562   C     0.59626   0.65162   0.07040   0.00000  Uiso   1.00
C563   C     0.60073   0.59417   0.12000   0.00000  Uiso   1.00
C564   C     0.62873   0.59132   0.17003   0.00000  Uiso   1.00
C565   C     0.67008   0.56213   0.26212   0.00000  Uiso   1.00
C566   C     0.60917   0.76234   0.01175   0.00000  Uiso   1.00
C567   C     0.60453   0.73153   0.92268   0.00000  Uiso   1.00
C568   C     0.62040   0.75161   0.84811   0.00000  Uiso   1.00
C569   C     0.61278   0.71705   0.77306   0.00000  Uiso   1.00
C570   C     0.57541   0.78462   0.04133   0.00000  Uiso   1.00
C571   C     0.56682   0.84934   0.06653   0.00000  Uiso   1.00
C572   C     0.53469   0.85947   0.09138   0.00000  Uiso   1.00
C573   C     0.61895   0.70435   0.07077   0.00000  Uiso   1.00
C574   C     0.64695   0.70159   0.12074   0.00000  Uiso   1.00
C575   C     0.65146   0.64415   0.17039   0.00000  Uiso   1.00
H576   H     0.54973   0.62420   0.01079   0.00000  Uiso   1.00
H577   H     0.55663   0.60339   0.84711   0.00000  Uiso   1.00
H578   H     0.50305   0.70110   0.06550   0.00000  Uiso   1.00
H579   H     0.58317   0.55337   0.11970   0.00000  Uiso   1.00
H580   H     0.57426   0.60359   0.66578   0.00000  Uiso   1.00
H581   H     0.46130   0.80962   0.12632   0.00000  Uiso   1.00
H582   H     0.63024   0.49811   0.24061   0.00000  Uiso   1.00
H583   H     0.62684   0.80340   0.01203   0.00000  Uiso   1.00
H584   H     0.63796   0.79242   0.84841   0.00000  Uiso   1.00
H585   H     0.58438   0.89014   0.06681   0.00000  Uiso   1.00
H586   H     0.66450   0.74241   0.12100   0.00000  Uiso   1.00
H587   H     0.64028   0.75702   0.66684   0.00000  Uiso   1.00
H588   H     0.52731   0.96305   0.12738   0.00000  Uiso   1.00
H589   H     0.69625   0.65154   0.24166   0.00000  Uiso   1.00
O590   O     0.61319   0.66986   0.55865   0.00000  Uiso   1.00
O591   O     0.46499   0.94016   0.16287   0.00000  Uiso   1.00
O592   O     0.68663   0.53146   0.31280   0.00000  Uiso   1.00
N593   N     0.58828   0.64120   0.68849   0.00000  Uiso   1.00
N594   N     0.48266   0.83382   0.11905   0.00000  Uiso   1.00
N595   N     0.64060   0.54259   0.22592   0.00000  Uiso   1.00
N596   N     0.62380   0.72375   0.68906   0.00000  Uiso   1.00
N597   N     0.51818   0.91638   0.11962   0.00000  Uiso   1.00
N598   N     0.67612   0.62515   0.22648   0.00000  Uiso   1.00
C599   C     0.56740   0.16525   0.51107   0.00000  Uiso   1.00
C600   C     0.58184   0.17879   0.42231   0.00000  Uiso   1.00
C601   C     0.57419   0.14419   0.34736   0.00000  Uiso   1.00
C602   C     0.59005   0.16422   0.27269   0.00000  Uiso   1.00
C603   C     0.60900   0.17724   0.13481   0.00000  Uiso   1.00
C604   C     0.55273   0.23188   0.54096   0.00000  Uiso   1.00
C605   C     0.52060   0.24192   0.56579   0.00000  Uiso   1.00
C606   C     0.51196   0.30664   0.59101   0.00000  Uiso   1.00
C607   C     0.48573   0.40209   0.63739   0.00000  Uiso   1.00
C608   C     0.59626   0.15162   0.57040   0.00000  Uiso   1.00
C609   C     0.60073   0.09417   0.62000   0.00000  Uiso   1.00
C610   C     0.62873   0.09132   0.67003   0.00000  Uiso   1.00
C611   C     0.67008   0.06213   0.76212   0.00000  Uiso   1.00
C612   C     0.60917   0.26234   0.51175   0.00000  Uiso   1.00
C613   C     0.60453   0.23153   0.42268   0.00000  Uiso   1.00
C614   C     0.62040   0.25161   0.34811   0.00000  Uiso   1.00
C615   C     0.61278   0.21705   0.27306   0.00000  Uiso   1.00
C616   C     0.57541   0.28462   0.54133   0.00000  Uiso   1.00
C617   C     0.56682   0.34934   0.56653   0.00000  Uiso   1.00
C618   C     0.53469   0.35947   0.59138   0.00000  Uiso   1.00
C619   C     0.61895   0.20435   0.57077   0.00000  Uiso   1.00
C620   C     0.64695   0.20159   0.62074   0.00000  Uiso   1.00
C621   C     0.65146   0.14415   0.67039   0.00000  Uiso   1.00
H622   H     0.54973   0.12420   0.51079   0.00000  Uiso   1.00
H623   H     0.55663   0.10339   0.34711   0.00000  Uiso   1.00
H624   H     0.50305   0.20110   0.56550   0.00000  Uiso   1.00
H625   H     0.58317   0.05337   0.61970   0.00000  Uiso   1.00
H626   H     0.57426   0.10359   0.16578   0.00000  Uiso   1.00
H627   H     0.46130   0.30962   0.62632   0.00000  Uiso   1.00
H628   H     0.63024   0.99811   0.74061   0.00000  Uiso   1.00
H629   H     0.62684   0.30340   0.51203   0.00000  Uiso   1.00
H630   H     0.63796   0.29242   0.34841   0.00000  Uiso   1.00
H631   H     0.58438   0.39014   0.56681   0.00000  Uiso   1.00
H632   H     0.66450   0.24241   0.62100   0.00000  Uiso   1.00
H633   H     0.64028   0.25702   0.16684   0.00000  Uiso   1.00
H634   H     0.52731   0.46305   0.62738   0.00000  Uiso   1.00
H635   H     0.69625   0.15154   0.74166   0.00000  Uiso   1.00
O636   O     0.61319   0.16986   0.05865   0.00000  Uiso   1.00
O637   O     0.46499   0.44016   0.66287   0.00000  Uiso   1.00
O638   O     0.68663   0.03146   0.81280   0.00000  Uiso   1.00
N639   N     0.58828   0.14120   0.18849   0.00000  Uiso   1.00
N640   N     0.48266   0.33382   0.61905   0.00000  Uiso   1.00
N641   N     0.64060   0.04259   0.72592   0.00000  Uiso   1.00
N642   N     0.62380   0.22375   0.18906   0.00000  Uiso   1.00
N643   N     0.51818   0.41638   0.61962   0.00000  Uiso   1.00
N644   N     0.67612   0.12515   0.72648   0.00000  Uiso   1.00
C645   C     0.06740   0.66525   0.51107   0.00000  Uiso   1.00
C646   C     0.08184   0.67879   0.42231   0.00000  Uiso   1.00
C647   C     0.07419   0.64419   0.34736   0.00000  Uiso   1.00
C648   C     0.09005   0.66422   0.27269   0.00000  Uiso   1.00
C649   C     0.10900   0.67724   0.13481   0.00000  Uiso   1.00
C650   C     0.05273   0.73188   0.54096   0.00000  Uiso   1.00
C651   C     0.02060   0.74192   0.56579   0.00000  Uiso   1.00
C652   C     0.01196   0.80664   0.59101   0.00000  Uiso   1.00
C653   C     0.98573   0.90209   0.63739   0.00000  Uiso   1.00
C654   C     0.09626   0.65162   0.57040   0.00000  Uiso   1.00
C655   C     0.10073   0.59417   0.62000   0.00000  Uiso   1.00
C656   C     0.12873   0.59132   0.67003   0.00000  Uiso   1.00
C657   C     0.17008   0.56213   0.76212   0.00000  Uiso   1.00
C658   C     0.10917   0.76234   0.51175   0.00000  Uiso   1.00
C659   C     0.10453   0.73153   0.42268   0.00000  Uiso   1.00
C660   C     0.12040   0.75161   0.34811   0.00000  Uiso   1.00
C661   C     0.11278   0.71705   0.27306   0.00000  Uiso   1.00
C662   C     0.07541   0.78462   0.54133   0.00000  Uiso   1.00
C663   C     0.06682   0.84934   0.56653   0.00000  Uiso   1.00
C664   C     0.03469   0.85947   0.59138   0.00000  Uiso   1.00
C665   C     0.11895   0.70435   0.57077   0.00000  Uiso   1.00
C666   C     0.14695   0.70159   0.62074   0.00000  Uiso   1.00
C667   C     0.15146   0.64415   0.67039   0.00000  Uiso   1.00
H668   H     0.04973   0.62420   0.51079   0.00000  Uiso   1.00
H669   H     0.05663   0.60339   0.34711   0.00000  Uiso   1.00
H670   H     0.00305   0.70110   0.56550   0.00000  Uiso   1.00
H671   H     0.08317   0.55337   0.61970   0.00000  Uiso   1.00
H672   H     0.07426   0.60359   0.16578   0.00000  Uiso   1.00
H673   H     0.96130   0.80962   0.62632   0.00000  Uiso   1.00
H674   H     0.13024   0.49811   0.74061   0.00000  Uiso   1.00
H675   H     0.12684   0.80340   0.51203   0.00000  Uiso   1.00
H676   H     0.13796   0.79242   0.34841   0.00000  Uiso   1.00
H677   H     0.08438   0.89014   0.56681   0.00000  Uiso   1.00
H678   H     0.16450   0.74241   0.62100   0.00000  Uiso   1.00
H679   H     0.14028   0.75702   0.16684   0.00000  Uiso   1.00
H680   H     0.02731   0.96305   0.62738   0.00000  Uiso   1.00
H681   H     0.19625   0.65154   0.74166   0.00000  Uiso   1.00
O682   O     0.11319   0.66986   0.05865   0.00000  Uiso   1.00
O683   O     0.96499   0.94016   0.66287   0.00000  Uiso   1.00
O684   O     0.18663   0.53146   0.81280   0.00000  Uiso   1.00
N685   N     0.08828   0.64120   0.18849   0.00000  Uiso   1.00
N686   N     0.98266   0.83382   0.61905   0.00000  Uiso   1.00
N687   N     0.14060   0.54259   0.72592   0.00000  Uiso   1.00
N688   N     0.12380   0.72375   0.18906   0.00000  Uiso   1.00
N689   N     0.01818   0.91638   0.61962   0.00000  Uiso   1.00
N690   N     0.17612   0.62515   0.72648   0.00000  Uiso   1.00
C691   C     0.06740   0.16525   0.01107   0.00000  Uiso   1.00
C692   C     0.08184   0.17879   0.92231   0.00000  Uiso   1.00
C693   C     0.07419   0.14419   0.84736   0.00000  Uiso   1.00
C694   C     0.09005   0.16422   0.77269   0.00000  Uiso   1.00
C695   C     0.10900   0.17724   0.63481   0.00000  Uiso   1.00
C696   C     0.05273   0.23188   0.04096   0.00000  Uiso   1.00
C697   C     0.02060   0.24192   0.06579   0.00000  Uiso   1.00
C698   C     0.01196   0.30664   0.09101   0.00000  Uiso   1.00
C699   C     0.98573   0.40209   0.13739   0.00000  Uiso   1.00
C700   C     0.09626   0.15162   0.07040   0.00000  Uiso   1.00
C701   C     0.10073   0.09417   0.12000   0.00000  Uiso   1.00
C702   C     0.12873   0.09132   0.17003   0.00000  Uiso   1.00
C703   C     0.17008   0.06213   0.26212   0.00000  Uiso   1.00
C704   C     0.10917   0.26234   0.01175   0.00000  Uiso   1.00
C705   C     0.10453   0.23153   0.92268   0.00000  Uiso   1.00
C706   C     0.12040   0.25161   0.84811   0.00000  Uiso   1.00
C707   C     0.11278   0.21705   0.77306   0.00000  Uiso   1.00
C708   C     0.07541   0.28462   0.04133   0.00000  Uiso   1.00
C709   C     0.06682   0.34934   0.06653   0.00000  Uiso   1.00
C710   C     0.03469   0.35947   0.09138   0.00000  Uiso   1.00
C711   C     0.11895   0.20435   0.07077   0.00000  Uiso   1.00
C712   C     0.14695   0.20159   0.12074   0.00000  Uiso   1.00
C713   C     0.15146   0.14415   0.17039   0.00000  Uiso   1.00
H714   H     0.04973   0.12420   0.01079   0.00000  Uiso   1.00
H715   H     0.05663   0.10339   0.84711   0.00000  Uiso   1.00
H716   H     0.00305   0.20110   0.06550   0.00000  Uiso   1.00
H717   H     0.08317   0.05337   0.11970   0.00000  Uiso   1.00
H718   H     0.07426   0.10359   0.66578   0.00000  Uiso   1.00
H719   H     0.96130   0.30962   0.12632   0.00000  Uiso   1.00
H720   H     0.13024   0.99811   0.24061   0.00000  Uiso   1.00
H721   H     0.12684   0.30340   0.01203   0.00000  Uiso   1.00
H722   H     0.13796   0.29242   0.84841   0.00000  Uiso   1.00
H723   H     0.08438   0.39014   0.06681   0.00000  Uiso   1.00
H724   H     0.16450   0.24241   0.12100   0.00000  Uiso   1.00
H725   H     0.14028   0.25702   0.66684   0.00000  Uiso   1.00
H726   H     0.02731   0.46305   0.12738   0.00000  Uiso   1.00
H727   H     0.19625   0.15154   0.24166   0.00000  Uiso   1.00
O728   O     0.11319   0.16986   0.55865   0.00000  Uiso   1.00
O729   O     0.96499   0.44016   0.16287   0.00000  Uiso   1.00
O730   O     0.18663   0.03146   0.31280   0.00000  Uiso   1.00
N731   N     0.08828   0.14120   0.68849   0.00000  Uiso   1.00
N732   N     0.98266   0.33382   0.11905   0.00000  Uiso   1.00
N733   N     0.14060   0.04259   0.22592   0.00000  Uiso   1.00
N734   N     0.12380   0.22375   0.68906   0.00000  Uiso   1.00
N735   N     0.01818   0.41638   0.11962   0.00000  Uiso   1.00
N736   N     0.17612   0.12515   0.22648   0.00000  Uiso   1.00
