data_job_00662
_audit_creation_date              2018-12-19
_audit_creation_method            'Materials Studio'
_symmetry_space_group_name_H-M    'P1'
_symmetry_Int_Tables_number       1
_symmetry_cell_setting            triclinic
loop_
_symmetry_equiv_pos_as_xyz
  x,y,z
_cell_length_a                    25.5142
_cell_length_b                    25.5142
_cell_length_c                    14.7197
_cell_angle_alpha                 90.0000
_cell_angle_beta                  90.0000
_cell_angle_gamma                 90.0000
loop_
_atom_site_label
_atom_site_type_symbol
_atom_site_fract_x
_atom_site_fract_y
_atom_site_fract_z
_atom_site_U_iso_or_equiv
_atom_site_adp_type
_atom_site_occupancy
C1     C     0.24851   0.58621   0.16631   0.00000  Uiso   1.00
C2     C     0.27003   0.61954   0.08883   0.00000  Uiso   1.00
C3     C     0.25193   0.66874   0.06370   0.00000  Uiso   1.00
C4     C     0.27683   0.69283   0.99096   0.00000  Uiso   1.00
C5     C     0.30391   0.74827   0.87761   0.00000  Uiso   1.00
C6     C     0.23289   0.53395   0.12397   0.00000  Uiso   1.00
C7     C     0.18355   0.51117   0.12839   0.00000  Uiso   1.00
C8     C     0.17718   0.46320   0.08524   0.00000  Uiso   1.00
C9     C     0.14660   0.38574   0.02650   0.00000  Uiso   1.00
C10    C     0.29498   0.57450   0.22822   0.00000  Uiso   1.00
C11    C     0.29785   0.58581   0.32031   0.00000  Uiso   1.00
C12    C     0.34375   0.57197   0.36494   0.00000  Uiso   1.00
C13    C     0.40958   0.55746   0.46807   0.00000  Uiso   1.00
C14    C     0.32492   0.54150   0.08183   0.00000  Uiso   1.00
C15    C     0.31153   0.59526   0.04294   0.00000  Uiso   1.00
C16    C     0.33647   0.61928   0.97023   0.00000  Uiso   1.00
C17    C     0.31841   0.66851   0.94499   0.00000  Uiso   1.00
C18    C     0.27438   0.50966   0.07808   0.00000  Uiso   1.00
C19    C     0.26809   0.46171   0.03492   0.00000  Uiso   1.00
C20    C     0.21875   0.43888   0.03927   0.00000  Uiso   1.00
C21    C     0.33648   0.55021   0.18234   0.00000  Uiso   1.00
C22    C     0.38238   0.53635   0.22684   0.00000  Uiso   1.00
C23    C     0.38532   0.54764   0.31897   0.00000  Uiso   1.00
H24    H     0.21620   0.60511   0.20203   0.00000  Uiso   1.00
H25    H     0.21981   0.68752   0.09922   0.00000  Uiso   1.00
H26    H     0.15144   0.52997   0.16391   0.00000  Uiso   1.00
H27    H     0.26572   0.60460   0.35580   0.00000  Uiso   1.00
H28    H     0.24210   0.76817   0.96498   0.00000  Uiso   1.00
H29    H     0.09795   0.43597   0.10141   0.00000  Uiso   1.00
H30    H     0.33893   0.59333   0.50604   0.00000  Uiso   1.00
H31    H     0.35723   0.52260   0.04610   0.00000  Uiso   1.00
H32    H     0.36858   0.60048   0.93473   0.00000  Uiso   1.00
H33    H     0.30021   0.44293   0.99942   0.00000  Uiso   1.00
H34    H     0.41449   0.51756   0.19131   0.00000  Uiso   1.00
H35    H     0.36285   0.69752   0.83147   0.00000  Uiso   1.00
H36    H     0.21869   0.36532   0.96791   0.00000  Uiso   1.00
H37    H     0.45967   0.52268   0.37253   0.00000  Uiso   1.00
O38    O     0.30739   0.78556   0.82775   0.00000  Uiso   1.00
O39    O     0.11827   0.34972   0.00677   0.00000  Uiso   1.00
O40    O     0.43442   0.55618   0.53763   0.00000  Uiso   1.00
N41    N     0.26897   0.74086   0.94885   0.00000  Uiso   1.00
N42    N     0.13419   0.43027   0.07640   0.00000  Uiso   1.00
N43    N     0.35948   0.57738   0.45470   0.00000  Uiso   1.00
N44    N     0.33394   0.70284   0.87701   0.00000  Uiso   1.00
N45    N     0.19917   0.39226   0.00456   0.00000  Uiso   1.00
N46    N     0.42445   0.53937   0.38286   0.00000  Uiso   1.00
C47    C     0.74851   0.08621   0.66631   0.00000  Uiso   1.00
C48    C     0.77003   0.11954   0.58883   0.00000  Uiso   1.00
C49    C     0.75193   0.16874   0.56370   0.00000  Uiso   1.00
C50    C     0.77683   0.19283   0.49096   0.00000  Uiso   1.00
C51    C     0.80391   0.24827   0.37761   0.00000  Uiso   1.00
C52    C     0.73289   0.03395   0.62397   0.00000  Uiso   1.00
C53    C     0.68355   0.01117   0.62839   0.00000  Uiso   1.00
C54    C     0.67718   0.96320   0.58524   0.00000  Uiso   1.00
C55    C     0.64660   0.88574   0.52650   0.00000  Uiso   1.00
C56    C     0.79498   0.07450   0.72822   0.00000  Uiso   1.00
C57    C     0.79785   0.08581   0.82031   0.00000  Uiso   1.00
C58    C     0.84375   0.07197   0.86494   0.00000  Uiso   1.00
C59    C     0.90958   0.05746   0.96807   0.00000  Uiso   1.00
C60    C     0.82492   0.04150   0.58183   0.00000  Uiso   1.00
C61    C     0.81153   0.09526   0.54294   0.00000  Uiso   1.00
C62    C     0.83647   0.11928   0.47023   0.00000  Uiso   1.00
C63    C     0.81841   0.16851   0.44499   0.00000  Uiso   1.00
C64    C     0.77438   0.00966   0.57808   0.00000  Uiso   1.00
C65    C     0.76809   0.96171   0.53492   0.00000  Uiso   1.00
C66    C     0.71875   0.93888   0.53927   0.00000  Uiso   1.00
C67    C     0.83648   0.05021   0.68234   0.00000  Uiso   1.00
C68    C     0.88238   0.03635   0.72684   0.00000  Uiso   1.00
C69    C     0.88532   0.04764   0.81897   0.00000  Uiso   1.00
H70    H     0.71620   0.10511   0.70203   0.00000  Uiso   1.00
H71    H     0.71981   0.18752   0.59922   0.00000  Uiso   1.00
H72    H     0.65144   0.02997   0.66391   0.00000  Uiso   1.00
H73    H     0.76572   0.10460   0.85580   0.00000  Uiso   1.00
H74    H     0.74210   0.26817   0.46498   0.00000  Uiso   1.00
H75    H     0.59795   0.93597   0.60141   0.00000  Uiso   1.00
H76    H     0.83893   0.09333   0.00604   0.00000  Uiso   1.00
H77    H     0.85723   0.02260   0.54610   0.00000  Uiso   1.00
H78    H     0.86858   0.10048   0.43473   0.00000  Uiso   1.00
H79    H     0.80021   0.94293   0.49942   0.00000  Uiso   1.00
H80    H     0.91449   0.01756   0.69131   0.00000  Uiso   1.00
H81    H     0.86285   0.19752   0.33147   0.00000  Uiso   1.00
H82    H     0.71869   0.86532   0.46791   0.00000  Uiso   1.00
H83    H     0.95967   0.02268   0.87253   0.00000  Uiso   1.00
O84    O     0.80739   0.28556   0.32775   0.00000  Uiso   1.00
O85    O     0.61827   0.84972   0.50677   0.00000  Uiso   1.00
O86    O     0.93442   0.05618   0.03763   0.00000  Uiso   1.00
N87    N     0.76897   0.24086   0.44885   0.00000  Uiso   1.00
N88    N     0.63419   0.93027   0.57640   0.00000  Uiso   1.00
N89    N     0.85948   0.07738   0.95470   0.00000  Uiso   1.00
N90    N     0.83394   0.20284   0.37701   0.00000  Uiso   1.00
N91    N     0.69917   0.89226   0.50456   0.00000  Uiso   1.00
N92    N     0.92445   0.03937   0.88286   0.00000  Uiso   1.00
C93    C     0.25149   0.91379   0.66631   0.00000  Uiso   1.00
C94    C     0.22997   0.88046   0.58883   0.00000  Uiso   1.00
C95    C     0.24807   0.83126   0.56370   0.00000  Uiso   1.00
C96    C     0.22317   0.80717   0.49096   0.00000  Uiso   1.00
C97    C     0.19609   0.75173   0.37761   0.00000  Uiso   1.00
C98    C     0.26711   0.96605   0.62397   0.00000  Uiso   1.00
C99    C     0.31645   0.98883   0.62839   0.00000  Uiso   1.00
C100   C     0.32282   0.03680   0.58524   0.00000  Uiso   1.00
C101   C     0.35340   0.11426   0.52650   0.00000  Uiso   1.00
C102   C     0.20502   0.92550   0.72822   0.00000  Uiso   1.00
C103   C     0.20215   0.91419   0.82031   0.00000  Uiso   1.00
C104   C     0.15625   0.92803   0.86494   0.00000  Uiso   1.00
C105   C     0.09042   0.94254   0.96807   0.00000  Uiso   1.00
C106   C     0.17508   0.95850   0.58183   0.00000  Uiso   1.00
C107   C     0.18847   0.90474   0.54294   0.00000  Uiso   1.00
C108   C     0.16353   0.88072   0.47023   0.00000  Uiso   1.00
C109   C     0.18159   0.83149   0.44499   0.00000  Uiso   1.00
C110   C     0.22562   0.99034   0.57808   0.00000  Uiso   1.00
C111   C     0.23191   0.03829   0.53492   0.00000  Uiso   1.00
C112   C     0.28125   0.06112   0.53927   0.00000  Uiso   1.00
C113   C     0.16352   0.94979   0.68234   0.00000  Uiso   1.00
C114   C     0.11762   0.96365   0.72684   0.00000  Uiso   1.00
C115   C     0.11468   0.95236   0.81897   0.00000  Uiso   1.00
H116   H     0.28380   0.89489   0.70203   0.00000  Uiso   1.00
H117   H     0.28019   0.81248   0.59922   0.00000  Uiso   1.00
H118   H     0.34856   0.97003   0.66391   0.00000  Uiso   1.00
H119   H     0.23428   0.89540   0.85580   0.00000  Uiso   1.00
H120   H     0.25790   0.73183   0.46498   0.00000  Uiso   1.00
H121   H     0.40205   0.06403   0.60141   0.00000  Uiso   1.00
H122   H     0.16107   0.90667   0.00604   0.00000  Uiso   1.00
H123   H     0.14277   0.97740   0.54610   0.00000  Uiso   1.00
H124   H     0.13142   0.89952   0.43473   0.00000  Uiso   1.00
H125   H     0.19979   0.05707   0.49942   0.00000  Uiso   1.00
H126   H     0.08551   0.98244   0.69131   0.00000  Uiso   1.00
H127   H     0.13715   0.80248   0.33147   0.00000  Uiso   1.00
H128   H     0.28131   0.13468   0.46791   0.00000  Uiso   1.00
H129   H     0.04033   0.97732   0.87253   0.00000  Uiso   1.00
O130   O     0.19261   0.71444   0.32775   0.00000  Uiso   1.00
O131   O     0.38173   0.15028   0.50677   0.00000  Uiso   1.00
O132   O     0.06558   0.94382   0.03763   0.00000  Uiso   1.00
N133   N     0.23103   0.75914   0.44885   0.00000  Uiso   1.00
N134   N     0.36581   0.06973   0.57640   0.00000  Uiso   1.00
N135   N     0.14052   0.92262   0.95470   0.00000  Uiso   1.00
N136   N     0.16606   0.79716   0.37701   0.00000  Uiso   1.00
N137   N     0.30083   0.10774   0.50456   0.00000  Uiso   1.00
N138   N     0.07555   0.96063   0.88286   0.00000  Uiso   1.00
C139   C     0.75149   0.41379   0.16631   0.00000  Uiso   1.00
C140   C     0.72997   0.38046   0.08883   0.00000  Uiso   1.00
C141   C     0.74807   0.33126   0.06370   0.00000  Uiso   1.00
C142   C     0.72317   0.30717   0.99096   0.00000  Uiso   1.00
C143   C     0.69609   0.25173   0.87761   0.00000  Uiso   1.00
C144   C     0.76711   0.46605   0.12397   0.00000  Uiso   1.00
C145   C     0.81645   0.48883   0.12839   0.00000  Uiso   1.00
C146   C     0.82282   0.53680   0.08524   0.00000  Uiso   1.00
C147   C     0.85340   0.61426   0.02650   0.00000  Uiso   1.00
C148   C     0.70502   0.42550   0.22822   0.00000  Uiso   1.00
C149   C     0.70215   0.41419   0.32031   0.00000  Uiso   1.00
C150   C     0.65625   0.42803   0.36494   0.00000  Uiso   1.00
C151   C     0.59042   0.44254   0.46807   0.00000  Uiso   1.00
C152   C     0.67508   0.45850   0.08183   0.00000  Uiso   1.00
C153   C     0.68847   0.40474   0.04294   0.00000  Uiso   1.00
C154   C     0.66353   0.38072   0.97023   0.00000  Uiso   1.00
C155   C     0.68159   0.33149   0.94499   0.00000  Uiso   1.00
C156   C     0.72562   0.49034   0.07808   0.00000  Uiso   1.00
C157   C     0.73191   0.53829   0.03492   0.00000  Uiso   1.00
C158   C     0.78125   0.56112   0.03927   0.00000  Uiso   1.00
C159   C     0.66352   0.44979   0.18234   0.00000  Uiso   1.00
C160   C     0.61762   0.46365   0.22684   0.00000  Uiso   1.00
C161   C     0.61468   0.45236   0.31897   0.00000  Uiso   1.00
H162   H     0.78380   0.39489   0.20203   0.00000  Uiso   1.00
H163   H     0.78019   0.31248   0.09922   0.00000  Uiso   1.00
H164   H     0.84856   0.47003   0.16391   0.00000  Uiso   1.00
H165   H     0.73428   0.39540   0.35580   0.00000  Uiso   1.00
H166   H     0.75790   0.23183   0.96498   0.00000  Uiso   1.00
H167   H     0.90205   0.56403   0.10141   0.00000  Uiso   1.00
H168   H     0.66107   0.40667   0.50604   0.00000  Uiso   1.00
H169   H     0.64277   0.47740   0.04610   0.00000  Uiso   1.00
H170   H     0.63142   0.39952   0.93473   0.00000  Uiso   1.00
H171   H     0.69979   0.55707   0.99942   0.00000  Uiso   1.00
H172   H     0.58551   0.48244   0.19131   0.00000  Uiso   1.00
H173   H     0.63715   0.30248   0.83147   0.00000  Uiso   1.00
H174   H     0.78131   0.63468   0.96791   0.00000  Uiso   1.00
H175   H     0.54033   0.47732   0.37253   0.00000  Uiso   1.00
O176   O     0.69261   0.21444   0.82775   0.00000  Uiso   1.00
O177   O     0.88173   0.65028   0.00677   0.00000  Uiso   1.00
O178   O     0.56558   0.44382   0.53763   0.00000  Uiso   1.00
N179   N     0.73103   0.25914   0.94885   0.00000  Uiso   1.00
N180   N     0.86581   0.56973   0.07640   0.00000  Uiso   1.00
N181   N     0.64052   0.42262   0.45470   0.00000  Uiso   1.00
N182   N     0.66606   0.29716   0.87701   0.00000  Uiso   1.00
N183   N     0.80083   0.60774   0.00456   0.00000  Uiso   1.00
N184   N     0.57555   0.46063   0.38286   0.00000  Uiso   1.00
C185   C     0.41379   0.74851   0.41631   0.00000  Uiso   1.00
C186   C     0.38046   0.77003   0.33883   0.00000  Uiso   1.00
C187   C     0.33126   0.75193   0.31370   0.00000  Uiso   1.00
C188   C     0.30717   0.77683   0.24096   0.00000  Uiso   1.00
C189   C     0.25173   0.80391   0.12761   0.00000  Uiso   1.00
C190   C     0.46605   0.73289   0.37397   0.00000  Uiso   1.00
C191   C     0.48883   0.68355   0.37839   0.00000  Uiso   1.00
C192   C     0.53680   0.67718   0.33524   0.00000  Uiso   1.00
C193   C     0.61426   0.64660   0.27650   0.00000  Uiso   1.00
C194   C     0.42550   0.79498   0.47822   0.00000  Uiso   1.00
C195   C     0.41419   0.79785   0.57031   0.00000  Uiso   1.00
C196   C     0.42803   0.84375   0.61494   0.00000  Uiso   1.00
C197   C     0.44254   0.90958   0.71807   0.00000  Uiso   1.00
C198   C     0.45850   0.82492   0.33183   0.00000  Uiso   1.00
C199   C     0.40474   0.81153   0.29294   0.00000  Uiso   1.00
C200   C     0.38072   0.83647   0.22023   0.00000  Uiso   1.00
C201   C     0.33149   0.81841   0.19499   0.00000  Uiso   1.00
C202   C     0.49034   0.77438   0.32808   0.00000  Uiso   1.00
C203   C     0.53829   0.76809   0.28492   0.00000  Uiso   1.00
C204   C     0.56112   0.71875   0.28927   0.00000  Uiso   1.00
C205   C     0.44979   0.83648   0.43234   0.00000  Uiso   1.00
C206   C     0.46365   0.88238   0.47684   0.00000  Uiso   1.00
C207   C     0.45236   0.88532   0.56897   0.00000  Uiso   1.00
H208   H     0.39489   0.71620   0.45203   0.00000  Uiso   1.00
H209   H     0.31248   0.71981   0.34922   0.00000  Uiso   1.00
H210   H     0.47003   0.65144   0.41391   0.00000  Uiso   1.00
H211   H     0.39540   0.76572   0.60580   0.00000  Uiso   1.00
H212   H     0.23183   0.74210   0.21498   0.00000  Uiso   1.00
H213   H     0.56403   0.59795   0.35141   0.00000  Uiso   1.00
H214   H     0.40667   0.83893   0.75604   0.00000  Uiso   1.00
H215   H     0.47740   0.85723   0.29610   0.00000  Uiso   1.00
H216   H     0.39952   0.86858   0.18473   0.00000  Uiso   1.00
H217   H     0.55707   0.80021   0.24942   0.00000  Uiso   1.00
H218   H     0.48244   0.91449   0.44131   0.00000  Uiso   1.00
H219   H     0.30248   0.86285   0.08147   0.00000  Uiso   1.00
H220   H     0.63468   0.71869   0.21791   0.00000  Uiso   1.00
H221   H     0.47732   0.95967   0.62253   0.00000  Uiso   1.00
O222   O     0.21444   0.80739   0.07775   0.00000  Uiso   1.00
O223   O     0.65028   0.61827   0.25677   0.00000  Uiso   1.00
O224   O     0.44382   0.93442   0.78763   0.00000  Uiso   1.00
N225   N     0.25914   0.76897   0.19885   0.00000  Uiso   1.00
N226   N     0.56973   0.63419   0.32640   0.00000  Uiso   1.00
N227   N     0.42262   0.85948   0.70470   0.00000  Uiso   1.00
N228   N     0.29716   0.83394   0.12701   0.00000  Uiso   1.00
N229   N     0.60774   0.69917   0.25456   0.00000  Uiso   1.00
N230   N     0.46063   0.92445   0.63286   0.00000  Uiso   1.00
C231   C     0.91379   0.24851   0.91631   0.00000  Uiso   1.00
C232   C     0.88046   0.27003   0.83883   0.00000  Uiso   1.00
C233   C     0.83126   0.25193   0.81370   0.00000  Uiso   1.00
C234   C     0.80717   0.27683   0.74096   0.00000  Uiso   1.00
C235   C     0.75173   0.30391   0.62761   0.00000  Uiso   1.00
C236   C     0.96605   0.23289   0.87397   0.00000  Uiso   1.00
C237   C     0.98883   0.18355   0.87839   0.00000  Uiso   1.00
C238   C     0.03680   0.17718   0.83524   0.00000  Uiso   1.00
C239   C     0.11426   0.14660   0.77650   0.00000  Uiso   1.00
C240   C     0.92550   0.29498   0.97822   0.00000  Uiso   1.00
C241   C     0.91419   0.29785   0.07031   0.00000  Uiso   1.00
C242   C     0.92803   0.34375   0.11494   0.00000  Uiso   1.00
C243   C     0.94254   0.40958   0.21807   0.00000  Uiso   1.00
C244   C     0.95850   0.32492   0.83183   0.00000  Uiso   1.00
C245   C     0.90474   0.31153   0.79294   0.00000  Uiso   1.00
C246   C     0.88072   0.33647   0.72023   0.00000  Uiso   1.00
C247   C     0.83149   0.31841   0.69499   0.00000  Uiso   1.00
C248   C     0.99034   0.27438   0.82808   0.00000  Uiso   1.00
C249   C     0.03829   0.26809   0.78492   0.00000  Uiso   1.00
C250   C     0.06112   0.21875   0.78927   0.00000  Uiso   1.00
C251   C     0.94979   0.33648   0.93234   0.00000  Uiso   1.00
C252   C     0.96365   0.38238   0.97684   0.00000  Uiso   1.00
C253   C     0.95236   0.38532   0.06897   0.00000  Uiso   1.00
H254   H     0.89489   0.21620   0.95203   0.00000  Uiso   1.00
H255   H     0.81248   0.21981   0.84922   0.00000  Uiso   1.00
H256   H     0.97003   0.15144   0.91391   0.00000  Uiso   1.00
H257   H     0.89540   0.26572   0.10580   0.00000  Uiso   1.00
H258   H     0.73183   0.24210   0.71498   0.00000  Uiso   1.00
H259   H     0.06403   0.09795   0.85141   0.00000  Uiso   1.00
H260   H     0.90667   0.33893   0.25604   0.00000  Uiso   1.00
H261   H     0.97740   0.35723   0.79610   0.00000  Uiso   1.00
H262   H     0.89952   0.36858   0.68473   0.00000  Uiso   1.00
H263   H     0.05707   0.30021   0.74942   0.00000  Uiso   1.00
H264   H     0.98244   0.41449   0.94131   0.00000  Uiso   1.00
H265   H     0.80248   0.36285   0.58147   0.00000  Uiso   1.00
H266   H     0.13468   0.21869   0.71791   0.00000  Uiso   1.00
H267   H     0.97732   0.45967   0.12253   0.00000  Uiso   1.00
O268   O     0.71444   0.30739   0.57775   0.00000  Uiso   1.00
O269   O     0.15028   0.11827   0.75677   0.00000  Uiso   1.00
O270   O     0.94382   0.43442   0.28763   0.00000  Uiso   1.00
N271   N     0.75914   0.26897   0.69885   0.00000  Uiso   1.00
N272   N     0.06973   0.13419   0.82640   0.00000  Uiso   1.00
N273   N     0.92262   0.35948   0.20470   0.00000  Uiso   1.00
N274   N     0.79716   0.33394   0.62701   0.00000  Uiso   1.00
N275   N     0.10774   0.19917   0.75456   0.00000  Uiso   1.00
N276   N     0.96063   0.42445   0.13286   0.00000  Uiso   1.00
C277   C     0.08621   0.75149   0.91631   0.00000  Uiso   1.00
C278   C     0.11954   0.72997   0.83883   0.00000  Uiso   1.00
C279   C     0.16874   0.74807   0.81370   0.00000  Uiso   1.00
C280   C     0.19283   0.72317   0.74096   0.00000  Uiso   1.00
C281   C     0.24827   0.69609   0.62761   0.00000  Uiso   1.00
C282   C     0.03395   0.76711   0.87397   0.00000  Uiso   1.00
C283   C     0.01117   0.81645   0.87839   0.00000  Uiso   1.00
C284   C     0.96320   0.82282   0.83524   0.00000  Uiso   1.00
C285   C     0.88574   0.85340   0.77650   0.00000  Uiso   1.00
C286   C     0.07450   0.70502   0.97822   0.00000  Uiso   1.00
C287   C     0.08581   0.70215   0.07031   0.00000  Uiso   1.00
C288   C     0.07197   0.65625   0.11494   0.00000  Uiso   1.00
C289   C     0.05746   0.59042   0.21807   0.00000  Uiso   1.00
C290   C     0.04150   0.67508   0.83183   0.00000  Uiso   1.00
C291   C     0.09526   0.68847   0.79294   0.00000  Uiso   1.00
C292   C     0.11928   0.66353   0.72023   0.00000  Uiso   1.00
C293   C     0.16851   0.68159   0.69499   0.00000  Uiso   1.00
C294   C     0.00966   0.72562   0.82808   0.00000  Uiso   1.00
C295   C     0.96171   0.73191   0.78492   0.00000  Uiso   1.00
C296   C     0.93888   0.78125   0.78927   0.00000  Uiso   1.00
C297   C     0.05021   0.66352   0.93234   0.00000  Uiso   1.00
C298   C     0.03635   0.61762   0.97684   0.00000  Uiso   1.00
C299   C     0.04764   0.61468   0.06897   0.00000  Uiso   1.00
H300   H     0.10511   0.78380   0.95203   0.00000  Uiso   1.00
H301   H     0.18752   0.78019   0.84922   0.00000  Uiso   1.00
H302   H     0.02997   0.84856   0.91391   0.00000  Uiso   1.00
H303   H     0.10460   0.73428   0.10580   0.00000  Uiso   1.00
H304   H     0.26817   0.75790   0.71498   0.00000  Uiso   1.00
H305   H     0.93597   0.90205   0.85141   0.00000  Uiso   1.00
H306   H     0.09333   0.66107   0.25604   0.00000  Uiso   1.00
H307   H     0.02260   0.64277   0.79610   0.00000  Uiso   1.00
H308   H     0.10048   0.63142   0.68473   0.00000  Uiso   1.00
H309   H     0.94293   0.69979   0.74942   0.00000  Uiso   1.00
H310   H     0.01756   0.58551   0.94131   0.00000  Uiso   1.00
H311   H     0.19752   0.63715   0.58147   0.00000  Uiso   1.00
H312   H     0.86532   0.78131   0.71791   0.00000  Uiso   1.00
H313   H     0.02268   0.54033   0.12253   0.00000  Uiso   1.00
O314   O     0.28556   0.69261   0.57775   0.00000  Uiso   1.00
O315   O     0.84972   0.88173   0.75677   0.00000  Uiso   1.00
O316   O     0.05618   0.56558   0.28763   0.00000  Uiso   1.00
N317   N     0.24086   0.73103   0.69885   0.00000  Uiso   1.00
N318   N     0.93027   0.86581   0.82640   0.00000  Uiso   1.00
N319   N     0.07738   0.64052   0.20470   0.00000  Uiso   1.00
N320   N     0.20284   0.66606   0.62701   0.00000  Uiso   1.00
N321   N     0.89226   0.80083   0.75456   0.00000  Uiso   1.00
N322   N     0.03937   0.57555   0.13286   0.00000  Uiso   1.00
C323   C     0.58621   0.25149   0.41631   0.00000  Uiso   1.00
C324   C     0.61954   0.22997   0.33883   0.00000  Uiso   1.00
C325   C     0.66874   0.24807   0.31370   0.00000  Uiso   1.00
C326   C     0.69283   0.22317   0.24096   0.00000  Uiso   1.00
C327   C     0.74827   0.19609   0.12761   0.00000  Uiso   1.00
C328   C     0.53395   0.26711   0.37397   0.00000  Uiso   1.00
C329   C     0.51117   0.31645   0.37839   0.00000  Uiso   1.00
C330   C     0.46320   0.32282   0.33524   0.00000  Uiso   1.00
C331   C     0.38574   0.35340   0.27650   0.00000  Uiso   1.00
C332   C     0.57450   0.20502   0.47822   0.00000  Uiso   1.00
C333   C     0.58581   0.20215   0.57031   0.00000  Uiso   1.00
C334   C     0.57197   0.15625   0.61494   0.00000  Uiso   1.00
C335   C     0.55746   0.09042   0.71807   0.00000  Uiso   1.00
C336   C     0.54150   0.17508   0.33183   0.00000  Uiso   1.00
C337   C     0.59526   0.18847   0.29294   0.00000  Uiso   1.00
C338   C     0.61928   0.16353   0.22023   0.00000  Uiso   1.00
C339   C     0.66851   0.18159   0.19499   0.00000  Uiso   1.00
C340   C     0.50966   0.22562   0.32808   0.00000  Uiso   1.00
C341   C     0.46171   0.23191   0.28492   0.00000  Uiso   1.00
C342   C     0.43888   0.28125   0.28927   0.00000  Uiso   1.00
C343   C     0.55021   0.16352   0.43234   0.00000  Uiso   1.00
C344   C     0.53635   0.11762   0.47684   0.00000  Uiso   1.00
C345   C     0.54764   0.11468   0.56897   0.00000  Uiso   1.00
H346   H     0.60511   0.28380   0.45203   0.00000  Uiso   1.00
H347   H     0.68752   0.28019   0.34922   0.00000  Uiso   1.00
H348   H     0.52997   0.34856   0.41391   0.00000  Uiso   1.00
H349   H     0.60460   0.23428   0.60580   0.00000  Uiso   1.00
H350   H     0.76817   0.25790   0.21498   0.00000  Uiso   1.00
H351   H     0.43597   0.40205   0.35141   0.00000  Uiso   1.00
H352   H     0.59333   0.16107   0.75604   0.00000  Uiso   1.00
H353   H     0.52260   0.14277   0.29610   0.00000  Uiso   1.00
H354   H     0.60048   0.13142   0.18473   0.00000  Uiso   1.00
H355   H     0.44293   0.19979   0.24942   0.00000  Uiso   1.00
H356   H     0.51756   0.08551   0.44131   0.00000  Uiso   1.00
H357   H     0.69752   0.13715   0.08147   0.00000  Uiso   1.00
H358   H     0.36532   0.28131   0.21791   0.00000  Uiso   1.00
H359   H     0.52268   0.04033   0.62253   0.00000  Uiso   1.00
O360   O     0.78556   0.19261   0.07775   0.00000  Uiso   1.00
O361   O     0.34972   0.38173   0.25677   0.00000  Uiso   1.00
O362   O     0.55618   0.06558   0.78763   0.00000  Uiso   1.00
N363   N     0.74086   0.23103   0.19885   0.00000  Uiso   1.00
N364   N     0.43027   0.36581   0.32640   0.00000  Uiso   1.00
N365   N     0.57738   0.14052   0.70470   0.00000  Uiso   1.00
N366   N     0.70284   0.16606   0.12701   0.00000  Uiso   1.00
N367   N     0.39226   0.30083   0.25456   0.00000  Uiso   1.00
N368   N     0.53937   0.07555   0.63286   0.00000  Uiso   1.00
C369   C     0.75149   0.91379   0.08369   0.00000  Uiso   1.00
C370   C     0.72997   0.88046   0.16117   0.00000  Uiso   1.00
C371   C     0.74807   0.83126   0.18630   0.00000  Uiso   1.00
C372   C     0.72317   0.80717   0.25904   0.00000  Uiso   1.00
C373   C     0.69609   0.75173   0.37239   0.00000  Uiso   1.00
C374   C     0.76711   0.96605   0.12603   0.00000  Uiso   1.00
C375   C     0.81645   0.98883   0.12161   0.00000  Uiso   1.00
C376   C     0.82282   0.03680   0.16476   0.00000  Uiso   1.00
C377   C     0.85340   0.11426   0.22350   0.00000  Uiso   1.00
C378   C     0.70502   0.92550   0.02178   0.00000  Uiso   1.00
C379   C     0.70215   0.91419   0.92969   0.00000  Uiso   1.00
C380   C     0.65625   0.92803   0.88506   0.00000  Uiso   1.00
C381   C     0.59042   0.94254   0.78193   0.00000  Uiso   1.00
C382   C     0.67508   0.95850   0.16817   0.00000  Uiso   1.00
C383   C     0.68847   0.90474   0.20706   0.00000  Uiso   1.00
C384   C     0.66353   0.88072   0.27977   0.00000  Uiso   1.00
C385   C     0.68159   0.83149   0.30501   0.00000  Uiso   1.00
C386   C     0.72562   0.99034   0.17192   0.00000  Uiso   1.00
C387   C     0.73191   0.03829   0.21508   0.00000  Uiso   1.00
C388   C     0.78125   0.06112   0.21073   0.00000  Uiso   1.00
C389   C     0.66352   0.94979   0.06766   0.00000  Uiso   1.00
C390   C     0.61762   0.96365   0.02316   0.00000  Uiso   1.00
C391   C     0.61468   0.95236   0.93103   0.00000  Uiso   1.00
H392   H     0.78380   0.89489   0.04797   0.00000  Uiso   1.00
H393   H     0.78019   0.81248   0.15078   0.00000  Uiso   1.00
H394   H     0.84856   0.97003   0.08609   0.00000  Uiso   1.00
H395   H     0.73428   0.89540   0.89420   0.00000  Uiso   1.00
H396   H     0.75790   0.73183   0.28502   0.00000  Uiso   1.00
H397   H     0.90205   0.06403   0.14859   0.00000  Uiso   1.00
H398   H     0.66107   0.90667   0.74396   0.00000  Uiso   1.00
H399   H     0.64277   0.97740   0.20390   0.00000  Uiso   1.00
H400   H     0.63142   0.89952   0.31527   0.00000  Uiso   1.00
H401   H     0.69979   0.05707   0.25058   0.00000  Uiso   1.00
H402   H     0.58551   0.98244   0.05869   0.00000  Uiso   1.00
H403   H     0.63715   0.80248   0.41853   0.00000  Uiso   1.00
H404   H     0.78131   0.13468   0.28209   0.00000  Uiso   1.00
H405   H     0.54033   0.97732   0.87747   0.00000  Uiso   1.00
O406   O     0.69261   0.71444   0.42225   0.00000  Uiso   1.00
O407   O     0.88173   0.15028   0.24323   0.00000  Uiso   1.00
O408   O     0.56558   0.94382   0.71237   0.00000  Uiso   1.00
N409   N     0.73103   0.75914   0.30115   0.00000  Uiso   1.00
N410   N     0.86581   0.06973   0.17360   0.00000  Uiso   1.00
N411   N     0.64052   0.92262   0.79530   0.00000  Uiso   1.00
N412   N     0.66606   0.79716   0.37299   0.00000  Uiso   1.00
N413   N     0.80083   0.10774   0.24544   0.00000  Uiso   1.00
N414   N     0.57555   0.96063   0.86714   0.00000  Uiso   1.00
C415   C     0.25149   0.41379   0.58369   0.00000  Uiso   1.00
C416   C     0.22997   0.38046   0.66117   0.00000  Uiso   1.00
C417   C     0.24807   0.33126   0.68630   0.00000  Uiso   1.00
C418   C     0.22317   0.30717   0.75904   0.00000  Uiso   1.00
C419   C     0.19609   0.25173   0.87239   0.00000  Uiso   1.00
C420   C     0.26711   0.46605   0.62603   0.00000  Uiso   1.00
C421   C     0.31645   0.48883   0.62161   0.00000  Uiso   1.00
C422   C     0.32282   0.53680   0.66476   0.00000  Uiso   1.00
C423   C     0.35340   0.61426   0.72350   0.00000  Uiso   1.00
C424   C     0.20502   0.42550   0.52178   0.00000  Uiso   1.00
C425   C     0.20215   0.41419   0.42969   0.00000  Uiso   1.00
C426   C     0.15625   0.42803   0.38506   0.00000  Uiso   1.00
C427   C     0.09042   0.44254   0.28193   0.00000  Uiso   1.00
C428   C     0.17508   0.45850   0.66817   0.00000  Uiso   1.00
C429   C     0.18847   0.40474   0.70706   0.00000  Uiso   1.00
C430   C     0.16353   0.38072   0.77977   0.00000  Uiso   1.00
C431   C     0.18159   0.33149   0.80501   0.00000  Uiso   1.00
C432   C     0.22562   0.49034   0.67192   0.00000  Uiso   1.00
C433   C     0.23191   0.53829   0.71508   0.00000  Uiso   1.00
C434   C     0.28125   0.56112   0.71073   0.00000  Uiso   1.00
C435   C     0.16352   0.44979   0.56766   0.00000  Uiso   1.00
C436   C     0.11762   0.46365   0.52316   0.00000  Uiso   1.00
C437   C     0.11468   0.45236   0.43103   0.00000  Uiso   1.00
H438   H     0.28380   0.39489   0.54797   0.00000  Uiso   1.00
H439   H     0.28019   0.31248   0.65078   0.00000  Uiso   1.00
H440   H     0.34856   0.47003   0.58609   0.00000  Uiso   1.00
H441   H     0.23428   0.39540   0.39420   0.00000  Uiso   1.00
H442   H     0.25790   0.23183   0.78502   0.00000  Uiso   1.00
H443   H     0.40205   0.56403   0.64859   0.00000  Uiso   1.00
H444   H     0.16107   0.40667   0.24396   0.00000  Uiso   1.00
H445   H     0.14277   0.47740   0.70390   0.00000  Uiso   1.00
H446   H     0.13142   0.39952   0.81527   0.00000  Uiso   1.00
H447   H     0.19979   0.55707   0.75058   0.00000  Uiso   1.00
H448   H     0.08551   0.48244   0.55869   0.00000  Uiso   1.00
H449   H     0.13715   0.30248   0.91853   0.00000  Uiso   1.00
H450   H     0.28131   0.63468   0.78209   0.00000  Uiso   1.00
H451   H     0.04033   0.47732   0.37747   0.00000  Uiso   1.00
O452   O     0.19261   0.21444   0.92225   0.00000  Uiso   1.00
O453   O     0.38173   0.65028   0.74323   0.00000  Uiso   1.00
O454   O     0.06558   0.44382   0.21237   0.00000  Uiso   1.00
N455   N     0.23103   0.25914   0.80115   0.00000  Uiso   1.00
N456   N     0.36581   0.56973   0.67360   0.00000  Uiso   1.00
N457   N     0.14052   0.42262   0.29530   0.00000  Uiso   1.00
N458   N     0.16606   0.29716   0.87299   0.00000  Uiso   1.00
N459   N     0.30083   0.60774   0.74544   0.00000  Uiso   1.00
N460   N     0.07555   0.46063   0.36714   0.00000  Uiso   1.00
C461   C     0.74851   0.58621   0.58369   0.00000  Uiso   1.00
C462   C     0.77003   0.61954   0.66117   0.00000  Uiso   1.00
C463   C     0.75193   0.66874   0.68630   0.00000  Uiso   1.00
C464   C     0.77683   0.69283   0.75904   0.00000  Uiso   1.00
C465   C     0.80391   0.74827   0.87239   0.00000  Uiso   1.00
C466   C     0.73289   0.53395   0.62603   0.00000  Uiso   1.00
C467   C     0.68355   0.51117   0.62161   0.00000  Uiso   1.00
C468   C     0.67718   0.46320   0.66476   0.00000  Uiso   1.00
C469   C     0.64660   0.38574   0.72350   0.00000  Uiso   1.00
C470   C     0.79498   0.57450   0.52178   0.00000  Uiso   1.00
C471   C     0.79785   0.58581   0.42969   0.00000  Uiso   1.00
C472   C     0.84375   0.57197   0.38506   0.00000  Uiso   1.00
C473   C     0.90958   0.55746   0.28193   0.00000  Uiso   1.00
C474   C     0.82492   0.54150   0.66817   0.00000  Uiso   1.00
C475   C     0.81153   0.59526   0.70706   0.00000  Uiso   1.00
C476   C     0.83647   0.61928   0.77977   0.00000  Uiso   1.00
C477   C     0.81841   0.66851   0.80501   0.00000  Uiso   1.00
C478   C     0.77438   0.50966   0.67192   0.00000  Uiso   1.00
C479   C     0.76809   0.46171   0.71508   0.00000  Uiso   1.00
C480   C     0.71875   0.43888   0.71073   0.00000  Uiso   1.00
C481   C     0.83648   0.55021   0.56766   0.00000  Uiso   1.00
C482   C     0.88238   0.53635   0.52316   0.00000  Uiso   1.00
C483   C     0.88532   0.54764   0.43103   0.00000  Uiso   1.00
H484   H     0.71620   0.60511   0.54797   0.00000  Uiso   1.00
H485   H     0.71981   0.68752   0.65078   0.00000  Uiso   1.00
H486   H     0.65144   0.52997   0.58609   0.00000  Uiso   1.00
H487   H     0.76572   0.60460   0.39420   0.00000  Uiso   1.00
H488   H     0.74210   0.76817   0.78502   0.00000  Uiso   1.00
H489   H     0.59795   0.43597   0.64859   0.00000  Uiso   1.00
H490   H     0.83893   0.59333   0.24396   0.00000  Uiso   1.00
H491   H     0.85723   0.52260   0.70390   0.00000  Uiso   1.00
H492   H     0.86858   0.60048   0.81527   0.00000  Uiso   1.00
H493   H     0.80021   0.44293   0.75058   0.00000  Uiso   1.00
H494   H     0.91449   0.51756   0.55869   0.00000  Uiso   1.00
H495   H     0.86285   0.69752   0.91853   0.00000  Uiso   1.00
H496   H     0.71869   0.36532   0.78209   0.00000  Uiso   1.00
H497   H     0.95967   0.52268   0.37747   0.00000  Uiso   1.00
O498   O     0.80739   0.78556   0.92225   0.00000  Uiso   1.00
O499   O     0.61827   0.34972   0.74323   0.00000  Uiso   1.00
O500   O     0.93442   0.55618   0.21237   0.00000  Uiso   1.00
N501   N     0.76897   0.74086   0.80115   0.00000  Uiso   1.00
N502   N     0.63419   0.43027   0.67360   0.00000  Uiso   1.00
N503   N     0.85948   0.57738   0.29530   0.00000  Uiso   1.00
N504   N     0.83394   0.70284   0.87299   0.00000  Uiso   1.00
N505   N     0.69917   0.39226   0.74544   0.00000  Uiso   1.00
N506   N     0.92445   0.53937   0.36714   0.00000  Uiso   1.00
C507   C     0.24851   0.08621   0.08369   0.00000  Uiso   1.00
C508   C     0.27003   0.11954   0.16117   0.00000  Uiso   1.00
C509   C     0.25193   0.16874   0.18630   0.00000  Uiso   1.00
C510   C     0.27683   0.19283   0.25904   0.00000  Uiso   1.00
C511   C     0.30391   0.24827   0.37239   0.00000  Uiso   1.00
C512   C     0.23289   0.03395   0.12603   0.00000  Uiso   1.00
C513   C     0.18355   0.01117   0.12161   0.00000  Uiso   1.00
C514   C     0.17718   0.96320   0.16476   0.00000  Uiso   1.00
C515   C     0.14660   0.88574   0.22350   0.00000  Uiso   1.00
C516   C     0.29498   0.07450   0.02178   0.00000  Uiso   1.00
C517   C     0.29785   0.08581   0.92969   0.00000  Uiso   1.00
C518   C     0.34375   0.07197   0.88506   0.00000  Uiso   1.00
C519   C     0.40958   0.05746   0.78193   0.00000  Uiso   1.00
C520   C     0.32492   0.04150   0.16817   0.00000  Uiso   1.00
C521   C     0.31153   0.09526   0.20706   0.00000  Uiso   1.00
C522   C     0.33647   0.11928   0.27977   0.00000  Uiso   1.00
C523   C     0.31841   0.16851   0.30501   0.00000  Uiso   1.00
C524   C     0.27438   0.00966   0.17192   0.00000  Uiso   1.00
C525   C     0.26809   0.96171   0.21508   0.00000  Uiso   1.00
C526   C     0.21875   0.93888   0.21073   0.00000  Uiso   1.00
C527   C     0.33648   0.05021   0.06766   0.00000  Uiso   1.00
C528   C     0.38238   0.03635   0.02316   0.00000  Uiso   1.00
C529   C     0.38532   0.04764   0.93103   0.00000  Uiso   1.00
H530   H     0.21620   0.10511   0.04797   0.00000  Uiso   1.00
H531   H     0.21981   0.18752   0.15078   0.00000  Uiso   1.00
H532   H     0.15144   0.02997   0.08609   0.00000  Uiso   1.00
H533   H     0.26572   0.10460   0.89420   0.00000  Uiso   1.00
H534   H     0.24210   0.26817   0.28502   0.00000  Uiso   1.00
H535   H     0.09795   0.93597   0.14859   0.00000  Uiso   1.00
H536   H     0.33893   0.09333   0.74396   0.00000  Uiso   1.00
H537   H     0.35723   0.02260   0.20390   0.00000  Uiso   1.00
H538   H     0.36858   0.10048   0.31527   0.00000  Uiso   1.00
H539   H     0.30021   0.94293   0.25058   0.00000  Uiso   1.00
H540   H     0.41449   0.01756   0.05869   0.00000  Uiso   1.00
H541   H     0.36285   0.19752   0.41853   0.00000  Uiso   1.00
H542   H     0.21869   0.86532   0.28209   0.00000  Uiso   1.00
H543   H     0.45967   0.02268   0.87747   0.00000  Uiso   1.00
O544   O     0.30739   0.28556   0.42225   0.00000  Uiso   1.00
O545   O     0.11827   0.84972   0.24323   0.00000  Uiso   1.00
O546   O     0.43442   0.05618   0.71237   0.00000  Uiso   1.00
N547   N     0.26897   0.24086   0.30115   0.00000  Uiso   1.00
N548   N     0.13419   0.93027   0.17360   0.00000  Uiso   1.00
N549   N     0.35948   0.07738   0.79530   0.00000  Uiso   1.00
N550   N     0.33394   0.20284   0.37299   0.00000  Uiso   1.00
N551   N     0.19917   0.89226   0.24544   0.00000  Uiso   1.00
N552   N     0.42445   0.03937   0.86714   0.00000  Uiso   1.00
C553   C     0.58621   0.75149   0.83369   0.00000  Uiso   1.00
C554   C     0.61954   0.72997   0.91117   0.00000  Uiso   1.00
C555   C     0.66874   0.74807   0.93630   0.00000  Uiso   1.00
C556   C     0.69283   0.72317   0.00904   0.00000  Uiso   1.00
C557   C     0.74827   0.69609   0.12239   0.00000  Uiso   1.00
C558   C     0.53395   0.76711   0.87603   0.00000  Uiso   1.00
C559   C     0.51117   0.81645   0.87161   0.00000  Uiso   1.00
C560   C     0.46320   0.82282   0.91476   0.00000  Uiso   1.00
C561   C     0.38574   0.85340   0.97350   0.00000  Uiso   1.00
C562   C     0.57450   0.70502   0.77178   0.00000  Uiso   1.00
C563   C     0.58581   0.70215   0.67969   0.00000  Uiso   1.00
C564   C     0.57197   0.65625   0.63506   0.00000  Uiso   1.00
C565   C     0.55746   0.59042   0.53193   0.00000  Uiso   1.00
C566   C     0.54150   0.67508   0.91817   0.00000  Uiso   1.00
C567   C     0.59526   0.68847   0.95706   0.00000  Uiso   1.00
C568   C     0.61928   0.66353   0.02977   0.00000  Uiso   1.00
C569   C     0.66851   0.68159   0.05501   0.00000  Uiso   1.00
C570   C     0.50966   0.72562   0.92192   0.00000  Uiso   1.00
C571   C     0.46171   0.73191   0.96508   0.00000  Uiso   1.00
C572   C     0.43888   0.78125   0.96073   0.00000  Uiso   1.00
C573   C     0.55021   0.66352   0.81766   0.00000  Uiso   1.00
C574   C     0.53635   0.61762   0.77316   0.00000  Uiso   1.00
C575   C     0.54764   0.61468   0.68103   0.00000  Uiso   1.00
H576   H     0.60511   0.78380   0.79797   0.00000  Uiso   1.00
H577   H     0.68752   0.78019   0.90078   0.00000  Uiso   1.00
H578   H     0.52997   0.84856   0.83609   0.00000  Uiso   1.00
H579   H     0.60460   0.73428   0.64420   0.00000  Uiso   1.00
H580   H     0.76817   0.75790   0.03502   0.00000  Uiso   1.00
H581   H     0.43597   0.90205   0.89859   0.00000  Uiso   1.00
H582   H     0.59333   0.66107   0.49396   0.00000  Uiso   1.00
H583   H     0.52260   0.64277   0.95390   0.00000  Uiso   1.00
H584   H     0.60048   0.63142   0.06527   0.00000  Uiso   1.00
H585   H     0.44293   0.69979   0.00058   0.00000  Uiso   1.00
H586   H     0.51756   0.58551   0.80869   0.00000  Uiso   1.00
H587   H     0.69752   0.63715   0.16853   0.00000  Uiso   1.00
H588   H     0.36532   0.78131   0.03209   0.00000  Uiso   1.00
H589   H     0.52268   0.54033   0.62747   0.00000  Uiso   1.00
O590   O     0.78556   0.69261   0.17225   0.00000  Uiso   1.00
O591   O     0.34972   0.88173   0.99323   0.00000  Uiso   1.00
O592   O     0.55618   0.56558   0.46237   0.00000  Uiso   1.00
N593   N     0.74086   0.73103   0.05115   0.00000  Uiso   1.00
N594   N     0.43027   0.86581   0.92360   0.00000  Uiso   1.00
N595   N     0.57738   0.64052   0.54530   0.00000  Uiso   1.00
N596   N     0.70284   0.66606   0.12299   0.00000  Uiso   1.00
N597   N     0.39226   0.80083   0.99544   0.00000  Uiso   1.00
N598   N     0.53937   0.57555   0.61714   0.00000  Uiso   1.00
C599   C     0.08621   0.25149   0.33369   0.00000  Uiso   1.00
C600   C     0.11954   0.22997   0.41117   0.00000  Uiso   1.00
C601   C     0.16874   0.24807   0.43630   0.00000  Uiso   1.00
C602   C     0.19283   0.22317   0.50904   0.00000  Uiso   1.00
C603   C     0.24827   0.19609   0.62239   0.00000  Uiso   1.00
C604   C     0.03395   0.26711   0.37603   0.00000  Uiso   1.00
C605   C     0.01117   0.31645   0.37161   0.00000  Uiso   1.00
C606   C     0.96320   0.32282   0.41476   0.00000  Uiso   1.00
C607   C     0.88574   0.35340   0.47350   0.00000  Uiso   1.00
C608   C     0.07450   0.20502   0.27178   0.00000  Uiso   1.00
C609   C     0.08581   0.20215   0.17969   0.00000  Uiso   1.00
C610   C     0.07197   0.15625   0.13506   0.00000  Uiso   1.00
C611   C     0.05746   0.09042   0.03193   0.00000  Uiso   1.00
C612   C     0.04150   0.17508   0.41817   0.00000  Uiso   1.00
C613   C     0.09526   0.18847   0.45706   0.00000  Uiso   1.00
C614   C     0.11928   0.16353   0.52977   0.00000  Uiso   1.00
C615   C     0.16851   0.18159   0.55501   0.00000  Uiso   1.00
C616   C     0.00966   0.22562   0.42192   0.00000  Uiso   1.00
C617   C     0.96171   0.23191   0.46508   0.00000  Uiso   1.00
C618   C     0.93888   0.28125   0.46073   0.00000  Uiso   1.00
C619   C     0.05021   0.16352   0.31766   0.00000  Uiso   1.00
C620   C     0.03635   0.11762   0.27316   0.00000  Uiso   1.00
C621   C     0.04764   0.11468   0.18103   0.00000  Uiso   1.00
H622   H     0.10511   0.28380   0.29797   0.00000  Uiso   1.00
H623   H     0.18752   0.28019   0.40078   0.00000  Uiso   1.00
H624   H     0.02997   0.34856   0.33609   0.00000  Uiso   1.00
H625   H     0.10460   0.23428   0.14420   0.00000  Uiso   1.00
H626   H     0.26817   0.25790   0.53502   0.00000  Uiso   1.00
H627   H     0.93597   0.40205   0.39859   0.00000  Uiso   1.00
H628   H     0.09333   0.16107   0.99396   0.00000  Uiso   1.00
H629   H     0.02260   0.14277   0.45390   0.00000  Uiso   1.00
H630   H     0.10048   0.13142   0.56527   0.00000  Uiso   1.00
H631   H     0.94293   0.19979   0.50058   0.00000  Uiso   1.00
H632   H     0.01756   0.08551   0.30869   0.00000  Uiso   1.00
H633   H     0.19752   0.13715   0.66853   0.00000  Uiso   1.00
H634   H     0.86532   0.28131   0.53209   0.00000  Uiso   1.00
H635   H     0.02268   0.04033   0.12747   0.00000  Uiso   1.00
O636   O     0.28556   0.19261   0.67225   0.00000  Uiso   1.00
O637   O     0.84972   0.38173   0.49323   0.00000  Uiso   1.00
O638   O     0.05618   0.06558   0.96237   0.00000  Uiso   1.00
N639   N     0.24086   0.23103   0.55115   0.00000  Uiso   1.00
N640   N     0.93027   0.36581   0.42360   0.00000  Uiso   1.00
N641   N     0.07738   0.14052   0.04530   0.00000  Uiso   1.00
N642   N     0.20284   0.16606   0.62299   0.00000  Uiso   1.00
N643   N     0.89226   0.30083   0.49544   0.00000  Uiso   1.00
N644   N     0.03937   0.07555   0.11714   0.00000  Uiso   1.00
C645   C     0.91379   0.74851   0.33369   0.00000  Uiso   1.00
C646   C     0.88046   0.77003   0.41117   0.00000  Uiso   1.00
C647   C     0.83126   0.75193   0.43630   0.00000  Uiso   1.00
C648   C     0.80717   0.77683   0.50904   0.00000  Uiso   1.00
C649   C     0.75173   0.80391   0.62239   0.00000  Uiso   1.00
C650   C     0.96605   0.73289   0.37603   0.00000  Uiso   1.00
C651   C     0.98883   0.68355   0.37161   0.00000  Uiso   1.00
C652   C     0.03680   0.67718   0.41476   0.00000  Uiso   1.00
C653   C     0.11426   0.64660   0.47350   0.00000  Uiso   1.00
C654   C     0.92550   0.79498   0.27178   0.00000  Uiso   1.00
C655   C     0.91419   0.79785   0.17969   0.00000  Uiso   1.00
C656   C     0.92803   0.84375   0.13506   0.00000  Uiso   1.00
C657   C     0.94254   0.90958   0.03193   0.00000  Uiso   1.00
C658   C     0.95850   0.82492   0.41817   0.00000  Uiso   1.00
C659   C     0.90474   0.81153   0.45706   0.00000  Uiso   1.00
C660   C     0.88072   0.83647   0.52977   0.00000  Uiso   1.00
C661   C     0.83149   0.81841   0.55501   0.00000  Uiso   1.00
C662   C     0.99034   0.77438   0.42192   0.00000  Uiso   1.00
C663   C     0.03829   0.76809   0.46508   0.00000  Uiso   1.00
C664   C     0.06112   0.71875   0.46073   0.00000  Uiso   1.00
C665   C     0.94979   0.83648   0.31766   0.00000  Uiso   1.00
C666   C     0.96365   0.88238   0.27316   0.00000  Uiso   1.00
C667   C     0.95236   0.88532   0.18103   0.00000  Uiso   1.00
H668   H     0.89489   0.71620   0.29797   0.00000  Uiso   1.00
H669   H     0.81248   0.71981   0.40078   0.00000  Uiso   1.00
H670   H     0.97003   0.65144   0.33609   0.00000  Uiso   1.00
H671   H     0.89540   0.76572   0.14420   0.00000  Uiso   1.00
H672   H     0.73183   0.74210   0.53502   0.00000  Uiso   1.00
H673   H     0.06403   0.59795   0.39859   0.00000  Uiso   1.00
H674   H     0.90667   0.83893   0.99396   0.00000  Uiso   1.00
H675   H     0.97740   0.85723   0.45390   0.00000  Uiso   1.00
H676   H     0.89952   0.86858   0.56527   0.00000  Uiso   1.00
H677   H     0.05707   0.80021   0.50058   0.00000  Uiso   1.00
H678   H     0.98244   0.91449   0.30869   0.00000  Uiso   1.00
H679   H     0.80248   0.86285   0.66853   0.00000  Uiso   1.00
H680   H     0.13468   0.71869   0.53209   0.00000  Uiso   1.00
H681   H     0.97732   0.95967   0.12747   0.00000  Uiso   1.00
O682   O     0.71444   0.80739   0.67225   0.00000  Uiso   1.00
O683   O     0.15028   0.61827   0.49323   0.00000  Uiso   1.00
O684   O     0.94382   0.93442   0.96237   0.00000  Uiso   1.00
N685   N     0.75914   0.76897   0.55115   0.00000  Uiso   1.00
N686   N     0.06973   0.63419   0.42360   0.00000  Uiso   1.00
N687   N     0.92262   0.85948   0.04530   0.00000  Uiso   1.00
N688   N     0.79716   0.83394   0.62299   0.00000  Uiso   1.00
N689   N     0.10774   0.69917   0.49544   0.00000  Uiso   1.00
N690   N     0.96063   0.92445   0.11714   0.00000  Uiso   1.00
C691   C     0.41379   0.24851   0.83369   0.00000  Uiso   1.00
C692   C     0.38046   0.27003   0.91117   0.00000  Uiso   1.00
C693   C     0.33126   0.25193   0.93630   0.00000  Uiso   1.00
C694   C     0.30717   0.27683   0.00904   0.00000  Uiso   1.00
C695   C     0.25173   0.30391   0.12239   0.00000  Uiso   1.00
C696   C     0.46605   0.23289   0.87603   0.00000  Uiso   1.00
C697   C     0.48883   0.18355   0.87161   0.00000  Uiso   1.00
C698   C     0.53680   0.17718   0.91476   0.00000  Uiso   1.00
C699   C     0.61426   0.14660   0.97350   0.00000  Uiso   1.00
C700   C     0.42550   0.29498   0.77178   0.00000  Uiso   1.00
C701   C     0.41419   0.29785   0.67969   0.00000  Uiso   1.00
C702   C     0.42803   0.34375   0.63506   0.00000  Uiso   1.00
C703   C     0.44254   0.40958   0.53193   0.00000  Uiso   1.00
C704   C     0.45850   0.32492   0.91817   0.00000  Uiso   1.00
C705   C     0.40474   0.31153   0.95706   0.00000  Uiso   1.00
C706   C     0.38072   0.33647   0.02977   0.00000  Uiso   1.00
C707   C     0.33149   0.31841   0.05501   0.00000  Uiso   1.00
C708   C     0.49034   0.27438   0.92192   0.00000  Uiso   1.00
C709   C     0.53829   0.26809   0.96508   0.00000  Uiso   1.00
C710   C     0.56112   0.21875   0.96073   0.00000  Uiso   1.00
C711   C     0.44979   0.33648   0.81766   0.00000  Uiso   1.00
C712   C     0.46365   0.38238   0.77316   0.00000  Uiso   1.00
C713   C     0.45236   0.38532   0.68103   0.00000  Uiso   1.00
H714   H     0.39489   0.21620   0.79797   0.00000  Uiso   1.00
H715   H     0.31248   0.21981   0.90078   0.00000  Uiso   1.00
H716   H     0.47003   0.15144   0.83609   0.00000  Uiso   1.00
H717   H     0.39540   0.26572   0.64420   0.00000  Uiso   1.00
H718   H     0.23183   0.24210   0.03502   0.00000  Uiso   1.00
H719   H     0.56403   0.09795   0.89859   0.00000  Uiso   1.00
H720   H     0.40667   0.33893   0.49396   0.00000  Uiso   1.00
H721   H     0.47740   0.35723   0.95390   0.00000  Uiso   1.00
H722   H     0.39952   0.36858   0.06527   0.00000  Uiso   1.00
H723   H     0.55707   0.30021   0.00058   0.00000  Uiso   1.00
H724   H     0.48244   0.41449   0.80869   0.00000  Uiso   1.00
H725   H     0.30248   0.36285   0.16853   0.00000  Uiso   1.00
H726   H     0.63468   0.21869   0.03209   0.00000  Uiso   1.00
H727   H     0.47732   0.45967   0.62747   0.00000  Uiso   1.00
O728   O     0.21444   0.30739   0.17225   0.00000  Uiso   1.00
O729   O     0.65028   0.11827   0.99323   0.00000  Uiso   1.00
O730   O     0.44382   0.43442   0.46237   0.00000  Uiso   1.00
N731   N     0.25914   0.26897   0.05115   0.00000  Uiso   1.00
N732   N     0.56973   0.13419   0.92360   0.00000  Uiso   1.00
N733   N     0.42262   0.35948   0.54530   0.00000  Uiso   1.00
N734   N     0.29716   0.33394   0.12299   0.00000  Uiso   1.00
N735   N     0.60774   0.19917   0.99544   0.00000  Uiso   1.00
N736   N     0.46063   0.42445   0.61714   0.00000  Uiso   1.00
