data_job_02280
_audit_creation_date              2018-12-19
_audit_creation_method            'Materials Studio'
_symmetry_space_group_name_H-M    'P1'
_symmetry_Int_Tables_number       1
_symmetry_cell_setting            triclinic
loop_
_symmetry_equiv_pos_as_xyz
  x,y,z
_cell_length_a                    23.7219
_cell_length_b                    23.7219
_cell_length_c                    20.8157
_cell_angle_alpha                 90.0000
_cell_angle_beta                  90.0000
_cell_angle_gamma                 90.0000
loop_
_atom_site_label
_atom_site_type_symbol
_atom_site_fract_x
_atom_site_fract_y
_atom_site_fract_z
_atom_site_U_iso_or_equiv
_atom_site_adp_type
_atom_site_occupancy
C1     C     0.18944   0.65662   0.73147   0.00000  Uiso   1.00
C2     C     0.19749   0.64266   0.66055   0.00000  Uiso   1.00
C3     C     0.17233   0.67061   0.60947   0.00000  Uiso   1.00
C4     C     0.18508   0.65141   0.54816   0.00000  Uiso   1.00
C5     C     0.19198   0.63664   0.43954   0.00000  Uiso   1.00
C6     C     0.16873   0.60249   0.76315   0.00000  Uiso   1.00
C7     C     0.11938   0.59667   0.79836   0.00000  Uiso   1.00
C8     C     0.10793   0.54365   0.82343   0.00000  Uiso   1.00
C9     C     0.07020   0.46653   0.87414   0.00000  Uiso   1.00
C10    C     0.24829   0.66729   0.75832   0.00000  Uiso   1.00
C11    C     0.26584   0.71594   0.78948   0.00000  Uiso   1.00
C12    C     0.32137   0.71748   0.81050   0.00000  Uiso   1.00
C13    C     0.40718   0.74096   0.85371   0.00000  Uiso   1.00
C14    C     0.25683   0.57284   0.71340   0.00000  Uiso   1.00
C15    C     0.23409   0.59715   0.65074   0.00000  Uiso   1.00
C16    C     0.24689   0.57791   0.58949   0.00000  Uiso   1.00
C17    C     0.22175   0.60582   0.53833   0.00000  Uiso   1.00
C18    C     0.20533   0.55698   0.75334   0.00000  Uiso   1.00
C19    C     0.19394   0.50397   0.77837   0.00000  Uiso   1.00
C20    C     0.14460   0.49806   0.81360   0.00000  Uiso   1.00
C21    C     0.28489   0.62178   0.74851   0.00000  Uiso   1.00
C22    C     0.34040   0.62324   0.76949   0.00000  Uiso   1.00
C23    C     0.35804   0.67188   0.80067   0.00000  Uiso   1.00
H24    H     0.16094   0.69205   0.73911   0.00000  Uiso   1.00
H25    H     0.14400   0.70583   0.61709   0.00000  Uiso   1.00
H26    H     0.09107   0.63190   0.80595   0.00000  Uiso   1.00
H27    H     0.23751   0.75115   0.79706   0.00000  Uiso   1.00
H28    H     0.14134   0.70101   0.47748   0.00000  Uiso   1.00
H29    H     0.02974   0.54513   0.87572   0.00000  Uiso   1.00
H30    H     0.33853   0.79661   0.85699   0.00000  Uiso   1.00
H31    H     0.28533   0.53740   0.70576   0.00000  Uiso   1.00
H32    H     0.27521   0.54269   0.58191   0.00000  Uiso   1.00
H33    H     0.22228   0.46876   0.77077   0.00000  Uiso   1.00
H34    H     0.36872   0.58801   0.76189   0.00000  Uiso   1.00
H35    H     0.24783   0.56860   0.44893   0.00000  Uiso   1.00
H36    H     0.13624   0.41272   0.84717   0.00000  Uiso   1.00
H37    H     0.44503   0.66420   0.82844   0.00000  Uiso   1.00
O38    O     0.18567   0.64106   0.38233   0.00000  Uiso   1.00
O39    O     0.03927   0.43656   0.90482   0.00000  Uiso   1.00
O40    O     0.44439   0.76649   0.88024   0.00000  Uiso   1.00
N41    N     0.16780   0.66913   0.48776   0.00000  Uiso   1.00
N42    N     0.06346   0.52339   0.86008   0.00000  Uiso   1.00
N43    N     0.35215   0.75849   0.84259   0.00000  Uiso   1.00
N44    N     0.22510   0.59788   0.47239   0.00000  Uiso   1.00
N45    N     0.12077   0.45214   0.84472   0.00000  Uiso   1.00
N46    N     0.40946   0.68724   0.82722   0.00000  Uiso   1.00
C47    C     0.68944   0.15662   0.23147   0.00000  Uiso   1.00
C48    C     0.69749   0.14266   0.16055   0.00000  Uiso   1.00
C49    C     0.67233   0.17061   0.10947   0.00000  Uiso   1.00
C50    C     0.68508   0.15141   0.04816   0.00000  Uiso   1.00
C51    C     0.69198   0.13664   0.93954   0.00000  Uiso   1.00
C52    C     0.66873   0.10249   0.26315   0.00000  Uiso   1.00
C53    C     0.61938   0.09667   0.29836   0.00000  Uiso   1.00
C54    C     0.60793   0.04365   0.32343   0.00000  Uiso   1.00
C55    C     0.57020   0.96653   0.37414   0.00000  Uiso   1.00
C56    C     0.74829   0.16729   0.25832   0.00000  Uiso   1.00
C57    C     0.76584   0.21594   0.28948   0.00000  Uiso   1.00
C58    C     0.82137   0.21748   0.31050   0.00000  Uiso   1.00
C59    C     0.90718   0.24096   0.35371   0.00000  Uiso   1.00
C60    C     0.75683   0.07284   0.21340   0.00000  Uiso   1.00
C61    C     0.73409   0.09715   0.15074   0.00000  Uiso   1.00
C62    C     0.74689   0.07791   0.08949   0.00000  Uiso   1.00
C63    C     0.72175   0.10582   0.03833   0.00000  Uiso   1.00
C64    C     0.70533   0.05698   0.25334   0.00000  Uiso   1.00
C65    C     0.69394   0.00397   0.27837   0.00000  Uiso   1.00
C66    C     0.64460   0.99806   0.31360   0.00000  Uiso   1.00
C67    C     0.78489   0.12178   0.24851   0.00000  Uiso   1.00
C68    C     0.84040   0.12324   0.26949   0.00000  Uiso   1.00
C69    C     0.85804   0.17188   0.30067   0.00000  Uiso   1.00
H70    H     0.66094   0.19205   0.23911   0.00000  Uiso   1.00
H71    H     0.64400   0.20583   0.11709   0.00000  Uiso   1.00
H72    H     0.59107   0.13190   0.30595   0.00000  Uiso   1.00
H73    H     0.73751   0.25115   0.29706   0.00000  Uiso   1.00
H74    H     0.64134   0.20101   0.97748   0.00000  Uiso   1.00
H75    H     0.52974   0.04513   0.37572   0.00000  Uiso   1.00
H76    H     0.83853   0.29661   0.35699   0.00000  Uiso   1.00
H77    H     0.78533   0.03740   0.20576   0.00000  Uiso   1.00
H78    H     0.77521   0.04269   0.08191   0.00000  Uiso   1.00
H79    H     0.72228   0.96876   0.27077   0.00000  Uiso   1.00
H80    H     0.86872   0.08801   0.26189   0.00000  Uiso   1.00
H81    H     0.74783   0.06860   0.94893   0.00000  Uiso   1.00
H82    H     0.63624   0.91272   0.34717   0.00000  Uiso   1.00
H83    H     0.94503   0.16420   0.32844   0.00000  Uiso   1.00
O84    O     0.68567   0.14106   0.88233   0.00000  Uiso   1.00
O85    O     0.53927   0.93656   0.40482   0.00000  Uiso   1.00
O86    O     0.94439   0.26649   0.38024   0.00000  Uiso   1.00
N87    N     0.66780   0.16913   0.98776   0.00000  Uiso   1.00
N88    N     0.56346   0.02339   0.36008   0.00000  Uiso   1.00
N89    N     0.85215   0.25849   0.34259   0.00000  Uiso   1.00
N90    N     0.72510   0.09788   0.97239   0.00000  Uiso   1.00
N91    N     0.62077   0.95214   0.34472   0.00000  Uiso   1.00
N92    N     0.90946   0.18724   0.32722   0.00000  Uiso   1.00
C93    C     0.81056   0.34338   0.73147   0.00000  Uiso   1.00
C94    C     0.80251   0.35734   0.66055   0.00000  Uiso   1.00
C95    C     0.82767   0.32939   0.60947   0.00000  Uiso   1.00
C96    C     0.81492   0.34859   0.54816   0.00000  Uiso   1.00
C97    C     0.80802   0.36336   0.43954   0.00000  Uiso   1.00
C98    C     0.83127   0.39751   0.76315   0.00000  Uiso   1.00
C99    C     0.88062   0.40333   0.79836   0.00000  Uiso   1.00
C100   C     0.89207   0.45635   0.82343   0.00000  Uiso   1.00
C101   C     0.92980   0.53347   0.87414   0.00000  Uiso   1.00
C102   C     0.75171   0.33271   0.75832   0.00000  Uiso   1.00
C103   C     0.73416   0.28406   0.78948   0.00000  Uiso   1.00
C104   C     0.67863   0.28252   0.81050   0.00000  Uiso   1.00
C105   C     0.59282   0.25904   0.85371   0.00000  Uiso   1.00
C106   C     0.74317   0.42716   0.71340   0.00000  Uiso   1.00
C107   C     0.76591   0.40285   0.65074   0.00000  Uiso   1.00
C108   C     0.75311   0.42209   0.58949   0.00000  Uiso   1.00
C109   C     0.77825   0.39418   0.53833   0.00000  Uiso   1.00
C110   C     0.79467   0.44302   0.75334   0.00000  Uiso   1.00
C111   C     0.80606   0.49603   0.77837   0.00000  Uiso   1.00
C112   C     0.85540   0.50194   0.81360   0.00000  Uiso   1.00
C113   C     0.71511   0.37822   0.74851   0.00000  Uiso   1.00
C114   C     0.65960   0.37676   0.76949   0.00000  Uiso   1.00
C115   C     0.64196   0.32812   0.80067   0.00000  Uiso   1.00
H116   H     0.83906   0.30795   0.73911   0.00000  Uiso   1.00
H117   H     0.85600   0.29417   0.61709   0.00000  Uiso   1.00
H118   H     0.90893   0.36810   0.80595   0.00000  Uiso   1.00
H119   H     0.76249   0.24885   0.79706   0.00000  Uiso   1.00
H120   H     0.85866   0.29899   0.47748   0.00000  Uiso   1.00
H121   H     0.97026   0.45487   0.87572   0.00000  Uiso   1.00
H122   H     0.66147   0.20339   0.85699   0.00000  Uiso   1.00
H123   H     0.71467   0.46260   0.70576   0.00000  Uiso   1.00
H124   H     0.72479   0.45731   0.58191   0.00000  Uiso   1.00
H125   H     0.77772   0.53124   0.77077   0.00000  Uiso   1.00
H126   H     0.63128   0.41199   0.76189   0.00000  Uiso   1.00
H127   H     0.75217   0.43140   0.44893   0.00000  Uiso   1.00
H128   H     0.86376   0.58728   0.84717   0.00000  Uiso   1.00
H129   H     0.55497   0.33580   0.82844   0.00000  Uiso   1.00
O130   O     0.81433   0.35894   0.38233   0.00000  Uiso   1.00
O131   O     0.96073   0.56344   0.90482   0.00000  Uiso   1.00
O132   O     0.55561   0.23351   0.88024   0.00000  Uiso   1.00
N133   N     0.83220   0.33087   0.48776   0.00000  Uiso   1.00
N134   N     0.93654   0.47661   0.86008   0.00000  Uiso   1.00
N135   N     0.64785   0.24151   0.84259   0.00000  Uiso   1.00
N136   N     0.77490   0.40212   0.47239   0.00000  Uiso   1.00
N137   N     0.87923   0.54786   0.84472   0.00000  Uiso   1.00
N138   N     0.59054   0.31276   0.82722   0.00000  Uiso   1.00
C139   C     0.31056   0.84338   0.23147   0.00000  Uiso   1.00
C140   C     0.30251   0.85734   0.16055   0.00000  Uiso   1.00
C141   C     0.32767   0.82939   0.10947   0.00000  Uiso   1.00
C142   C     0.31492   0.84859   0.04816   0.00000  Uiso   1.00
C143   C     0.30802   0.86336   0.93954   0.00000  Uiso   1.00
C144   C     0.33127   0.89751   0.26315   0.00000  Uiso   1.00
C145   C     0.38062   0.90333   0.29836   0.00000  Uiso   1.00
C146   C     0.39207   0.95635   0.32343   0.00000  Uiso   1.00
C147   C     0.42980   0.03347   0.37414   0.00000  Uiso   1.00
C148   C     0.25171   0.83271   0.25832   0.00000  Uiso   1.00
C149   C     0.23416   0.78406   0.28948   0.00000  Uiso   1.00
C150   C     0.17863   0.78252   0.31050   0.00000  Uiso   1.00
C151   C     0.09282   0.75904   0.35371   0.00000  Uiso   1.00
C152   C     0.24317   0.92716   0.21340   0.00000  Uiso   1.00
C153   C     0.26591   0.90285   0.15074   0.00000  Uiso   1.00
C154   C     0.25311   0.92209   0.08949   0.00000  Uiso   1.00
C155   C     0.27825   0.89418   0.03833   0.00000  Uiso   1.00
C156   C     0.29467   0.94302   0.25334   0.00000  Uiso   1.00
C157   C     0.30606   0.99603   0.27837   0.00000  Uiso   1.00
C158   C     0.35540   0.00194   0.31360   0.00000  Uiso   1.00
C159   C     0.21511   0.87822   0.24851   0.00000  Uiso   1.00
C160   C     0.15960   0.87676   0.26949   0.00000  Uiso   1.00
C161   C     0.14196   0.82812   0.30067   0.00000  Uiso   1.00
H162   H     0.33906   0.80795   0.23911   0.00000  Uiso   1.00
H163   H     0.35600   0.79417   0.11709   0.00000  Uiso   1.00
H164   H     0.40893   0.86810   0.30595   0.00000  Uiso   1.00
H165   H     0.26249   0.74885   0.29706   0.00000  Uiso   1.00
H166   H     0.35866   0.79899   0.97748   0.00000  Uiso   1.00
H167   H     0.47026   0.95487   0.37572   0.00000  Uiso   1.00
H168   H     0.16147   0.70339   0.35699   0.00000  Uiso   1.00
H169   H     0.21467   0.96260   0.20576   0.00000  Uiso   1.00
H170   H     0.22479   0.95731   0.08191   0.00000  Uiso   1.00
H171   H     0.27772   0.03124   0.27077   0.00000  Uiso   1.00
H172   H     0.13128   0.91199   0.26189   0.00000  Uiso   1.00
H173   H     0.25217   0.93140   0.94893   0.00000  Uiso   1.00
H174   H     0.36376   0.08728   0.34717   0.00000  Uiso   1.00
H175   H     0.05497   0.83580   0.32844   0.00000  Uiso   1.00
O176   O     0.31433   0.85894   0.88233   0.00000  Uiso   1.00
O177   O     0.46073   0.06344   0.40482   0.00000  Uiso   1.00
O178   O     0.05561   0.73351   0.38024   0.00000  Uiso   1.00
N179   N     0.33220   0.83087   0.98776   0.00000  Uiso   1.00
N180   N     0.43654   0.97661   0.36008   0.00000  Uiso   1.00
N181   N     0.14785   0.74151   0.34259   0.00000  Uiso   1.00
N182   N     0.27490   0.90212   0.97239   0.00000  Uiso   1.00
N183   N     0.37923   0.04786   0.34472   0.00000  Uiso   1.00
N184   N     0.09054   0.81276   0.32722   0.00000  Uiso   1.00
C185   C     0.65662   0.81056   0.26853   0.00000  Uiso   1.00
C186   C     0.64266   0.80251   0.33945   0.00000  Uiso   1.00
C187   C     0.67061   0.82767   0.39053   0.00000  Uiso   1.00
C188   C     0.65141   0.81492   0.45184   0.00000  Uiso   1.00
C189   C     0.63664   0.80802   0.56046   0.00000  Uiso   1.00
C190   C     0.60249   0.83127   0.23685   0.00000  Uiso   1.00
C191   C     0.59667   0.88062   0.20164   0.00000  Uiso   1.00
C192   C     0.54365   0.89207   0.17657   0.00000  Uiso   1.00
C193   C     0.46653   0.92980   0.12586   0.00000  Uiso   1.00
C194   C     0.66729   0.75171   0.24168   0.00000  Uiso   1.00
C195   C     0.71594   0.73416   0.21052   0.00000  Uiso   1.00
C196   C     0.71748   0.67863   0.18950   0.00000  Uiso   1.00
C197   C     0.74096   0.59282   0.14629   0.00000  Uiso   1.00
C198   C     0.57284   0.74317   0.28660   0.00000  Uiso   1.00
C199   C     0.59715   0.76591   0.34926   0.00000  Uiso   1.00
C200   C     0.57791   0.75311   0.41051   0.00000  Uiso   1.00
C201   C     0.60582   0.77825   0.46167   0.00000  Uiso   1.00
C202   C     0.55698   0.79467   0.24666   0.00000  Uiso   1.00
C203   C     0.50397   0.80606   0.22163   0.00000  Uiso   1.00
C204   C     0.49806   0.85540   0.18640   0.00000  Uiso   1.00
C205   C     0.62178   0.71511   0.25149   0.00000  Uiso   1.00
C206   C     0.62324   0.65960   0.23051   0.00000  Uiso   1.00
C207   C     0.67188   0.64196   0.19933   0.00000  Uiso   1.00
H208   H     0.69205   0.83906   0.26089   0.00000  Uiso   1.00
H209   H     0.70583   0.85600   0.38291   0.00000  Uiso   1.00
H210   H     0.63190   0.90893   0.19405   0.00000  Uiso   1.00
H211   H     0.75115   0.76249   0.20294   0.00000  Uiso   1.00
H212   H     0.70101   0.85866   0.52252   0.00000  Uiso   1.00
H213   H     0.54513   0.97026   0.12428   0.00000  Uiso   1.00
H214   H     0.79661   0.66147   0.14301   0.00000  Uiso   1.00
H215   H     0.53740   0.71467   0.29424   0.00000  Uiso   1.00
H216   H     0.54269   0.72479   0.41809   0.00000  Uiso   1.00
H217   H     0.46876   0.77772   0.22923   0.00000  Uiso   1.00
H218   H     0.58801   0.63128   0.23811   0.00000  Uiso   1.00
H219   H     0.56860   0.75217   0.55107   0.00000  Uiso   1.00
H220   H     0.41272   0.86376   0.15283   0.00000  Uiso   1.00
H221   H     0.66420   0.55497   0.17156   0.00000  Uiso   1.00
O222   O     0.64106   0.81433   0.61767   0.00000  Uiso   1.00
O223   O     0.43656   0.96073   0.09518   0.00000  Uiso   1.00
O224   O     0.76649   0.55561   0.11976   0.00000  Uiso   1.00
N225   N     0.66913   0.83220   0.51224   0.00000  Uiso   1.00
N226   N     0.52339   0.93654   0.13992   0.00000  Uiso   1.00
N227   N     0.75849   0.64785   0.15741   0.00000  Uiso   1.00
N228   N     0.59788   0.77490   0.52761   0.00000  Uiso   1.00
N229   N     0.45214   0.87923   0.15528   0.00000  Uiso   1.00
N230   N     0.68724   0.59054   0.17278   0.00000  Uiso   1.00
C231   C     0.15662   0.31056   0.76853   0.00000  Uiso   1.00
C232   C     0.14266   0.30251   0.83945   0.00000  Uiso   1.00
C233   C     0.17061   0.32767   0.89053   0.00000  Uiso   1.00
C234   C     0.15141   0.31492   0.95184   0.00000  Uiso   1.00
C235   C     0.13664   0.30802   0.06046   0.00000  Uiso   1.00
C236   C     0.10249   0.33127   0.73685   0.00000  Uiso   1.00
C237   C     0.09667   0.38062   0.70164   0.00000  Uiso   1.00
C238   C     0.04365   0.39207   0.67657   0.00000  Uiso   1.00
C239   C     0.96653   0.42980   0.62586   0.00000  Uiso   1.00
C240   C     0.16729   0.25171   0.74168   0.00000  Uiso   1.00
C241   C     0.21594   0.23416   0.71052   0.00000  Uiso   1.00
C242   C     0.21748   0.17863   0.68950   0.00000  Uiso   1.00
C243   C     0.24096   0.09282   0.64629   0.00000  Uiso   1.00
C244   C     0.07284   0.24317   0.78660   0.00000  Uiso   1.00
C245   C     0.09715   0.26591   0.84926   0.00000  Uiso   1.00
C246   C     0.07791   0.25311   0.91051   0.00000  Uiso   1.00
C247   C     0.10582   0.27825   0.96167   0.00000  Uiso   1.00
C248   C     0.05698   0.29467   0.74666   0.00000  Uiso   1.00
C249   C     0.00397   0.30606   0.72163   0.00000  Uiso   1.00
C250   C     0.99806   0.35540   0.68640   0.00000  Uiso   1.00
C251   C     0.12178   0.21511   0.75149   0.00000  Uiso   1.00
C252   C     0.12324   0.15960   0.73051   0.00000  Uiso   1.00
C253   C     0.17188   0.14196   0.69933   0.00000  Uiso   1.00
H254   H     0.19205   0.33906   0.76089   0.00000  Uiso   1.00
H255   H     0.20583   0.35600   0.88291   0.00000  Uiso   1.00
H256   H     0.13190   0.40893   0.69405   0.00000  Uiso   1.00
H257   H     0.25115   0.26249   0.70294   0.00000  Uiso   1.00
H258   H     0.20101   0.35866   0.02252   0.00000  Uiso   1.00
H259   H     0.04513   0.47026   0.62428   0.00000  Uiso   1.00
H260   H     0.29661   0.16147   0.64301   0.00000  Uiso   1.00
H261   H     0.03740   0.21467   0.79424   0.00000  Uiso   1.00
H262   H     0.04269   0.22479   0.91809   0.00000  Uiso   1.00
H263   H     0.96876   0.27772   0.72923   0.00000  Uiso   1.00
H264   H     0.08801   0.13128   0.73811   0.00000  Uiso   1.00
H265   H     0.06860   0.25217   0.05107   0.00000  Uiso   1.00
H266   H     0.91272   0.36376   0.65283   0.00000  Uiso   1.00
H267   H     0.16420   0.05497   0.67156   0.00000  Uiso   1.00
O268   O     0.14106   0.31433   0.11767   0.00000  Uiso   1.00
O269   O     0.93656   0.46073   0.59518   0.00000  Uiso   1.00
O270   O     0.26649   0.05561   0.61976   0.00000  Uiso   1.00
N271   N     0.16913   0.33220   0.01224   0.00000  Uiso   1.00
N272   N     0.02339   0.43654   0.63992   0.00000  Uiso   1.00
N273   N     0.25849   0.14785   0.65741   0.00000  Uiso   1.00
N274   N     0.09788   0.27490   0.02761   0.00000  Uiso   1.00
N275   N     0.95214   0.37923   0.65528   0.00000  Uiso   1.00
N276   N     0.18724   0.09054   0.67278   0.00000  Uiso   1.00
C277   C     0.34338   0.18944   0.26853   0.00000  Uiso   1.00
C278   C     0.35734   0.19749   0.33945   0.00000  Uiso   1.00
C279   C     0.32939   0.17233   0.39053   0.00000  Uiso   1.00
C280   C     0.34859   0.18508   0.45184   0.00000  Uiso   1.00
C281   C     0.36336   0.19198   0.56046   0.00000  Uiso   1.00
C282   C     0.39751   0.16873   0.23685   0.00000  Uiso   1.00
C283   C     0.40333   0.11938   0.20164   0.00000  Uiso   1.00
C284   C     0.45635   0.10793   0.17657   0.00000  Uiso   1.00
C285   C     0.53347   0.07020   0.12586   0.00000  Uiso   1.00
C286   C     0.33271   0.24829   0.24168   0.00000  Uiso   1.00
C287   C     0.28406   0.26584   0.21052   0.00000  Uiso   1.00
C288   C     0.28252   0.32137   0.18950   0.00000  Uiso   1.00
C289   C     0.25904   0.40718   0.14629   0.00000  Uiso   1.00
C290   C     0.42716   0.25683   0.28660   0.00000  Uiso   1.00
C291   C     0.40285   0.23409   0.34926   0.00000  Uiso   1.00
C292   C     0.42209   0.24689   0.41051   0.00000  Uiso   1.00
C293   C     0.39418   0.22175   0.46167   0.00000  Uiso   1.00
C294   C     0.44302   0.20533   0.24666   0.00000  Uiso   1.00
C295   C     0.49603   0.19394   0.22163   0.00000  Uiso   1.00
C296   C     0.50194   0.14460   0.18640   0.00000  Uiso   1.00
C297   C     0.37822   0.28489   0.25149   0.00000  Uiso   1.00
C298   C     0.37676   0.34040   0.23051   0.00000  Uiso   1.00
C299   C     0.32812   0.35804   0.19933   0.00000  Uiso   1.00
H300   H     0.30795   0.16094   0.26089   0.00000  Uiso   1.00
H301   H     0.29417   0.14400   0.38291   0.00000  Uiso   1.00
H302   H     0.36810   0.09107   0.19405   0.00000  Uiso   1.00
H303   H     0.24885   0.23751   0.20294   0.00000  Uiso   1.00
H304   H     0.29899   0.14134   0.52252   0.00000  Uiso   1.00
H305   H     0.45487   0.02974   0.12428   0.00000  Uiso   1.00
H306   H     0.20339   0.33853   0.14301   0.00000  Uiso   1.00
H307   H     0.46260   0.28533   0.29424   0.00000  Uiso   1.00
H308   H     0.45731   0.27521   0.41809   0.00000  Uiso   1.00
H309   H     0.53124   0.22228   0.22923   0.00000  Uiso   1.00
H310   H     0.41199   0.36872   0.23811   0.00000  Uiso   1.00
H311   H     0.43140   0.24783   0.55107   0.00000  Uiso   1.00
H312   H     0.58728   0.13624   0.15283   0.00000  Uiso   1.00
H313   H     0.33580   0.44503   0.17156   0.00000  Uiso   1.00
O314   O     0.35894   0.18567   0.61767   0.00000  Uiso   1.00
O315   O     0.56344   0.03927   0.09518   0.00000  Uiso   1.00
O316   O     0.23351   0.44439   0.11976   0.00000  Uiso   1.00
N317   N     0.33087   0.16780   0.51224   0.00000  Uiso   1.00
N318   N     0.47661   0.06346   0.13992   0.00000  Uiso   1.00
N319   N     0.24151   0.35215   0.15741   0.00000  Uiso   1.00
N320   N     0.40212   0.22510   0.52761   0.00000  Uiso   1.00
N321   N     0.54786   0.12077   0.15528   0.00000  Uiso   1.00
N322   N     0.31276   0.40946   0.17278   0.00000  Uiso   1.00
C323   C     0.84338   0.68944   0.76853   0.00000  Uiso   1.00
C324   C     0.85734   0.69749   0.83945   0.00000  Uiso   1.00
C325   C     0.82939   0.67233   0.89053   0.00000  Uiso   1.00
C326   C     0.84859   0.68508   0.95184   0.00000  Uiso   1.00
C327   C     0.86336   0.69198   0.06046   0.00000  Uiso   1.00
C328   C     0.89751   0.66873   0.73685   0.00000  Uiso   1.00
C329   C     0.90333   0.61938   0.70164   0.00000  Uiso   1.00
C330   C     0.95635   0.60793   0.67657   0.00000  Uiso   1.00
C331   C     0.03347   0.57020   0.62586   0.00000  Uiso   1.00
C332   C     0.83271   0.74829   0.74168   0.00000  Uiso   1.00
C333   C     0.78406   0.76584   0.71052   0.00000  Uiso   1.00
C334   C     0.78252   0.82137   0.68950   0.00000  Uiso   1.00
C335   C     0.75904   0.90718   0.64629   0.00000  Uiso   1.00
C336   C     0.92716   0.75683   0.78660   0.00000  Uiso   1.00
C337   C     0.90285   0.73409   0.84926   0.00000  Uiso   1.00
C338   C     0.92209   0.74689   0.91051   0.00000  Uiso   1.00
C339   C     0.89418   0.72175   0.96167   0.00000  Uiso   1.00
C340   C     0.94302   0.70533   0.74666   0.00000  Uiso   1.00
C341   C     0.99603   0.69394   0.72163   0.00000  Uiso   1.00
C342   C     0.00194   0.64460   0.68640   0.00000  Uiso   1.00
C343   C     0.87822   0.78489   0.75149   0.00000  Uiso   1.00
C344   C     0.87676   0.84040   0.73051   0.00000  Uiso   1.00
C345   C     0.82812   0.85804   0.69933   0.00000  Uiso   1.00
H346   H     0.80795   0.66094   0.76089   0.00000  Uiso   1.00
H347   H     0.79417   0.64400   0.88291   0.00000  Uiso   1.00
H348   H     0.86810   0.59107   0.69405   0.00000  Uiso   1.00
H349   H     0.74885   0.73751   0.70294   0.00000  Uiso   1.00
H350   H     0.79899   0.64134   0.02252   0.00000  Uiso   1.00
H351   H     0.95487   0.52974   0.62428   0.00000  Uiso   1.00
H352   H     0.70339   0.83853   0.64301   0.00000  Uiso   1.00
H353   H     0.96260   0.78533   0.79424   0.00000  Uiso   1.00
H354   H     0.95731   0.77521   0.91809   0.00000  Uiso   1.00
H355   H     0.03124   0.72228   0.72923   0.00000  Uiso   1.00
H356   H     0.91199   0.86872   0.73811   0.00000  Uiso   1.00
H357   H     0.93140   0.74783   0.05107   0.00000  Uiso   1.00
H358   H     0.08728   0.63624   0.65283   0.00000  Uiso   1.00
H359   H     0.83580   0.94503   0.67156   0.00000  Uiso   1.00
O360   O     0.85894   0.68567   0.11767   0.00000  Uiso   1.00
O361   O     0.06344   0.53927   0.59518   0.00000  Uiso   1.00
O362   O     0.73351   0.94439   0.61976   0.00000  Uiso   1.00
N363   N     0.83087   0.66780   0.01224   0.00000  Uiso   1.00
N364   N     0.97661   0.56346   0.63992   0.00000  Uiso   1.00
N365   N     0.74151   0.85215   0.65741   0.00000  Uiso   1.00
N366   N     0.90212   0.72510   0.02761   0.00000  Uiso   1.00
N367   N     0.04786   0.62077   0.65528   0.00000  Uiso   1.00
N368   N     0.81276   0.90946   0.67278   0.00000  Uiso   1.00
C369   C     0.31056   0.65662   0.01853   0.00000  Uiso   1.00
C370   C     0.30251   0.64266   0.08945   0.00000  Uiso   1.00
C371   C     0.32767   0.67061   0.14053   0.00000  Uiso   1.00
C372   C     0.31492   0.65141   0.20184   0.00000  Uiso   1.00
C373   C     0.30802   0.63664   0.31046   0.00000  Uiso   1.00
C374   C     0.33127   0.60249   0.98685   0.00000  Uiso   1.00
C375   C     0.38062   0.59667   0.95164   0.00000  Uiso   1.00
C376   C     0.39207   0.54365   0.92657   0.00000  Uiso   1.00
C377   C     0.42980   0.46653   0.87586   0.00000  Uiso   1.00
C378   C     0.25171   0.66729   0.99168   0.00000  Uiso   1.00
C379   C     0.23416   0.71594   0.96052   0.00000  Uiso   1.00
C380   C     0.17863   0.71748   0.93950   0.00000  Uiso   1.00
C381   C     0.09282   0.74096   0.89629   0.00000  Uiso   1.00
C382   C     0.24317   0.57284   0.03660   0.00000  Uiso   1.00
C383   C     0.26591   0.59715   0.09926   0.00000  Uiso   1.00
C384   C     0.25311   0.57791   0.16051   0.00000  Uiso   1.00
C385   C     0.27825   0.60582   0.21167   0.00000  Uiso   1.00
C386   C     0.29467   0.55698   0.99666   0.00000  Uiso   1.00
C387   C     0.30606   0.50397   0.97163   0.00000  Uiso   1.00
C388   C     0.35540   0.49806   0.93640   0.00000  Uiso   1.00
C389   C     0.21511   0.62178   0.00149   0.00000  Uiso   1.00
C390   C     0.15960   0.62324   0.98051   0.00000  Uiso   1.00
C391   C     0.14196   0.67188   0.94933   0.00000  Uiso   1.00
H392   H     0.33906   0.69205   0.01089   0.00000  Uiso   1.00
H393   H     0.35600   0.70583   0.13291   0.00000  Uiso   1.00
H394   H     0.40893   0.63190   0.94405   0.00000  Uiso   1.00
H395   H     0.26249   0.75115   0.95294   0.00000  Uiso   1.00
H396   H     0.35866   0.70101   0.27252   0.00000  Uiso   1.00
H397   H     0.47026   0.54513   0.87428   0.00000  Uiso   1.00
H398   H     0.16147   0.79661   0.89301   0.00000  Uiso   1.00
H399   H     0.21467   0.53740   0.04424   0.00000  Uiso   1.00
H400   H     0.22479   0.54269   0.16809   0.00000  Uiso   1.00
H401   H     0.27772   0.46876   0.97923   0.00000  Uiso   1.00
H402   H     0.13128   0.58801   0.98811   0.00000  Uiso   1.00
H403   H     0.25217   0.56860   0.30107   0.00000  Uiso   1.00
H404   H     0.36376   0.41272   0.90283   0.00000  Uiso   1.00
H405   H     0.05497   0.66420   0.92156   0.00000  Uiso   1.00
O406   O     0.31433   0.64106   0.36767   0.00000  Uiso   1.00
O407   O     0.46073   0.43656   0.84518   0.00000  Uiso   1.00
O408   O     0.05561   0.76649   0.86976   0.00000  Uiso   1.00
N409   N     0.33220   0.66913   0.26224   0.00000  Uiso   1.00
N410   N     0.43654   0.52339   0.88992   0.00000  Uiso   1.00
N411   N     0.14785   0.75849   0.90741   0.00000  Uiso   1.00
N412   N     0.27490   0.59788   0.27761   0.00000  Uiso   1.00
N413   N     0.37923   0.45214   0.90528   0.00000  Uiso   1.00
N414   N     0.09054   0.68724   0.92278   0.00000  Uiso   1.00
C415   C     0.81056   0.15662   0.51853   0.00000  Uiso   1.00
C416   C     0.80251   0.14266   0.58945   0.00000  Uiso   1.00
C417   C     0.82767   0.17061   0.64053   0.00000  Uiso   1.00
C418   C     0.81492   0.15141   0.70184   0.00000  Uiso   1.00
C419   C     0.80802   0.13664   0.81046   0.00000  Uiso   1.00
C420   C     0.83127   0.10249   0.48685   0.00000  Uiso   1.00
C421   C     0.88062   0.09667   0.45164   0.00000  Uiso   1.00
C422   C     0.89207   0.04365   0.42657   0.00000  Uiso   1.00
C423   C     0.92980   0.96653   0.37586   0.00000  Uiso   1.00
C424   C     0.75171   0.16729   0.49168   0.00000  Uiso   1.00
C425   C     0.73416   0.21594   0.46052   0.00000  Uiso   1.00
C426   C     0.67863   0.21748   0.43950   0.00000  Uiso   1.00
C427   C     0.59282   0.24096   0.39629   0.00000  Uiso   1.00
C428   C     0.74317   0.07284   0.53660   0.00000  Uiso   1.00
C429   C     0.76591   0.09715   0.59926   0.00000  Uiso   1.00
C430   C     0.75311   0.07791   0.66051   0.00000  Uiso   1.00
C431   C     0.77825   0.10582   0.71167   0.00000  Uiso   1.00
C432   C     0.79467   0.05698   0.49666   0.00000  Uiso   1.00
C433   C     0.80606   0.00397   0.47163   0.00000  Uiso   1.00
C434   C     0.85540   0.99806   0.43640   0.00000  Uiso   1.00
C435   C     0.71511   0.12178   0.50149   0.00000  Uiso   1.00
C436   C     0.65960   0.12324   0.48051   0.00000  Uiso   1.00
C437   C     0.64196   0.17188   0.44933   0.00000  Uiso   1.00
H438   H     0.83906   0.19205   0.51089   0.00000  Uiso   1.00
H439   H     0.85600   0.20583   0.63291   0.00000  Uiso   1.00
H440   H     0.90893   0.13190   0.44405   0.00000  Uiso   1.00
H441   H     0.76249   0.25115   0.45294   0.00000  Uiso   1.00
H442   H     0.85866   0.20101   0.77252   0.00000  Uiso   1.00
H443   H     0.97026   0.04513   0.37428   0.00000  Uiso   1.00
H444   H     0.66147   0.29661   0.39301   0.00000  Uiso   1.00
H445   H     0.71467   0.03740   0.54424   0.00000  Uiso   1.00
H446   H     0.72479   0.04269   0.66809   0.00000  Uiso   1.00
H447   H     0.77772   0.96876   0.47923   0.00000  Uiso   1.00
H448   H     0.63128   0.08801   0.48811   0.00000  Uiso   1.00
H449   H     0.75217   0.06860   0.80107   0.00000  Uiso   1.00
H450   H     0.86376   0.91272   0.40283   0.00000  Uiso   1.00
H451   H     0.55497   0.16420   0.42156   0.00000  Uiso   1.00
O452   O     0.81433   0.14106   0.86767   0.00000  Uiso   1.00
O453   O     0.96073   0.93656   0.34518   0.00000  Uiso   1.00
O454   O     0.55561   0.26649   0.36976   0.00000  Uiso   1.00
N455   N     0.83220   0.16913   0.76224   0.00000  Uiso   1.00
N456   N     0.93654   0.02339   0.38992   0.00000  Uiso   1.00
N457   N     0.64785   0.25849   0.40741   0.00000  Uiso   1.00
N458   N     0.77490   0.09788   0.77761   0.00000  Uiso   1.00
N459   N     0.87923   0.95214   0.40528   0.00000  Uiso   1.00
N460   N     0.59054   0.18724   0.42278   0.00000  Uiso   1.00
C461   C     0.68944   0.34338   0.01853   0.00000  Uiso   1.00
C462   C     0.69749   0.35734   0.08945   0.00000  Uiso   1.00
C463   C     0.67233   0.32939   0.14053   0.00000  Uiso   1.00
C464   C     0.68508   0.34859   0.20184   0.00000  Uiso   1.00
C465   C     0.69198   0.36336   0.31046   0.00000  Uiso   1.00
C466   C     0.66873   0.39751   0.98685   0.00000  Uiso   1.00
C467   C     0.61938   0.40333   0.95164   0.00000  Uiso   1.00
C468   C     0.60793   0.45635   0.92657   0.00000  Uiso   1.00
C469   C     0.57020   0.53347   0.87586   0.00000  Uiso   1.00
C470   C     0.74829   0.33271   0.99168   0.00000  Uiso   1.00
C471   C     0.76584   0.28406   0.96052   0.00000  Uiso   1.00
C472   C     0.82137   0.28252   0.93950   0.00000  Uiso   1.00
C473   C     0.90718   0.25904   0.89629   0.00000  Uiso   1.00
C474   C     0.75683   0.42716   0.03660   0.00000  Uiso   1.00
C475   C     0.73409   0.40285   0.09926   0.00000  Uiso   1.00
C476   C     0.74689   0.42209   0.16051   0.00000  Uiso   1.00
C477   C     0.72175   0.39418   0.21167   0.00000  Uiso   1.00
C478   C     0.70533   0.44302   0.99666   0.00000  Uiso   1.00
C479   C     0.69394   0.49603   0.97163   0.00000  Uiso   1.00
C480   C     0.64460   0.50194   0.93640   0.00000  Uiso   1.00
C481   C     0.78489   0.37822   0.00149   0.00000  Uiso   1.00
C482   C     0.84040   0.37676   0.98051   0.00000  Uiso   1.00
C483   C     0.85804   0.32812   0.94933   0.00000  Uiso   1.00
H484   H     0.66094   0.30795   0.01089   0.00000  Uiso   1.00
H485   H     0.64400   0.29417   0.13291   0.00000  Uiso   1.00
H486   H     0.59107   0.36810   0.94405   0.00000  Uiso   1.00
H487   H     0.73751   0.24885   0.95294   0.00000  Uiso   1.00
H488   H     0.64134   0.29899   0.27252   0.00000  Uiso   1.00
H489   H     0.52974   0.45487   0.87428   0.00000  Uiso   1.00
H490   H     0.83853   0.20339   0.89301   0.00000  Uiso   1.00
H491   H     0.78533   0.46260   0.04424   0.00000  Uiso   1.00
H492   H     0.77521   0.45731   0.16809   0.00000  Uiso   1.00
H493   H     0.72228   0.53124   0.97923   0.00000  Uiso   1.00
H494   H     0.86872   0.41199   0.98811   0.00000  Uiso   1.00
H495   H     0.74783   0.43140   0.30107   0.00000  Uiso   1.00
H496   H     0.63624   0.58728   0.90283   0.00000  Uiso   1.00
H497   H     0.94503   0.33580   0.92156   0.00000  Uiso   1.00
O498   O     0.68567   0.35894   0.36767   0.00000  Uiso   1.00
O499   O     0.53927   0.56344   0.84518   0.00000  Uiso   1.00
O500   O     0.94439   0.23351   0.86976   0.00000  Uiso   1.00
N501   N     0.66780   0.33087   0.26224   0.00000  Uiso   1.00
N502   N     0.56346   0.47661   0.88992   0.00000  Uiso   1.00
N503   N     0.85215   0.24151   0.90741   0.00000  Uiso   1.00
N504   N     0.72510   0.40212   0.27761   0.00000  Uiso   1.00
N505   N     0.62077   0.54786   0.90528   0.00000  Uiso   1.00
N506   N     0.90946   0.31276   0.92278   0.00000  Uiso   1.00
C507   C     0.18944   0.84338   0.51853   0.00000  Uiso   1.00
C508   C     0.19749   0.85734   0.58945   0.00000  Uiso   1.00
C509   C     0.17233   0.82939   0.64053   0.00000  Uiso   1.00
C510   C     0.18508   0.84859   0.70184   0.00000  Uiso   1.00
C511   C     0.19198   0.86336   0.81046   0.00000  Uiso   1.00
C512   C     0.16873   0.89751   0.48685   0.00000  Uiso   1.00
C513   C     0.11938   0.90333   0.45164   0.00000  Uiso   1.00
C514   C     0.10793   0.95635   0.42657   0.00000  Uiso   1.00
C515   C     0.07020   0.03347   0.37586   0.00000  Uiso   1.00
C516   C     0.24829   0.83271   0.49168   0.00000  Uiso   1.00
C517   C     0.26584   0.78406   0.46052   0.00000  Uiso   1.00
C518   C     0.32137   0.78252   0.43950   0.00000  Uiso   1.00
C519   C     0.40718   0.75904   0.39629   0.00000  Uiso   1.00
C520   C     0.25683   0.92716   0.53660   0.00000  Uiso   1.00
C521   C     0.23409   0.90285   0.59926   0.00000  Uiso   1.00
C522   C     0.24689   0.92209   0.66051   0.00000  Uiso   1.00
C523   C     0.22175   0.89418   0.71167   0.00000  Uiso   1.00
C524   C     0.20533   0.94302   0.49666   0.00000  Uiso   1.00
C525   C     0.19394   0.99603   0.47163   0.00000  Uiso   1.00
C526   C     0.14460   0.00194   0.43640   0.00000  Uiso   1.00
C527   C     0.28489   0.87822   0.50149   0.00000  Uiso   1.00
C528   C     0.34040   0.87676   0.48051   0.00000  Uiso   1.00
C529   C     0.35804   0.82812   0.44933   0.00000  Uiso   1.00
H530   H     0.16094   0.80795   0.51089   0.00000  Uiso   1.00
H531   H     0.14400   0.79417   0.63291   0.00000  Uiso   1.00
H532   H     0.09107   0.86810   0.44405   0.00000  Uiso   1.00
H533   H     0.23751   0.74885   0.45294   0.00000  Uiso   1.00
H534   H     0.14134   0.79899   0.77252   0.00000  Uiso   1.00
H535   H     0.02974   0.95487   0.37428   0.00000  Uiso   1.00
H536   H     0.33853   0.70339   0.39301   0.00000  Uiso   1.00
H537   H     0.28533   0.96260   0.54424   0.00000  Uiso   1.00
H538   H     0.27521   0.95731   0.66809   0.00000  Uiso   1.00
H539   H     0.22228   0.03124   0.47923   0.00000  Uiso   1.00
H540   H     0.36872   0.91199   0.48811   0.00000  Uiso   1.00
H541   H     0.24783   0.93140   0.80107   0.00000  Uiso   1.00
H542   H     0.13624   0.08728   0.40283   0.00000  Uiso   1.00
H543   H     0.44503   0.83580   0.42156   0.00000  Uiso   1.00
O544   O     0.18567   0.85894   0.86767   0.00000  Uiso   1.00
O545   O     0.03927   0.06344   0.34518   0.00000  Uiso   1.00
O546   O     0.44439   0.73351   0.36976   0.00000  Uiso   1.00
N547   N     0.16780   0.83087   0.76224   0.00000  Uiso   1.00
N548   N     0.06346   0.97661   0.38992   0.00000  Uiso   1.00
N549   N     0.35215   0.74151   0.40741   0.00000  Uiso   1.00
N550   N     0.22510   0.90212   0.77761   0.00000  Uiso   1.00
N551   N     0.12077   0.04786   0.40528   0.00000  Uiso   1.00
N552   N     0.40946   0.81276   0.42278   0.00000  Uiso   1.00
C553   C     0.84338   0.81056   0.48147   0.00000  Uiso   1.00
C554   C     0.85734   0.80251   0.41055   0.00000  Uiso   1.00
C555   C     0.82939   0.82767   0.35947   0.00000  Uiso   1.00
C556   C     0.84859   0.81492   0.29816   0.00000  Uiso   1.00
C557   C     0.86336   0.80802   0.18954   0.00000  Uiso   1.00
C558   C     0.89751   0.83127   0.51315   0.00000  Uiso   1.00
C559   C     0.90333   0.88062   0.54836   0.00000  Uiso   1.00
C560   C     0.95635   0.89207   0.57343   0.00000  Uiso   1.00
C561   C     0.03347   0.92980   0.62414   0.00000  Uiso   1.00
C562   C     0.83271   0.75171   0.50832   0.00000  Uiso   1.00
C563   C     0.78406   0.73416   0.53948   0.00000  Uiso   1.00
C564   C     0.78252   0.67863   0.56050   0.00000  Uiso   1.00
C565   C     0.75904   0.59282   0.60371   0.00000  Uiso   1.00
C566   C     0.92716   0.74317   0.46340   0.00000  Uiso   1.00
C567   C     0.90285   0.76591   0.40074   0.00000  Uiso   1.00
C568   C     0.92209   0.75311   0.33949   0.00000  Uiso   1.00
C569   C     0.89418   0.77825   0.28833   0.00000  Uiso   1.00
C570   C     0.94302   0.79467   0.50334   0.00000  Uiso   1.00
C571   C     0.99603   0.80606   0.52837   0.00000  Uiso   1.00
C572   C     0.00194   0.85540   0.56360   0.00000  Uiso   1.00
C573   C     0.87822   0.71511   0.49851   0.00000  Uiso   1.00
C574   C     0.87676   0.65960   0.51949   0.00000  Uiso   1.00
C575   C     0.82812   0.64196   0.55067   0.00000  Uiso   1.00
H576   H     0.80795   0.83906   0.48911   0.00000  Uiso   1.00
H577   H     0.79417   0.85600   0.36709   0.00000  Uiso   1.00
H578   H     0.86810   0.90893   0.55595   0.00000  Uiso   1.00
H579   H     0.74885   0.76249   0.54706   0.00000  Uiso   1.00
H580   H     0.79899   0.85866   0.22748   0.00000  Uiso   1.00
H581   H     0.95487   0.97026   0.62572   0.00000  Uiso   1.00
H582   H     0.70339   0.66147   0.60699   0.00000  Uiso   1.00
H583   H     0.96260   0.71467   0.45576   0.00000  Uiso   1.00
H584   H     0.95731   0.72479   0.33191   0.00000  Uiso   1.00
H585   H     0.03124   0.77772   0.52077   0.00000  Uiso   1.00
H586   H     0.91199   0.63128   0.51189   0.00000  Uiso   1.00
H587   H     0.93140   0.75217   0.19893   0.00000  Uiso   1.00
H588   H     0.08728   0.86376   0.59717   0.00000  Uiso   1.00
H589   H     0.83580   0.55497   0.57844   0.00000  Uiso   1.00
O590   O     0.85894   0.81433   0.13233   0.00000  Uiso   1.00
O591   O     0.06344   0.96073   0.65482   0.00000  Uiso   1.00
O592   O     0.73351   0.55561   0.63024   0.00000  Uiso   1.00
N593   N     0.83087   0.83220   0.23776   0.00000  Uiso   1.00
N594   N     0.97661   0.93654   0.61008   0.00000  Uiso   1.00
N595   N     0.74151   0.64785   0.59259   0.00000  Uiso   1.00
N596   N     0.90212   0.77490   0.22239   0.00000  Uiso   1.00
N597   N     0.04786   0.87923   0.59472   0.00000  Uiso   1.00
N598   N     0.81276   0.59054   0.57722   0.00000  Uiso   1.00
C599   C     0.34338   0.31056   0.98147   0.00000  Uiso   1.00
C600   C     0.35734   0.30251   0.91055   0.00000  Uiso   1.00
C601   C     0.32939   0.32767   0.85947   0.00000  Uiso   1.00
C602   C     0.34859   0.31492   0.79816   0.00000  Uiso   1.00
C603   C     0.36336   0.30802   0.68954   0.00000  Uiso   1.00
C604   C     0.39751   0.33127   0.01315   0.00000  Uiso   1.00
C605   C     0.40333   0.38062   0.04836   0.00000  Uiso   1.00
C606   C     0.45635   0.39207   0.07343   0.00000  Uiso   1.00
C607   C     0.53347   0.42980   0.12414   0.00000  Uiso   1.00
C608   C     0.33271   0.25171   0.00832   0.00000  Uiso   1.00
C609   C     0.28406   0.23416   0.03948   0.00000  Uiso   1.00
C610   C     0.28252   0.17863   0.06050   0.00000  Uiso   1.00
C611   C     0.25904   0.09282   0.10371   0.00000  Uiso   1.00
C612   C     0.42716   0.24317   0.96340   0.00000  Uiso   1.00
C613   C     0.40285   0.26591   0.90074   0.00000  Uiso   1.00
C614   C     0.42209   0.25311   0.83949   0.00000  Uiso   1.00
C615   C     0.39418   0.27825   0.78833   0.00000  Uiso   1.00
C616   C     0.44302   0.29467   0.00334   0.00000  Uiso   1.00
C617   C     0.49603   0.30606   0.02837   0.00000  Uiso   1.00
C618   C     0.50194   0.35540   0.06360   0.00000  Uiso   1.00
C619   C     0.37822   0.21511   0.99851   0.00000  Uiso   1.00
C620   C     0.37676   0.15960   0.01949   0.00000  Uiso   1.00
C621   C     0.32812   0.14196   0.05067   0.00000  Uiso   1.00
H622   H     0.30795   0.33906   0.98911   0.00000  Uiso   1.00
H623   H     0.29417   0.35600   0.86709   0.00000  Uiso   1.00
H624   H     0.36810   0.40893   0.05595   0.00000  Uiso   1.00
H625   H     0.24885   0.26249   0.04706   0.00000  Uiso   1.00
H626   H     0.29899   0.35866   0.72748   0.00000  Uiso   1.00
H627   H     0.45487   0.47026   0.12572   0.00000  Uiso   1.00
H628   H     0.20339   0.16147   0.10699   0.00000  Uiso   1.00
H629   H     0.46260   0.21467   0.95576   0.00000  Uiso   1.00
H630   H     0.45731   0.22479   0.83191   0.00000  Uiso   1.00
H631   H     0.53124   0.27772   0.02077   0.00000  Uiso   1.00
H632   H     0.41199   0.13128   0.01189   0.00000  Uiso   1.00
H633   H     0.43140   0.25217   0.69893   0.00000  Uiso   1.00
H634   H     0.58728   0.36376   0.09717   0.00000  Uiso   1.00
H635   H     0.33580   0.05497   0.07844   0.00000  Uiso   1.00
O636   O     0.35894   0.31433   0.63233   0.00000  Uiso   1.00
O637   O     0.56344   0.46073   0.15482   0.00000  Uiso   1.00
O638   O     0.23351   0.05561   0.13024   0.00000  Uiso   1.00
N639   N     0.33087   0.33220   0.73776   0.00000  Uiso   1.00
N640   N     0.47661   0.43654   0.11008   0.00000  Uiso   1.00
N641   N     0.24151   0.14785   0.09259   0.00000  Uiso   1.00
N642   N     0.40212   0.27490   0.72239   0.00000  Uiso   1.00
N643   N     0.54786   0.37923   0.09472   0.00000  Uiso   1.00
N644   N     0.31276   0.09054   0.07722   0.00000  Uiso   1.00
C645   C     0.15662   0.18944   0.48147   0.00000  Uiso   1.00
C646   C     0.14266   0.19749   0.41055   0.00000  Uiso   1.00
C647   C     0.17061   0.17233   0.35947   0.00000  Uiso   1.00
C648   C     0.15141   0.18508   0.29816   0.00000  Uiso   1.00
C649   C     0.13664   0.19198   0.18954   0.00000  Uiso   1.00
C650   C     0.10249   0.16873   0.51315   0.00000  Uiso   1.00
C651   C     0.09667   0.11938   0.54836   0.00000  Uiso   1.00
C652   C     0.04365   0.10793   0.57343   0.00000  Uiso   1.00
C653   C     0.96653   0.07020   0.62414   0.00000  Uiso   1.00
C654   C     0.16729   0.24829   0.50832   0.00000  Uiso   1.00
C655   C     0.21594   0.26584   0.53948   0.00000  Uiso   1.00
C656   C     0.21748   0.32137   0.56050   0.00000  Uiso   1.00
C657   C     0.24096   0.40718   0.60371   0.00000  Uiso   1.00
C658   C     0.07284   0.25683   0.46340   0.00000  Uiso   1.00
C659   C     0.09715   0.23409   0.40074   0.00000  Uiso   1.00
C660   C     0.07791   0.24689   0.33949   0.00000  Uiso   1.00
C661   C     0.10582   0.22175   0.28833   0.00000  Uiso   1.00
C662   C     0.05698   0.20533   0.50334   0.00000  Uiso   1.00
C663   C     0.00397   0.19394   0.52837   0.00000  Uiso   1.00
C664   C     0.99806   0.14460   0.56360   0.00000  Uiso   1.00
C665   C     0.12178   0.28489   0.49851   0.00000  Uiso   1.00
C666   C     0.12324   0.34040   0.51949   0.00000  Uiso   1.00
C667   C     0.17188   0.35804   0.55067   0.00000  Uiso   1.00
H668   H     0.19205   0.16094   0.48911   0.00000  Uiso   1.00
H669   H     0.20583   0.14400   0.36709   0.00000  Uiso   1.00
H670   H     0.13190   0.09107   0.55595   0.00000  Uiso   1.00
H671   H     0.25115   0.23751   0.54706   0.00000  Uiso   1.00
H672   H     0.20101   0.14134   0.22748   0.00000  Uiso   1.00
H673   H     0.04513   0.02974   0.62572   0.00000  Uiso   1.00
H674   H     0.29661   0.33853   0.60699   0.00000  Uiso   1.00
H675   H     0.03740   0.28533   0.45576   0.00000  Uiso   1.00
H676   H     0.04269   0.27521   0.33191   0.00000  Uiso   1.00
H677   H     0.96876   0.22228   0.52077   0.00000  Uiso   1.00
H678   H     0.08801   0.36872   0.51189   0.00000  Uiso   1.00
H679   H     0.06860   0.24783   0.19893   0.00000  Uiso   1.00
H680   H     0.91272   0.13624   0.59717   0.00000  Uiso   1.00
H681   H     0.16420   0.44503   0.57844   0.00000  Uiso   1.00
O682   O     0.14106   0.18567   0.13233   0.00000  Uiso   1.00
O683   O     0.93656   0.03927   0.65482   0.00000  Uiso   1.00
O684   O     0.26649   0.44439   0.63024   0.00000  Uiso   1.00
N685   N     0.16913   0.16780   0.23776   0.00000  Uiso   1.00
N686   N     0.02339   0.06346   0.61008   0.00000  Uiso   1.00
N687   N     0.25849   0.35215   0.59259   0.00000  Uiso   1.00
N688   N     0.09788   0.22510   0.22239   0.00000  Uiso   1.00
N689   N     0.95214   0.12077   0.59472   0.00000  Uiso   1.00
N690   N     0.18724   0.40946   0.57722   0.00000  Uiso   1.00
C691   C     0.65662   0.68944   0.98147   0.00000  Uiso   1.00
C692   C     0.64266   0.69749   0.91055   0.00000  Uiso   1.00
C693   C     0.67061   0.67233   0.85947   0.00000  Uiso   1.00
C694   C     0.65141   0.68508   0.79816   0.00000  Uiso   1.00
C695   C     0.63664   0.69198   0.68954   0.00000  Uiso   1.00
C696   C     0.60249   0.66873   0.01315   0.00000  Uiso   1.00
C697   C     0.59667   0.61938   0.04836   0.00000  Uiso   1.00
C698   C     0.54365   0.60793   0.07343   0.00000  Uiso   1.00
C699   C     0.46653   0.57020   0.12414   0.00000  Uiso   1.00
C700   C     0.66729   0.74829   0.00832   0.00000  Uiso   1.00
C701   C     0.71594   0.76584   0.03948   0.00000  Uiso   1.00
C702   C     0.71748   0.82137   0.06050   0.00000  Uiso   1.00
C703   C     0.74096   0.90718   0.10371   0.00000  Uiso   1.00
C704   C     0.57284   0.75683   0.96340   0.00000  Uiso   1.00
C705   C     0.59715   0.73409   0.90074   0.00000  Uiso   1.00
C706   C     0.57791   0.74689   0.83949   0.00000  Uiso   1.00
C707   C     0.60582   0.72175   0.78833   0.00000  Uiso   1.00
C708   C     0.55698   0.70533   0.00334   0.00000  Uiso   1.00
C709   C     0.50397   0.69394   0.02837   0.00000  Uiso   1.00
C710   C     0.49806   0.64460   0.06360   0.00000  Uiso   1.00
C711   C     0.62178   0.78489   0.99851   0.00000  Uiso   1.00
C712   C     0.62324   0.84040   0.01949   0.00000  Uiso   1.00
C713   C     0.67188   0.85804   0.05067   0.00000  Uiso   1.00
H714   H     0.69205   0.66094   0.98911   0.00000  Uiso   1.00
H715   H     0.70583   0.64400   0.86709   0.00000  Uiso   1.00
H716   H     0.63190   0.59107   0.05595   0.00000  Uiso   1.00
H717   H     0.75115   0.73751   0.04706   0.00000  Uiso   1.00
H718   H     0.70101   0.64134   0.72748   0.00000  Uiso   1.00
H719   H     0.54513   0.52974   0.12572   0.00000  Uiso   1.00
H720   H     0.79661   0.83853   0.10699   0.00000  Uiso   1.00
H721   H     0.53740   0.78533   0.95576   0.00000  Uiso   1.00
H722   H     0.54269   0.77521   0.83191   0.00000  Uiso   1.00
H723   H     0.46876   0.72228   0.02077   0.00000  Uiso   1.00
H724   H     0.58801   0.86872   0.01189   0.00000  Uiso   1.00
H725   H     0.56860   0.74783   0.69893   0.00000  Uiso   1.00
H726   H     0.41272   0.63624   0.09717   0.00000  Uiso   1.00
H727   H     0.66420   0.94503   0.07844   0.00000  Uiso   1.00
O728   O     0.64106   0.68567   0.63233   0.00000  Uiso   1.00
O729   O     0.43656   0.53927   0.15482   0.00000  Uiso   1.00
O730   O     0.76649   0.94439   0.13024   0.00000  Uiso   1.00
N731   N     0.66913   0.66780   0.73776   0.00000  Uiso   1.00
N732   N     0.52339   0.56346   0.11008   0.00000  Uiso   1.00
N733   N     0.75849   0.85215   0.09259   0.00000  Uiso   1.00
N734   N     0.59788   0.72510   0.72239   0.00000  Uiso   1.00
N735   N     0.45214   0.62077   0.09472   0.00000  Uiso   1.00
N736   N     0.68724   0.90946   0.07722   0.00000  Uiso   1.00
