data_job_07084
_audit_creation_date              2018-12-19
_audit_creation_method            'Materials Studio'
_symmetry_space_group_name_H-M    'P1'
_symmetry_Int_Tables_number       1
_symmetry_cell_setting            triclinic
loop_
_symmetry_equiv_pos_as_xyz
  x,y,z
_cell_length_a                    24.4747
_cell_length_b                    42.3531
_cell_length_c                    23.1110
_cell_angle_alpha                 90.0000
_cell_angle_beta                  138.1160
_cell_angle_gamma                 90.0000
loop_
_atom_site_label
_atom_site_type_symbol
_atom_site_fract_x
_atom_site_fract_y
_atom_site_fract_z
_atom_site_U_iso_or_equiv
_atom_site_adp_type
_atom_site_occupancy
C1     C     0.80034   0.43405   0.82411   0.00000  Uiso   1.00
C2     C     0.77606   0.39947   0.79857   0.00000  Uiso   1.00
C3     C     0.70041   0.38846   0.72054   0.00000  Uiso   1.00
C4     C     0.69031   0.35595   0.70965   0.00000  Uiso   1.00
C5     C     0.14295   0.80540   0.66015   0.00000  Uiso   1.00
C6     C     0.82838   0.43804   0.90873   0.00000  Uiso   1.00
C7     C     0.79673   0.45947   0.92330   0.00000  Uiso   1.00
C8     C     0.83070   0.45944   0.00515   0.00000  Uiso   1.00
C9     C     0.86462   0.46878   0.12668   0.00000  Uiso   1.00
C10    C     0.87648   0.43850   0.84688   0.00000  Uiso   1.00
C11    C     0.88529   0.46033   0.80947   0.00000  Uiso   1.00
C12    C     0.45976   0.96069   0.83926   0.00000  Uiso   1.00
C13    C     0.56837   0.97076   0.86477   0.00000  Uiso   1.00
C14    C     0.41694   0.89588   0.94355   0.00000  Uiso   1.00
C15    C     0.83939   0.37873   0.86345   0.00000  Uiso   1.00
C16    C     0.82941   0.34623   0.85268   0.00000  Uiso   1.00
C17    C     0.75376   0.33518   0.77464   0.00000  Uiso   1.00
C18    C     0.89171   0.41731   0.97360   0.00000  Uiso   1.00
C19    C     0.42574   0.91724   0.05545   0.00000  Uiso   1.00
C20    C     0.89414   0.43867   0.07014   0.00000  Uiso   1.00
C21    C     0.43982   0.91777   0.91175   0.00000  Uiso   1.00
C22    C     0.51429   0.91810   0.94161   0.00000  Uiso   1.00
C23    C     0.52321   0.93992   0.90425   0.00000  Uiso   1.00
H24    H     0.75103   0.45020   0.77361   0.00000  Uiso   1.00
H25    H     0.65141   0.40451   0.67035   0.00000  Uiso   1.00
H26    H     0.74773   0.47551   0.87309   0.00000  Uiso   1.00
H27    H     0.83627   0.47637   0.75927   0.00000  Uiso   1.00
H28    H     0.06887   0.84472   0.58449   0.00000  Uiso   1.00
H29    H     0.77199   0.49444   0.01199   0.00000  Uiso   1.00
H30    H     0.95869   0.49625   0.77198   0.00000  Uiso   1.00
H31    H     0.46625   0.87974   0.99406   0.00000  Uiso   1.00
H32    H     0.37843   0.83019   0.90289   0.00000  Uiso   1.00
H33    H     0.47475   0.90119   0.10563   0.00000  Uiso   1.00
H34    H     0.56329   0.90205   0.99182   0.00000  Uiso   1.00
H35    H     0.75313   0.28440   0.77324   0.00000  Uiso   1.00
H36    H     0.45625   0.93412   0.20074   0.00000  Uiso   1.00
H37    H     0.64295   0.93593   0.96073   0.00000  Uiso   1.00
O38    O     0.09934   0.78324   0.61493   0.00000  Uiso   1.00
O39    O     0.86583   0.47966   0.17579   0.00000  Uiso   1.00
O40    O     0.61078   0.98204   0.86091   0.00000  Uiso   1.00
N41    N     0.12429   0.83733   0.64142   0.00000  Uiso   1.00
N42    N     0.81418   0.47730   0.04110   0.00000  Uiso   1.00
N43    N     0.48875   0.97900   0.81673   0.00000  Uiso   1.00
N44    N     0.72344   0.30487   0.74298   0.00000  Uiso   1.00
N45    N     0.91333   0.44484   0.14266   0.00000  Uiso   1.00
N46    N     0.58790   0.94654   0.91829   0.00000  Uiso   1.00
C47    C     0.16118   0.74273   0.11752   0.00000  Uiso   1.00
C48    C     0.19238   0.75270   0.08268   0.00000  Uiso   1.00
C49    C     0.14548   0.76597   0.00194   0.00000  Uiso   1.00
C50    C     0.18546   0.77344   0.98224   0.00000  Uiso   1.00
C51    C     0.72115   0.28975   0.91916   0.00000  Uiso   1.00
C52    C     0.18352   0.70796   0.14164   0.00000  Uiso   1.00
C53    C     0.12916   0.68360   0.11047   0.00000  Uiso   1.00
C54    C     0.66169   0.15340   0.14042   0.00000  Uiso   1.00
C55    C     0.68362   0.10025   0.16891   0.00000  Uiso   1.00
C56    C     0.21344   0.76047   0.20267   0.00000  Uiso   1.00
C57    C     0.18424   0.78027   0.22283   0.00000  Uiso   1.00
C58    C     0.74195   0.29428   0.30417   0.00000  Uiso   1.00
C59    C     0.81034   0.32267   0.42743   0.00000  Uiso   1.00
C60    C     0.31558   0.73242   0.22614   0.00000  Uiso   1.00
C61    C     0.27625   0.74710   0.14168   0.00000  Uiso   1.00
C62    C     0.31631   0.75456   0.12211   0.00000  Uiso   1.00
C63    C     0.26948   0.76783   0.04135   0.00000  Uiso   1.00
C64    C     0.76738   0.20236   0.20063   0.00000  Uiso   1.00
C65    C     0.79999   0.17219   0.23064   0.00000  Uiso   1.00
C66    C     0.74570   0.14779   0.19952   0.00000  Uiso   1.00
C67    C     0.29730   0.75487   0.26166   0.00000  Uiso   1.00
C68    C     0.35507   0.76886   0.34300   0.00000  Uiso   1.00
C69    C     0.32597   0.78867   0.36328   0.00000  Uiso   1.00
H70    H     0.09589   0.74709   0.07159   0.00000  Uiso   1.00
H71    H     0.08058   0.77029   0.95629   0.00000  Uiso   1.00
H72    H     0.06427   0.68794   0.06482   0.00000  Uiso   1.00
H73    H     0.11934   0.78459   0.17716   0.00000  Uiso   1.00
H74    H     0.10059   0.79353   0.85447   0.00000  Uiso   1.00
H75    H     0.06620   0.61989   0.08333   0.00000  Uiso   1.00
H76    H     0.68233   0.32370   0.32022   0.00000  Uiso   1.00
H77    H     0.38087   0.72806   0.27207   0.00000  Uiso   1.00
H78    H     0.38121   0.75022   0.16778   0.00000  Uiso   1.00
H79    H     0.36489   0.66787   0.27630   0.00000  Uiso   1.00
H80    H     0.41996   0.76452   0.38864   0.00000  Uiso   1.00
H81    H     0.34459   0.77724   0.02612   0.00000  Uiso   1.00
H82    H     0.81020   0.10359   0.25498   0.00000  Uiso   1.00
H83    H     0.42632   0.80741   0.49186   0.00000  Uiso   1.00
O84    O     0.71767   0.30030   0.86806   0.00000  Uiso   1.00
O85    O     0.67254   0.07248   0.16832   0.00000  Uiso   1.00
O86    O     0.82490   0.33988   0.47911   0.00000  Uiso   1.00
N87    N     0.15798   0.78666   0.90919   0.00000  Uiso   1.00
N88    N     0.62582   0.12431   0.12315   0.00000  Uiso   1.00
N89    N     0.73438   0.31486   0.34462   0.00000  Uiso   1.00
N90    N     0.28927   0.77790   0.00155   0.00000  Uiso   1.00
N91    N     0.75711   0.11555   0.21551   0.00000  Uiso   1.00
N92    N     0.36568   0.80609   0.43699   0.00000  Uiso   1.00
C93    C     0.79431   0.08910   0.70907   0.00000  Uiso   1.00
C94    C     0.77460   0.10736   0.74867   0.00000  Uiso   1.00
C95    C     0.69930   0.12047   0.70324   0.00000  Uiso   1.00
C96    C     0.69372   0.13626   0.75134   0.00000  Uiso   1.00
C97    C     0.15289   0.66423   0.79909   0.00000  Uiso   1.00
C98    C     0.86654   0.10611   0.73820   0.00000  Uiso   1.00
C99    C     0.86854   0.11817   0.68396   0.00000  Uiso   1.00
C100   C     0.44036   0.63291   0.72324   0.00000  Uiso   1.00
C101   C     0.54228   0.65893   0.75473   0.00000  Uiso   1.00
C102   C     0.82676   0.05708   0.75425   0.00000  Uiso   1.00
C103   C     0.79534   0.02791   0.71350   0.00000  Uiso   1.00
C104   C     0.83369   0.00137   0.76629   0.00000  Uiso   1.00
C105   C     0.87385   0.95126   0.82270   0.00000  Uiso   1.00
C106   C     0.41830   0.59383   0.87528   0.00000  Uiso   1.00
C107   C     0.84195   0.10993   0.83895   0.00000  Uiso   1.00
C108   C     0.83649   0.12570   0.88713   0.00000  Uiso   1.00
C109   C     0.76119   0.13884   0.84178   0.00000  Uiso   1.00
C110   C     0.43388   0.60868   0.82847   0.00000  Uiso   1.00
C111   C     0.50572   0.62341   0.86785   0.00000  Uiso   1.00
C112   C     0.50783   0.63549   0.81368   0.00000  Uiso   1.00
C113   C     0.89411   0.05965   0.84452   0.00000  Uiso   1.00
C114   C     0.93252   0.03315   0.89739   0.00000  Uiso   1.00
C115   C     0.90116   0.00395   0.85673   0.00000  Uiso   1.00
H116   H     0.74188   0.08710   0.63879   0.00000  Uiso   1.00
H117   H     0.64720   0.11847   0.63337   0.00000  Uiso   1.00
H118   H     0.81641   0.11617   0.61410   0.00000  Uiso   1.00
H119   H     0.74322   0.02593   0.64363   0.00000  Uiso   1.00
H120   H     0.07194   0.65440   0.66718   0.00000  Uiso   1.00
H121   H     0.42874   0.64955   0.62654   0.00000  Uiso   1.00
H122   H     0.77440   0.95925   0.68882   0.00000  Uiso   1.00
H123   H     0.47074   0.59584   0.94557   0.00000  Uiso   1.00
H124   H     0.38861   0.62769   0.95699   0.00000  Uiso   1.00
H125   H     0.55783   0.62539   0.93771   0.00000  Uiso   1.00
H126   H     0.48464   0.53515   0.96725   0.00000  Uiso   1.00
H127   H     0.76788   0.16189   0.92984   0.00000  Uiso   1.00
H128   H     0.62469   0.65703   0.88919   0.00000  Uiso   1.00
H129   H     0.97035   0.96673   0.95148   0.00000  Uiso   1.00
O130   O     0.11176   0.67895   0.80049   0.00000  Uiso   1.00
O131   O     0.57988   0.67257   0.74716   0.00000  Uiso   1.00
O132   O     0.87739   0.92291   0.82887   0.00000  Uiso   1.00
N133   N     0.12932   0.65179   0.72743   0.00000  Uiso   1.00
N134   N     0.46290   0.64725   0.68943   0.00000  Uiso   1.00
N135   N     0.81863   0.96934   0.74766   0.00000  Uiso   1.00
N136   N     0.73475   0.15581   0.86877   0.00000  Uiso   1.00
N137   N     0.56834   0.65128   0.83077   0.00000  Uiso   1.00
N138   N     0.92406   0.97336   0.88899   0.00000  Uiso   1.00
C139   C     0.72516   0.05655   0.00594   0.00000  Uiso   1.00
C140   C     0.76514   0.08881   0.04510   0.00000  Uiso   1.00
C141   C     0.84513   0.09417   0.12579   0.00000  Uiso   1.00
C142   C     0.87010   0.12542   0.14979   0.00000  Uiso   1.00
C143   C     0.44028   0.67172   0.21891   0.00000  Uiso   1.00
C144   C     0.69405   0.05557   0.91923   0.00000  Uiso   1.00
C145   C     0.71426   0.03298   0.89409   0.00000  Uiso   1.00
C146   C     0.67937   0.03623   0.81213   0.00000  Uiso   1.00
C147   C     0.63914   0.03091   0.68581   0.00000  Uiso   1.00
C148   C     0.64920   0.05675   0.98437   0.00000  Uiso   1.00
C149   C     0.63169   0.03515   0.01399   0.00000  Uiso   1.00
C150   C     0.55903   0.03940   0.98686   0.00000  Uiso   1.00
C151   C     0.94915   0.53592   0.96169   0.00000  Uiso   1.00
C152   C     0.62725   0.10251   0.90508   0.00000  Uiso   1.00
C153   C     0.71195   0.11378   0.99031   0.00000  Uiso   1.00
C154   C     0.73681   0.14502   0.01420   0.00000  Uiso   1.00
C155   C     0.81682   0.15043   0.09491   0.00000  Uiso   1.00
C156   C     0.64087   0.08053   0.86445   0.00000  Uiso   1.00
C157   C     0.60594   0.08382   0.78250   0.00000  Uiso   1.00
C158   C     0.62610   0.06124   0.75725   0.00000  Uiso   1.00
C159   C     0.59601   0.08172   0.92959   0.00000  Uiso   1.00
C160   C     0.02336   0.58600   0.90241   0.00000  Uiso   1.00
C161   C     0.00575   0.56441   0.93198   0.00000  Uiso   1.00
H162   H     0.76656   0.03711   0.04858   0.00000  Uiso   1.00
H163   H     0.88627   0.07485   0.16816   0.00000  Uiso   1.00
H164   H     0.75541   0.01366   0.93649   0.00000  Uiso   1.00
H165   H     0.67285   0.01584   0.05638   0.00000  Uiso   1.00
H166   H     0.49555   0.62769   0.27656   0.00000  Uiso   1.00
H167   H     0.71961   0.99867   0.78806   0.00000  Uiso   1.00
H168   H     0.54551   0.00326   0.04087   0.00000  Uiso   1.00
H169   H     0.08584   0.62194   0.86243   0.00000  Uiso   1.00
H170   H     0.69564   0.16434   0.97179   0.00000  Uiso   1.00
H171   H     0.06478   0.60314   0.74012   0.00000  Uiso   1.00
H172   H     0.98222   0.60532   0.86001   0.00000  Uiso   1.00
H173   H     0.34083   0.70033   0.11718   0.00000  Uiso   1.00
H174   H     0.06488   0.57130   0.62868   0.00000  Uiso   1.00
H175   H     0.89079   0.57589   0.88149   0.00000  Uiso   1.00
O176   O     0.49368   0.69037   0.27216   0.00000  Uiso   1.00
O177   O     0.63164   0.02108   0.63127   0.00000  Uiso   1.00
O178   O     0.90324   0.52711   0.96295   0.00000  Uiso   1.00
N179   N     0.44406   0.63897   0.22405   0.00000  Uiso   1.00
N180   N     0.68608   0.01834   0.76734   0.00000  Uiso   1.00
N181   N     0.52331   0.02262   0.00367   0.00000  Uiso   1.00
N182   N     0.36081   0.67805   0.13829   0.00000  Uiso   1.00
N183   N     0.60283   0.05742   0.68158   0.00000  Uiso   1.00
N184   N     0.94005   0.56171   0.91791   0.00000  Uiso   1.00
C185   C     0.34744   0.76371   0.61162   0.00000  Uiso   1.00
C186   C     0.35583   0.74559   0.67493   0.00000  Uiso   1.00
C187   C     0.42466   0.72910   0.74722   0.00000  Uiso   1.00
C188   C     0.42014   0.71408   0.79696   0.00000  Uiso   1.00
C189   C     0.44395   0.68573   0.89862   0.00000  Uiso   1.00
C190   C     0.32441   0.79740   0.61012   0.00000  Uiso   1.00
C191   C     0.36682   0.82448   0.62791   0.00000  Uiso   1.00
C192   C     0.83585   0.35307   0.62308   0.00000  Uiso   1.00
C193   C     0.81086   0.40516   0.62405   0.00000  Uiso   1.00
C194   C     0.27271   0.74997   0.52225   0.00000  Uiso   1.00
C195   C     0.27165   0.73717   0.46613   0.00000  Uiso   1.00
C196   C     0.19715   0.72583   0.38731   0.00000  Uiso   1.00
C197   C     0.09188   0.70427   0.25186   0.00000  Uiso   1.00
C198   C     0.21703   0.76636   0.57141   0.00000  Uiso   1.00
C199   C     0.28499   0.74702   0.65309   0.00000  Uiso   1.00
C200   C     0.28037   0.73202   0.70274   0.00000  Uiso   1.00
C201   C     0.34918   0.71551   0.77508   0.00000  Uiso   1.00
C202   C     0.75358   0.29884   0.58829   0.00000  Uiso   1.00
C203   C     0.72254   0.32740   0.58342   0.00000  Uiso   1.00
C204   C     0.76489   0.35451   0.60120   0.00000  Uiso   1.00
C205   C     0.20188   0.75140   0.50041   0.00000  Uiso   1.00
C206   C     0.12736   0.74009   0.42166   0.00000  Uiso   1.00
C207   C     0.12618   0.72727   0.36543   0.00000  Uiso   1.00
H208   H     0.40259   0.76260   0.62862   0.00000  Uiso   1.00
H209   H     0.47947   0.72800   0.76410   0.00000  Uiso   1.00
H210   H     0.42163   0.82336   0.64480   0.00000  Uiso   1.00
H211   H     0.32647   0.73606   0.48306   0.00000  Uiso   1.00
H212   H     0.53347   0.69028   0.90470   0.00000  Uiso   1.00
H213   H     0.41151   0.89135   0.65311   0.00000  Uiso   1.00
H214   H     0.71085   0.20727   0.31204   0.00000  Uiso   1.00
H215   H     0.16188   0.76747   0.55441   0.00000  Uiso   1.00
H216   H     0.22554   0.73314   0.68582   0.00000  Uiso   1.00
H217   H     0.16772   0.82850   0.56652   0.00000  Uiso   1.00
H218   H     0.07256   0.74120   0.40478   0.00000  Uiso   1.00
H219   H     0.32738   0.69445   0.84116   0.00000  Uiso   1.00
H220   H     0.70542   0.39553   0.58957   0.00000  Uiso   1.00
H221   H     0.00476   0.71144   0.24851   0.00000  Uiso   1.00
O222   O     0.47666   0.66970   0.96073   0.00000  Uiso   1.00
O223   O     0.81665   0.43350   0.63064   0.00000  Uiso   1.00
O224   O     0.05339   0.69198   0.18318   0.00000  Uiso   1.00
N225   N     0.47622   0.69597   0.87170   0.00000  Uiso   1.00
N226   N     0.86221   0.38396   0.63649   0.00000  Uiso   1.00
N227   N     0.17460   0.71186   0.31762   0.00000  Uiso   1.00
N228   N     0.36533   0.69821   0.83751   0.00000  Uiso   1.00
N229   N     0.75131   0.38620   0.60230   0.00000  Uiso   1.00
N230   N     0.06371   0.71411   0.28343   0.00000  Uiso   1.00
C231   C     0.71856   0.40528   0.12360   0.00000  Uiso   1.00
C232   C     0.75163   0.39039   0.09434   0.00000  Uiso   1.00
C233   C     0.83042   0.37894   0.14851   0.00000  Uiso   1.00
C234   C     0.84870   0.36620   0.10911   0.00000  Uiso   1.00
C235   C     0.40893   0.84325   0.07741   0.00000  Uiso   1.00
C236   C     0.64328   0.38603   0.08087   0.00000  Uiso   1.00
C237   C     0.63096   0.37093   0.12374   0.00000  Uiso   1.00
C238   C     0.05802   0.85452   0.07299   0.00000  Uiso   1.00
C239   C     0.95000   0.82483   0.02039   0.00000  Uiso   1.00
C240   C     0.68701   0.43785   0.08161   0.00000  Uiso   1.00
C241   C     0.71144   0.46631   0.12508   0.00000  Uiso   1.00
C242   C     0.67531   0.49353   0.07495   0.00000  Uiso   1.00
C243   C     0.63519   0.54430   0.02349   0.00000  Uiso   1.00
C244   C     0.61093   0.40300   0.95727   0.00000  Uiso   1.00
C245   C     0.69317   0.38915   0.00399   0.00000  Uiso   1.00
C246   C     0.71133   0.37642   0.96449   0.00000  Uiso   1.00
C247   C     0.79013   0.36496   0.01860   0.00000  Uiso   1.00
C248   C     0.08482   0.88479   0.99053   0.00000  Uiso   1.00
C249   C     0.01187   0.86841   0.93971   0.00000  Uiso   1.00
C250   C     0.99945   0.85328   0.98249   0.00000  Uiso   1.00
C251   C     0.62855   0.43661   0.99126   0.00000  Uiso   1.00
C252   C     0.59236   0.46379   0.94105   0.00000  Uiso   1.00
C253   C     0.61674   0.49229   0.98444   0.00000  Uiso   1.00
H254   H     0.76407   0.40624   0.19394   0.00000  Uiso   1.00
H255   H     0.87564   0.37990   0.21843   0.00000  Uiso   1.00
H256   H     0.67621   0.37189   0.19365   0.00000  Uiso   1.00
H257   H     0.75669   0.46726   0.19500   0.00000  Uiso   1.00
H258   H     0.47355   0.85015   0.20574   0.00000  Uiso   1.00
H259   H     0.05302   0.83327   0.15350   0.00000  Uiso   1.00
H260   H     0.72272   0.53437   0.15633   0.00000  Uiso   1.00
H261   H     0.06541   0.90203   0.88693   0.00000  Uiso   1.00
H262   H     0.66608   0.37547   0.89457   0.00000  Uiso   1.00
H263   H     0.96664   0.86746   0.86980   0.00000  Uiso   1.00
H264   H     0.54712   0.46282   0.87114   0.00000  Uiso   1.00
H265   H     0.80346   0.34655   0.94289   0.00000  Uiso   1.00
H266   H     0.88292   0.82967   0.89064   0.00000  Uiso   1.00
H267   H     0.55262   0.53077   0.89348   0.00000  Uiso   1.00
O268   O     0.45830   0.83094   0.08488   0.00000  Uiso   1.00
O269   O     0.90658   0.80880   0.01634   0.00000  Uiso   1.00
O270   O     0.62922   0.57264   0.02006   0.00000  Uiso   1.00
N271   N     0.41971   0.85295   0.14283   0.00000  Uiso   1.00
N272   N     0.02654   0.83716   0.09399   0.00000  Uiso   1.00
N273   N     0.68518   0.52518   0.09663   0.00000  Uiso   1.00
N274   N     0.82818   0.35101   0.00139   0.00000  Uiso   1.00
N275   N     0.93501   0.83523   0.95255   0.00000  Uiso   1.00
N276   N     0.59365   0.52324   0.95519   0.00000  Uiso   1.00
C277   C     0.30034   0.93405   0.82411   0.00000  Uiso   1.00
C278   C     0.27606   0.89947   0.79857   0.00000  Uiso   1.00
C279   C     0.20041   0.88846   0.72054   0.00000  Uiso   1.00
C280   C     0.19031   0.85595   0.70965   0.00000  Uiso   1.00
C281   C     0.64295   0.30540   0.66015   0.00000  Uiso   1.00
C282   C     0.32838   0.93804   0.90873   0.00000  Uiso   1.00
C283   C     0.29673   0.95947   0.92330   0.00000  Uiso   1.00
C284   C     0.33070   0.95944   0.00515   0.00000  Uiso   1.00
C285   C     0.36462   0.96878   0.12668   0.00000  Uiso   1.00
C286   C     0.37648   0.93850   0.84688   0.00000  Uiso   1.00
C287   C     0.38529   0.96033   0.80947   0.00000  Uiso   1.00
C288   C     0.95976   0.46069   0.83926   0.00000  Uiso   1.00
C289   C     0.06837   0.47076   0.86477   0.00000  Uiso   1.00
C290   C     0.91694   0.39588   0.94355   0.00000  Uiso   1.00
C291   C     0.33939   0.87873   0.86345   0.00000  Uiso   1.00
C292   C     0.32941   0.84623   0.85268   0.00000  Uiso   1.00
C293   C     0.25376   0.83518   0.77464   0.00000  Uiso   1.00
C294   C     0.39171   0.91731   0.97360   0.00000  Uiso   1.00
C295   C     0.92574   0.41724   0.05545   0.00000  Uiso   1.00
C296   C     0.39414   0.93867   0.07014   0.00000  Uiso   1.00
C297   C     0.93982   0.41777   0.91175   0.00000  Uiso   1.00
C298   C     0.01429   0.41810   0.94161   0.00000  Uiso   1.00
C299   C     0.02321   0.43992   0.90425   0.00000  Uiso   1.00
H300   H     0.25103   0.95020   0.77361   0.00000  Uiso   1.00
H301   H     0.15141   0.90451   0.67035   0.00000  Uiso   1.00
H302   H     0.24773   0.97551   0.87309   0.00000  Uiso   1.00
H303   H     0.33627   0.97637   0.75927   0.00000  Uiso   1.00
H304   H     0.56887   0.34472   0.58449   0.00000  Uiso   1.00
H305   H     0.27199   0.99444   0.01199   0.00000  Uiso   1.00
H306   H     0.45869   0.99625   0.77198   0.00000  Uiso   1.00
H307   H     0.96625   0.37974   0.99406   0.00000  Uiso   1.00
H308   H     0.87843   0.33019   0.90289   0.00000  Uiso   1.00
H309   H     0.97475   0.40119   0.10563   0.00000  Uiso   1.00
H310   H     0.06329   0.40205   0.99182   0.00000  Uiso   1.00
H311   H     0.25313   0.78440   0.77324   0.00000  Uiso   1.00
H312   H     0.95625   0.43412   0.20074   0.00000  Uiso   1.00
H313   H     0.14295   0.43593   0.96073   0.00000  Uiso   1.00
O314   O     0.59934   0.28324   0.61493   0.00000  Uiso   1.00
O315   O     0.36583   0.97966   0.17579   0.00000  Uiso   1.00
O316   O     0.11078   0.48204   0.86091   0.00000  Uiso   1.00
N317   N     0.62429   0.33733   0.64142   0.00000  Uiso   1.00
N318   N     0.31418   0.97730   0.04110   0.00000  Uiso   1.00
N319   N     0.98875   0.47900   0.81673   0.00000  Uiso   1.00
N320   N     0.22344   0.80487   0.74298   0.00000  Uiso   1.00
N321   N     0.41333   0.94484   0.14266   0.00000  Uiso   1.00
N322   N     0.08790   0.44654   0.91829   0.00000  Uiso   1.00
C323   C     0.66118   0.24273   0.11752   0.00000  Uiso   1.00
C324   C     0.69238   0.25270   0.08268   0.00000  Uiso   1.00
C325   C     0.64548   0.26597   0.00194   0.00000  Uiso   1.00
C326   C     0.68546   0.27344   0.98224   0.00000  Uiso   1.00
C327   C     0.22115   0.78975   0.91916   0.00000  Uiso   1.00
C328   C     0.68352   0.20796   0.14164   0.00000  Uiso   1.00
C329   C     0.62916   0.18360   0.11047   0.00000  Uiso   1.00
C330   C     0.16169   0.65340   0.14042   0.00000  Uiso   1.00
C331   C     0.18362   0.60025   0.16891   0.00000  Uiso   1.00
C332   C     0.71344   0.26047   0.20267   0.00000  Uiso   1.00
C333   C     0.68424   0.28027   0.22283   0.00000  Uiso   1.00
C334   C     0.24195   0.79428   0.30417   0.00000  Uiso   1.00
C335   C     0.31034   0.82267   0.42743   0.00000  Uiso   1.00
C336   C     0.81558   0.23242   0.22614   0.00000  Uiso   1.00
C337   C     0.77625   0.24710   0.14168   0.00000  Uiso   1.00
C338   C     0.81631   0.25456   0.12211   0.00000  Uiso   1.00
C339   C     0.76948   0.26783   0.04135   0.00000  Uiso   1.00
C340   C     0.26738   0.70236   0.20063   0.00000  Uiso   1.00
C341   C     0.29999   0.67219   0.23064   0.00000  Uiso   1.00
C342   C     0.24570   0.64779   0.19952   0.00000  Uiso   1.00
C343   C     0.79730   0.25487   0.26166   0.00000  Uiso   1.00
C344   C     0.85507   0.26886   0.34300   0.00000  Uiso   1.00
C345   C     0.82597   0.28867   0.36328   0.00000  Uiso   1.00
H346   H     0.59589   0.24709   0.07159   0.00000  Uiso   1.00
H347   H     0.58058   0.27029   0.95629   0.00000  Uiso   1.00
H348   H     0.56427   0.18794   0.06482   0.00000  Uiso   1.00
H349   H     0.61934   0.28459   0.17716   0.00000  Uiso   1.00
H350   H     0.60059   0.29353   0.85447   0.00000  Uiso   1.00
H351   H     0.56620   0.11989   0.08333   0.00000  Uiso   1.00
H352   H     0.18233   0.82370   0.32022   0.00000  Uiso   1.00
H353   H     0.88087   0.22806   0.27207   0.00000  Uiso   1.00
H354   H     0.88121   0.25022   0.16778   0.00000  Uiso   1.00
H355   H     0.86489   0.16787   0.27630   0.00000  Uiso   1.00
H356   H     0.91996   0.26452   0.38864   0.00000  Uiso   1.00
H357   H     0.84459   0.27724   0.02612   0.00000  Uiso   1.00
H358   H     0.31020   0.60359   0.25498   0.00000  Uiso   1.00
H359   H     0.92632   0.30741   0.49186   0.00000  Uiso   1.00
O360   O     0.21767   0.80030   0.86806   0.00000  Uiso   1.00
O361   O     0.17254   0.57248   0.16832   0.00000  Uiso   1.00
O362   O     0.32490   0.83988   0.47911   0.00000  Uiso   1.00
N363   N     0.65798   0.28666   0.90919   0.00000  Uiso   1.00
N364   N     0.12582   0.62431   0.12315   0.00000  Uiso   1.00
N365   N     0.23438   0.81486   0.34462   0.00000  Uiso   1.00
N366   N     0.78927   0.27790   0.00155   0.00000  Uiso   1.00
N367   N     0.25711   0.61555   0.21551   0.00000  Uiso   1.00
N368   N     0.86568   0.30609   0.43699   0.00000  Uiso   1.00
C369   C     0.29431   0.58910   0.70907   0.00000  Uiso   1.00
C370   C     0.27460   0.60736   0.74867   0.00000  Uiso   1.00
C371   C     0.19930   0.62047   0.70324   0.00000  Uiso   1.00
C372   C     0.19372   0.63626   0.75134   0.00000  Uiso   1.00
C373   C     0.65289   0.16423   0.79909   0.00000  Uiso   1.00
C374   C     0.36654   0.60611   0.73820   0.00000  Uiso   1.00
C375   C     0.36854   0.61817   0.68396   0.00000  Uiso   1.00
C376   C     0.94036   0.13291   0.72324   0.00000  Uiso   1.00
C377   C     0.04228   0.15893   0.75473   0.00000  Uiso   1.00
C378   C     0.32676   0.55708   0.75425   0.00000  Uiso   1.00
C379   C     0.29534   0.52791   0.71350   0.00000  Uiso   1.00
C380   C     0.33369   0.50137   0.76629   0.00000  Uiso   1.00
C381   C     0.37385   0.45126   0.82270   0.00000  Uiso   1.00
C382   C     0.91830   0.09383   0.87528   0.00000  Uiso   1.00
C383   C     0.34195   0.60993   0.83895   0.00000  Uiso   1.00
C384   C     0.33649   0.62570   0.88713   0.00000  Uiso   1.00
C385   C     0.26119   0.63884   0.84178   0.00000  Uiso   1.00
C386   C     0.93388   0.10868   0.82847   0.00000  Uiso   1.00
C387   C     0.00572   0.12341   0.86785   0.00000  Uiso   1.00
C388   C     0.00783   0.13549   0.81368   0.00000  Uiso   1.00
C389   C     0.39411   0.55965   0.84452   0.00000  Uiso   1.00
C390   C     0.43252   0.53315   0.89739   0.00000  Uiso   1.00
C391   C     0.40116   0.50395   0.85673   0.00000  Uiso   1.00
H392   H     0.24188   0.58710   0.63879   0.00000  Uiso   1.00
H393   H     0.14720   0.61847   0.63337   0.00000  Uiso   1.00
H394   H     0.31641   0.61617   0.61410   0.00000  Uiso   1.00
H395   H     0.24322   0.52593   0.64363   0.00000  Uiso   1.00
H396   H     0.57194   0.15440   0.66718   0.00000  Uiso   1.00
H397   H     0.92874   0.14955   0.62654   0.00000  Uiso   1.00
H398   H     0.27440   0.45925   0.68882   0.00000  Uiso   1.00
H399   H     0.97074   0.09584   0.94557   0.00000  Uiso   1.00
H400   H     0.88861   0.12769   0.95699   0.00000  Uiso   1.00
H401   H     0.05783   0.12539   0.93771   0.00000  Uiso   1.00
H402   H     0.98464   0.03515   0.96725   0.00000  Uiso   1.00
H403   H     0.26788   0.66189   0.92984   0.00000  Uiso   1.00
H404   H     0.12469   0.15703   0.88919   0.00000  Uiso   1.00
H405   H     0.47035   0.46673   0.95148   0.00000  Uiso   1.00
O406   O     0.61176   0.17895   0.80049   0.00000  Uiso   1.00
O407   O     0.07988   0.17257   0.74716   0.00000  Uiso   1.00
O408   O     0.37739   0.42291   0.82887   0.00000  Uiso   1.00
N409   N     0.62932   0.15179   0.72743   0.00000  Uiso   1.00
N410   N     0.96290   0.14725   0.68943   0.00000  Uiso   1.00
N411   N     0.31863   0.46934   0.74766   0.00000  Uiso   1.00
N412   N     0.23475   0.65581   0.86877   0.00000  Uiso   1.00
N413   N     0.06834   0.15128   0.83077   0.00000  Uiso   1.00
N414   N     0.42406   0.47336   0.88899   0.00000  Uiso   1.00
C415   C     0.22516   0.55655   0.00594   0.00000  Uiso   1.00
C416   C     0.26514   0.58881   0.04510   0.00000  Uiso   1.00
C417   C     0.34513   0.59417   0.12579   0.00000  Uiso   1.00
C418   C     0.37010   0.62542   0.14979   0.00000  Uiso   1.00
C419   C     0.94028   0.17172   0.21891   0.00000  Uiso   1.00
C420   C     0.19405   0.55557   0.91923   0.00000  Uiso   1.00
C421   C     0.21426   0.53298   0.89409   0.00000  Uiso   1.00
C422   C     0.17937   0.53623   0.81213   0.00000  Uiso   1.00
C423   C     0.13914   0.53091   0.68581   0.00000  Uiso   1.00
C424   C     0.14920   0.55675   0.98437   0.00000  Uiso   1.00
C425   C     0.13169   0.53515   0.01399   0.00000  Uiso   1.00
C426   C     0.05903   0.53940   0.98686   0.00000  Uiso   1.00
C427   C     0.44915   0.03592   0.96169   0.00000  Uiso   1.00
C428   C     0.12725   0.60251   0.90508   0.00000  Uiso   1.00
C429   C     0.21195   0.61378   0.99031   0.00000  Uiso   1.00
C430   C     0.23681   0.64502   0.01420   0.00000  Uiso   1.00
C431   C     0.31682   0.65043   0.09491   0.00000  Uiso   1.00
C432   C     0.14087   0.58053   0.86445   0.00000  Uiso   1.00
C433   C     0.10594   0.58382   0.78250   0.00000  Uiso   1.00
C434   C     0.12610   0.56124   0.75725   0.00000  Uiso   1.00
C435   C     0.09601   0.58172   0.92959   0.00000  Uiso   1.00
C436   C     0.52336   0.08600   0.90241   0.00000  Uiso   1.00
C437   C     0.50575   0.06441   0.93198   0.00000  Uiso   1.00
H438   H     0.26656   0.53711   0.04858   0.00000  Uiso   1.00
H439   H     0.38627   0.57485   0.16816   0.00000  Uiso   1.00
H440   H     0.25541   0.51366   0.93649   0.00000  Uiso   1.00
H441   H     0.17285   0.51584   0.05638   0.00000  Uiso   1.00
H442   H     0.99555   0.12769   0.27656   0.00000  Uiso   1.00
H443   H     0.21961   0.49867   0.78806   0.00000  Uiso   1.00
H444   H     0.04551   0.50326   0.04087   0.00000  Uiso   1.00
H445   H     0.58584   0.12194   0.86243   0.00000  Uiso   1.00
H446   H     0.19564   0.66434   0.97179   0.00000  Uiso   1.00
H447   H     0.56478   0.10314   0.74012   0.00000  Uiso   1.00
H448   H     0.48222   0.10532   0.86001   0.00000  Uiso   1.00
H449   H     0.84083   0.20033   0.11718   0.00000  Uiso   1.00
H450   H     0.56488   0.07130   0.62868   0.00000  Uiso   1.00
H451   H     0.39079   0.07589   0.88149   0.00000  Uiso   1.00
O452   O     0.99368   0.19037   0.27216   0.00000  Uiso   1.00
O453   O     0.13164   0.52108   0.63127   0.00000  Uiso   1.00
O454   O     0.40324   0.02711   0.96295   0.00000  Uiso   1.00
N455   N     0.94406   0.13897   0.22405   0.00000  Uiso   1.00
N456   N     0.18608   0.51834   0.76734   0.00000  Uiso   1.00
N457   N     0.02331   0.52262   0.00367   0.00000  Uiso   1.00
N458   N     0.86081   0.17805   0.13829   0.00000  Uiso   1.00
N459   N     0.10283   0.55742   0.68158   0.00000  Uiso   1.00
N460   N     0.44005   0.06171   0.91791   0.00000  Uiso   1.00
C461   C     0.84744   0.26371   0.61162   0.00000  Uiso   1.00
C462   C     0.85583   0.24559   0.67493   0.00000  Uiso   1.00
C463   C     0.92466   0.22910   0.74722   0.00000  Uiso   1.00
C464   C     0.92014   0.21408   0.79696   0.00000  Uiso   1.00
C465   C     0.94395   0.18573   0.89862   0.00000  Uiso   1.00
C466   C     0.82441   0.29740   0.61012   0.00000  Uiso   1.00
C467   C     0.86682   0.32448   0.62791   0.00000  Uiso   1.00
C468   C     0.33585   0.85307   0.62308   0.00000  Uiso   1.00
C469   C     0.31086   0.90516   0.62405   0.00000  Uiso   1.00
C470   C     0.77271   0.24997   0.52225   0.00000  Uiso   1.00
C471   C     0.77165   0.23717   0.46613   0.00000  Uiso   1.00
C472   C     0.69715   0.22583   0.38731   0.00000  Uiso   1.00
C473   C     0.59188   0.20427   0.25186   0.00000  Uiso   1.00
C474   C     0.71703   0.26636   0.57141   0.00000  Uiso   1.00
C475   C     0.78499   0.24702   0.65309   0.00000  Uiso   1.00
C476   C     0.78037   0.23202   0.70274   0.00000  Uiso   1.00
C477   C     0.84918   0.21551   0.77508   0.00000  Uiso   1.00
C478   C     0.25358   0.79884   0.58829   0.00000  Uiso   1.00
C479   C     0.22254   0.82740   0.58342   0.00000  Uiso   1.00
C480   C     0.26489   0.85451   0.60120   0.00000  Uiso   1.00
C481   C     0.70188   0.25140   0.50041   0.00000  Uiso   1.00
C482   C     0.62736   0.24009   0.42166   0.00000  Uiso   1.00
C483   C     0.62618   0.22727   0.36543   0.00000  Uiso   1.00
H484   H     0.90259   0.26260   0.62862   0.00000  Uiso   1.00
H485   H     0.97947   0.22800   0.76410   0.00000  Uiso   1.00
H486   H     0.92163   0.32336   0.64480   0.00000  Uiso   1.00
H487   H     0.82647   0.23606   0.48306   0.00000  Uiso   1.00
H488   H     0.03347   0.19028   0.90470   0.00000  Uiso   1.00
H489   H     0.91151   0.39135   0.65311   0.00000  Uiso   1.00
H490   H     0.21085   0.70727   0.31204   0.00000  Uiso   1.00
H491   H     0.66188   0.26747   0.55441   0.00000  Uiso   1.00
H492   H     0.72554   0.23314   0.68582   0.00000  Uiso   1.00
H493   H     0.66772   0.32850   0.56652   0.00000  Uiso   1.00
H494   H     0.57256   0.24120   0.40478   0.00000  Uiso   1.00
H495   H     0.82738   0.19445   0.84116   0.00000  Uiso   1.00
H496   H     0.20542   0.89553   0.58957   0.00000  Uiso   1.00
H497   H     0.50476   0.21144   0.24851   0.00000  Uiso   1.00
O498   O     0.97666   0.16970   0.96073   0.00000  Uiso   1.00
O499   O     0.31665   0.93350   0.63064   0.00000  Uiso   1.00
O500   O     0.55339   0.19198   0.18318   0.00000  Uiso   1.00
N501   N     0.97622   0.19597   0.87170   0.00000  Uiso   1.00
N502   N     0.36221   0.88396   0.63649   0.00000  Uiso   1.00
N503   N     0.67460   0.21186   0.31762   0.00000  Uiso   1.00
N504   N     0.86533   0.19821   0.83751   0.00000  Uiso   1.00
N505   N     0.25131   0.88620   0.60230   0.00000  Uiso   1.00
N506   N     0.56371   0.21411   0.28343   0.00000  Uiso   1.00
C507   C     0.21856   0.90528   0.12360   0.00000  Uiso   1.00
C508   C     0.25163   0.89039   0.09434   0.00000  Uiso   1.00
C509   C     0.33042   0.87894   0.14851   0.00000  Uiso   1.00
C510   C     0.34870   0.86620   0.10911   0.00000  Uiso   1.00
C511   C     0.90893   0.34325   0.07741   0.00000  Uiso   1.00
C512   C     0.14328   0.88603   0.08087   0.00000  Uiso   1.00
C513   C     0.13096   0.87093   0.12374   0.00000  Uiso   1.00
C514   C     0.55802   0.35452   0.07299   0.00000  Uiso   1.00
C515   C     0.45000   0.32483   0.02039   0.00000  Uiso   1.00
C516   C     0.18701   0.93785   0.08161   0.00000  Uiso   1.00
C517   C     0.21144   0.96631   0.12508   0.00000  Uiso   1.00
C518   C     0.17531   0.99353   0.07495   0.00000  Uiso   1.00
C519   C     0.13519   0.04430   0.02349   0.00000  Uiso   1.00
C520   C     0.11093   0.90300   0.95727   0.00000  Uiso   1.00
C521   C     0.19317   0.88915   0.00399   0.00000  Uiso   1.00
C522   C     0.21133   0.87642   0.96449   0.00000  Uiso   1.00
C523   C     0.29013   0.86496   0.01860   0.00000  Uiso   1.00
C524   C     0.58482   0.38479   0.99053   0.00000  Uiso   1.00
C525   C     0.51187   0.36841   0.93971   0.00000  Uiso   1.00
C526   C     0.49945   0.35328   0.98249   0.00000  Uiso   1.00
C527   C     0.12855   0.93661   0.99126   0.00000  Uiso   1.00
C528   C     0.09236   0.96379   0.94105   0.00000  Uiso   1.00
C529   C     0.11674   0.99229   0.98444   0.00000  Uiso   1.00
H530   H     0.26407   0.90624   0.19394   0.00000  Uiso   1.00
H531   H     0.37564   0.87990   0.21843   0.00000  Uiso   1.00
H532   H     0.17621   0.87189   0.19365   0.00000  Uiso   1.00
H533   H     0.25669   0.96726   0.19500   0.00000  Uiso   1.00
H534   H     0.97355   0.35015   0.20574   0.00000  Uiso   1.00
H535   H     0.55302   0.33327   0.15350   0.00000  Uiso   1.00
H536   H     0.22272   0.03437   0.15633   0.00000  Uiso   1.00
H537   H     0.56541   0.40203   0.88693   0.00000  Uiso   1.00
H538   H     0.16608   0.87547   0.89457   0.00000  Uiso   1.00
H539   H     0.46664   0.36746   0.86980   0.00000  Uiso   1.00
H540   H     0.04712   0.96282   0.87114   0.00000  Uiso   1.00
H541   H     0.30346   0.84655   0.94289   0.00000  Uiso   1.00
H542   H     0.38292   0.32967   0.89064   0.00000  Uiso   1.00
H543   H     0.05262   0.03077   0.89348   0.00000  Uiso   1.00
O544   O     0.95830   0.33094   0.08488   0.00000  Uiso   1.00
O545   O     0.40658   0.30880   0.01634   0.00000  Uiso   1.00
O546   O     0.12922   0.07264   0.02006   0.00000  Uiso   1.00
N547   N     0.91971   0.35295   0.14283   0.00000  Uiso   1.00
N548   N     0.52654   0.33716   0.09399   0.00000  Uiso   1.00
N549   N     0.18518   0.02518   0.09663   0.00000  Uiso   1.00
N550   N     0.32818   0.85101   0.00139   0.00000  Uiso   1.00
N551   N     0.43501   0.33523   0.95255   0.00000  Uiso   1.00
N552   N     0.09365   0.02324   0.95519   0.00000  Uiso   1.00
C553   C     0.80034   0.56595   0.32411   0.00000  Uiso   1.00
C554   C     0.77606   0.60053   0.29857   0.00000  Uiso   1.00
C555   C     0.70041   0.61154   0.22054   0.00000  Uiso   1.00
C556   C     0.69031   0.64405   0.20965   0.00000  Uiso   1.00
C557   C     0.14295   0.19460   0.16015   0.00000  Uiso   1.00
C558   C     0.82838   0.56196   0.40873   0.00000  Uiso   1.00
C559   C     0.79673   0.54053   0.42330   0.00000  Uiso   1.00
C560   C     0.83070   0.54056   0.50515   0.00000  Uiso   1.00
C561   C     0.86462   0.53122   0.62668   0.00000  Uiso   1.00
C562   C     0.87648   0.56150   0.34688   0.00000  Uiso   1.00
C563   C     0.88529   0.53967   0.30947   0.00000  Uiso   1.00
C564   C     0.45976   0.03931   0.33926   0.00000  Uiso   1.00
C565   C     0.56837   0.02924   0.36477   0.00000  Uiso   1.00
C566   C     0.41694   0.10412   0.44355   0.00000  Uiso   1.00
C567   C     0.83939   0.62127   0.36345   0.00000  Uiso   1.00
C568   C     0.82941   0.65377   0.35268   0.00000  Uiso   1.00
C569   C     0.75376   0.66482   0.27464   0.00000  Uiso   1.00
C570   C     0.89171   0.58269   0.47360   0.00000  Uiso   1.00
C571   C     0.42574   0.08276   0.55545   0.00000  Uiso   1.00
C572   C     0.89414   0.56133   0.57014   0.00000  Uiso   1.00
C573   C     0.43982   0.08223   0.41175   0.00000  Uiso   1.00
C574   C     0.51429   0.08190   0.44161   0.00000  Uiso   1.00
C575   C     0.52321   0.06008   0.40425   0.00000  Uiso   1.00
H576   H     0.75103   0.54980   0.27361   0.00000  Uiso   1.00
H577   H     0.65141   0.59549   0.17035   0.00000  Uiso   1.00
H578   H     0.74773   0.52449   0.37309   0.00000  Uiso   1.00
H579   H     0.83627   0.52363   0.25927   0.00000  Uiso   1.00
H580   H     0.06887   0.15528   0.08449   0.00000  Uiso   1.00
H581   H     0.77199   0.50556   0.51199   0.00000  Uiso   1.00
H582   H     0.95869   0.50375   0.27198   0.00000  Uiso   1.00
H583   H     0.46625   0.12026   0.49406   0.00000  Uiso   1.00
H584   H     0.37843   0.16981   0.40289   0.00000  Uiso   1.00
H585   H     0.47475   0.09881   0.60563   0.00000  Uiso   1.00
H586   H     0.56329   0.09795   0.49182   0.00000  Uiso   1.00
H587   H     0.75313   0.71560   0.27324   0.00000  Uiso   1.00
H588   H     0.45625   0.06588   0.70074   0.00000  Uiso   1.00
H589   H     0.64295   0.06407   0.46073   0.00000  Uiso   1.00
O590   O     0.09934   0.21676   0.11493   0.00000  Uiso   1.00
O591   O     0.86583   0.52034   0.67579   0.00000  Uiso   1.00
O592   O     0.61078   0.01796   0.36091   0.00000  Uiso   1.00
N593   N     0.12429   0.16267   0.14142   0.00000  Uiso   1.00
N594   N     0.81418   0.52270   0.54110   0.00000  Uiso   1.00
N595   N     0.48875   0.02100   0.31673   0.00000  Uiso   1.00
N596   N     0.72344   0.69513   0.24298   0.00000  Uiso   1.00
N597   N     0.91333   0.55516   0.64266   0.00000  Uiso   1.00
N598   N     0.58790   0.05346   0.41829   0.00000  Uiso   1.00
C599   C     0.16118   0.25727   0.61752   0.00000  Uiso   1.00
C600   C     0.19238   0.24730   0.58268   0.00000  Uiso   1.00
C601   C     0.14548   0.23403   0.50194   0.00000  Uiso   1.00
C602   C     0.18546   0.22656   0.48224   0.00000  Uiso   1.00
C603   C     0.72115   0.71025   0.41916   0.00000  Uiso   1.00
C604   C     0.18352   0.29204   0.64164   0.00000  Uiso   1.00
C605   C     0.12916   0.31640   0.61047   0.00000  Uiso   1.00
C606   C     0.66169   0.84660   0.64042   0.00000  Uiso   1.00
C607   C     0.68362   0.89975   0.66891   0.00000  Uiso   1.00
C608   C     0.21344   0.23953   0.70267   0.00000  Uiso   1.00
C609   C     0.18424   0.21973   0.72283   0.00000  Uiso   1.00
C610   C     0.74195   0.70572   0.80417   0.00000  Uiso   1.00
C611   C     0.81034   0.67733   0.92743   0.00000  Uiso   1.00
C612   C     0.31558   0.26758   0.72614   0.00000  Uiso   1.00
C613   C     0.27625   0.25290   0.64168   0.00000  Uiso   1.00
C614   C     0.31631   0.24544   0.62211   0.00000  Uiso   1.00
C615   C     0.26948   0.23217   0.54135   0.00000  Uiso   1.00
C616   C     0.76738   0.79764   0.70063   0.00000  Uiso   1.00
C617   C     0.79999   0.82781   0.73064   0.00000  Uiso   1.00
C618   C     0.74570   0.85221   0.69952   0.00000  Uiso   1.00
C619   C     0.29730   0.24513   0.76166   0.00000  Uiso   1.00
C620   C     0.35507   0.23114   0.84300   0.00000  Uiso   1.00
C621   C     0.32597   0.21133   0.86328   0.00000  Uiso   1.00
H622   H     0.09589   0.25291   0.57159   0.00000  Uiso   1.00
H623   H     0.08058   0.22971   0.45629   0.00000  Uiso   1.00
H624   H     0.06427   0.31206   0.56482   0.00000  Uiso   1.00
H625   H     0.11934   0.21541   0.67716   0.00000  Uiso   1.00
H626   H     0.10059   0.20647   0.35447   0.00000  Uiso   1.00
H627   H     0.06620   0.38011   0.58333   0.00000  Uiso   1.00
H628   H     0.68233   0.67630   0.82022   0.00000  Uiso   1.00
H629   H     0.38087   0.27194   0.77207   0.00000  Uiso   1.00
H630   H     0.38121   0.24978   0.66778   0.00000  Uiso   1.00
H631   H     0.36489   0.33213   0.77630   0.00000  Uiso   1.00
H632   H     0.41996   0.23548   0.88864   0.00000  Uiso   1.00
H633   H     0.34459   0.22276   0.52612   0.00000  Uiso   1.00
H634   H     0.81020   0.89641   0.75498   0.00000  Uiso   1.00
H635   H     0.42632   0.19259   0.99186   0.00000  Uiso   1.00
O636   O     0.71767   0.69970   0.36806   0.00000  Uiso   1.00
O637   O     0.67254   0.92752   0.66832   0.00000  Uiso   1.00
O638   O     0.82490   0.66012   0.97911   0.00000  Uiso   1.00
N639   N     0.15798   0.21334   0.40919   0.00000  Uiso   1.00
N640   N     0.62582   0.87569   0.62315   0.00000  Uiso   1.00
N641   N     0.73438   0.68514   0.84462   0.00000  Uiso   1.00
N642   N     0.28927   0.22210   0.50155   0.00000  Uiso   1.00
N643   N     0.75711   0.88445   0.71551   0.00000  Uiso   1.00
N644   N     0.36568   0.19391   0.93699   0.00000  Uiso   1.00
C645   C     0.79431   0.91090   0.20907   0.00000  Uiso   1.00
C646   C     0.77460   0.89264   0.24867   0.00000  Uiso   1.00
C647   C     0.69930   0.87953   0.20324   0.00000  Uiso   1.00
C648   C     0.69372   0.86374   0.25134   0.00000  Uiso   1.00
C649   C     0.15289   0.33577   0.29909   0.00000  Uiso   1.00
C650   C     0.86654   0.89389   0.23820   0.00000  Uiso   1.00
C651   C     0.86854   0.88183   0.18396   0.00000  Uiso   1.00
C652   C     0.44036   0.36709   0.22324   0.00000  Uiso   1.00
C653   C     0.54228   0.34107   0.25473   0.00000  Uiso   1.00
C654   C     0.82676   0.94292   0.25425   0.00000  Uiso   1.00
C655   C     0.79534   0.97209   0.21350   0.00000  Uiso   1.00
C656   C     0.83369   0.99863   0.26629   0.00000  Uiso   1.00
C657   C     0.87385   0.04874   0.32270   0.00000  Uiso   1.00
C658   C     0.41830   0.40617   0.37528   0.00000  Uiso   1.00
C659   C     0.84195   0.89007   0.33895   0.00000  Uiso   1.00
C660   C     0.83649   0.87430   0.38713   0.00000  Uiso   1.00
C661   C     0.76119   0.86116   0.34178   0.00000  Uiso   1.00
C662   C     0.43388   0.39132   0.32847   0.00000  Uiso   1.00
C663   C     0.50572   0.37659   0.36785   0.00000  Uiso   1.00
C664   C     0.50783   0.36451   0.31368   0.00000  Uiso   1.00
C665   C     0.89411   0.94035   0.34452   0.00000  Uiso   1.00
C666   C     0.93252   0.96685   0.39739   0.00000  Uiso   1.00
C667   C     0.90116   0.99605   0.35673   0.00000  Uiso   1.00
H668   H     0.74188   0.91290   0.13879   0.00000  Uiso   1.00
H669   H     0.64720   0.88153   0.13337   0.00000  Uiso   1.00
H670   H     0.81641   0.88383   0.11410   0.00000  Uiso   1.00
H671   H     0.74322   0.97407   0.14363   0.00000  Uiso   1.00
H672   H     0.07194   0.34560   0.16718   0.00000  Uiso   1.00
H673   H     0.42874   0.35045   0.12654   0.00000  Uiso   1.00
H674   H     0.77440   0.04075   0.18882   0.00000  Uiso   1.00
H675   H     0.47074   0.40416   0.44557   0.00000  Uiso   1.00
H676   H     0.38861   0.37231   0.45699   0.00000  Uiso   1.00
H677   H     0.55783   0.37461   0.43771   0.00000  Uiso   1.00
H678   H     0.48464   0.46485   0.46725   0.00000  Uiso   1.00
H679   H     0.76788   0.83811   0.42984   0.00000  Uiso   1.00
H680   H     0.62469   0.34297   0.38919   0.00000  Uiso   1.00
H681   H     0.97035   0.03327   0.45148   0.00000  Uiso   1.00
O682   O     0.11176   0.32105   0.30049   0.00000  Uiso   1.00
O683   O     0.57988   0.32743   0.24716   0.00000  Uiso   1.00
O684   O     0.87739   0.07709   0.32887   0.00000  Uiso   1.00
N685   N     0.12932   0.34821   0.22743   0.00000  Uiso   1.00
N686   N     0.46290   0.35275   0.18943   0.00000  Uiso   1.00
N687   N     0.81863   0.03066   0.24766   0.00000  Uiso   1.00
N688   N     0.73475   0.84419   0.36877   0.00000  Uiso   1.00
N689   N     0.56834   0.34872   0.33077   0.00000  Uiso   1.00
N690   N     0.92406   0.02664   0.38899   0.00000  Uiso   1.00
C691   C     0.72516   0.94345   0.50594   0.00000  Uiso   1.00
C692   C     0.76514   0.91119   0.54510   0.00000  Uiso   1.00
C693   C     0.84513   0.90583   0.62579   0.00000  Uiso   1.00
C694   C     0.87010   0.87458   0.64979   0.00000  Uiso   1.00
C695   C     0.44028   0.32828   0.71891   0.00000  Uiso   1.00
C696   C     0.69405   0.94443   0.41923   0.00000  Uiso   1.00
C697   C     0.71426   0.96702   0.39409   0.00000  Uiso   1.00
C698   C     0.67937   0.96377   0.31213   0.00000  Uiso   1.00
C699   C     0.63914   0.96909   0.18581   0.00000  Uiso   1.00
C700   C     0.64920   0.94325   0.48437   0.00000  Uiso   1.00
C701   C     0.63169   0.96485   0.51399   0.00000  Uiso   1.00
C702   C     0.55903   0.96060   0.48686   0.00000  Uiso   1.00
C703   C     0.94915   0.46408   0.46169   0.00000  Uiso   1.00
C704   C     0.62725   0.89749   0.40508   0.00000  Uiso   1.00
C705   C     0.71195   0.88622   0.49031   0.00000  Uiso   1.00
C706   C     0.73681   0.85498   0.51420   0.00000  Uiso   1.00
C707   C     0.81682   0.84957   0.59491   0.00000  Uiso   1.00
C708   C     0.64087   0.91947   0.36445   0.00000  Uiso   1.00
C709   C     0.60594   0.91618   0.28250   0.00000  Uiso   1.00
C710   C     0.62610   0.93876   0.25725   0.00000  Uiso   1.00
C711   C     0.59601   0.91828   0.42959   0.00000  Uiso   1.00
C712   C     0.02336   0.41400   0.40241   0.00000  Uiso   1.00
C713   C     0.00575   0.43559   0.43198   0.00000  Uiso   1.00
H714   H     0.76656   0.96289   0.54858   0.00000  Uiso   1.00
H715   H     0.88627   0.92515   0.66816   0.00000  Uiso   1.00
H716   H     0.75541   0.98634   0.43649   0.00000  Uiso   1.00
H717   H     0.67285   0.98416   0.55638   0.00000  Uiso   1.00
H718   H     0.49555   0.37231   0.77656   0.00000  Uiso   1.00
H719   H     0.71961   0.00133   0.28806   0.00000  Uiso   1.00
H720   H     0.54551   0.99674   0.54087   0.00000  Uiso   1.00
H721   H     0.08584   0.37806   0.36243   0.00000  Uiso   1.00
H722   H     0.69564   0.83566   0.47179   0.00000  Uiso   1.00
H723   H     0.06478   0.39686   0.24012   0.00000  Uiso   1.00
H724   H     0.98222   0.39468   0.36001   0.00000  Uiso   1.00
H725   H     0.34083   0.29967   0.61718   0.00000  Uiso   1.00
H726   H     0.06488   0.42870   0.12868   0.00000  Uiso   1.00
H727   H     0.89079   0.42411   0.38149   0.00000  Uiso   1.00
O728   O     0.49368   0.30963   0.77216   0.00000  Uiso   1.00
O729   O     0.63164   0.97892   0.13127   0.00000  Uiso   1.00
O730   O     0.90324   0.47289   0.46295   0.00000  Uiso   1.00
N731   N     0.44406   0.36103   0.72405   0.00000  Uiso   1.00
N732   N     0.68608   0.98166   0.26734   0.00000  Uiso   1.00
N733   N     0.52331   0.97738   0.50367   0.00000  Uiso   1.00
N734   N     0.36081   0.32195   0.63829   0.00000  Uiso   1.00
N735   N     0.60283   0.94258   0.18158   0.00000  Uiso   1.00
N736   N     0.94005   0.43829   0.41791   0.00000  Uiso   1.00
C737   C     0.34744   0.23629   0.11162   0.00000  Uiso   1.00
C738   C     0.35583   0.25441   0.17493   0.00000  Uiso   1.00
C739   C     0.42466   0.27090   0.24722   0.00000  Uiso   1.00
C740   C     0.42014   0.28592   0.29696   0.00000  Uiso   1.00
C741   C     0.44395   0.31427   0.39862   0.00000  Uiso   1.00
C742   C     0.32441   0.20260   0.11012   0.00000  Uiso   1.00
C743   C     0.36682   0.17552   0.12791   0.00000  Uiso   1.00
C744   C     0.83585   0.64693   0.12308   0.00000  Uiso   1.00
C745   C     0.81086   0.59484   0.12405   0.00000  Uiso   1.00
C746   C     0.27271   0.25003   0.02225   0.00000  Uiso   1.00
C747   C     0.27165   0.26283   0.96613   0.00000  Uiso   1.00
C748   C     0.19715   0.27417   0.88731   0.00000  Uiso   1.00
C749   C     0.09188   0.29573   0.75186   0.00000  Uiso   1.00
C750   C     0.21703   0.23364   0.07141   0.00000  Uiso   1.00
C751   C     0.28499   0.25298   0.15309   0.00000  Uiso   1.00
C752   C     0.28037   0.26798   0.20274   0.00000  Uiso   1.00
C753   C     0.34918   0.28449   0.27508   0.00000  Uiso   1.00
C754   C     0.75358   0.70116   0.08829   0.00000  Uiso   1.00
C755   C     0.72254   0.67260   0.08342   0.00000  Uiso   1.00
C756   C     0.76489   0.64549   0.10120   0.00000  Uiso   1.00
C757   C     0.20188   0.24860   0.00041   0.00000  Uiso   1.00
C758   C     0.12736   0.25991   0.92166   0.00000  Uiso   1.00
C759   C     0.12618   0.27273   0.86543   0.00000  Uiso   1.00
H760   H     0.40259   0.23740   0.12862   0.00000  Uiso   1.00
H761   H     0.47947   0.27200   0.26410   0.00000  Uiso   1.00
H762   H     0.42163   0.17664   0.14480   0.00000  Uiso   1.00
H763   H     0.32647   0.26394   0.98306   0.00000  Uiso   1.00
H764   H     0.53347   0.30972   0.40470   0.00000  Uiso   1.00
H765   H     0.41151   0.10865   0.15311   0.00000  Uiso   1.00
H766   H     0.71085   0.79273   0.81204   0.00000  Uiso   1.00
H767   H     0.16188   0.23253   0.05441   0.00000  Uiso   1.00
H768   H     0.22554   0.26686   0.18582   0.00000  Uiso   1.00
H769   H     0.16772   0.17150   0.06652   0.00000  Uiso   1.00
H770   H     0.07256   0.25880   0.90478   0.00000  Uiso   1.00
H771   H     0.32738   0.30555   0.34116   0.00000  Uiso   1.00
H772   H     0.70542   0.60447   0.08957   0.00000  Uiso   1.00
H773   H     0.00476   0.28856   0.74851   0.00000  Uiso   1.00
O774   O     0.47666   0.33030   0.46073   0.00000  Uiso   1.00
O775   O     0.81665   0.56650   0.13064   0.00000  Uiso   1.00
O776   O     0.05339   0.30802   0.68318   0.00000  Uiso   1.00
N777   N     0.47622   0.30403   0.37170   0.00000  Uiso   1.00
N778   N     0.86221   0.61604   0.13649   0.00000  Uiso   1.00
N779   N     0.17460   0.28814   0.81762   0.00000  Uiso   1.00
N780   N     0.36533   0.30179   0.33751   0.00000  Uiso   1.00
N781   N     0.75131   0.61380   0.10230   0.00000  Uiso   1.00
N782   N     0.06371   0.28589   0.78343   0.00000  Uiso   1.00
C783   C     0.71856   0.59472   0.62360   0.00000  Uiso   1.00
C784   C     0.75163   0.60961   0.59434   0.00000  Uiso   1.00
C785   C     0.83042   0.62106   0.64851   0.00000  Uiso   1.00
C786   C     0.84870   0.63380   0.60911   0.00000  Uiso   1.00
C787   C     0.40893   0.15675   0.57741   0.00000  Uiso   1.00
C788   C     0.64328   0.61397   0.58087   0.00000  Uiso   1.00
C789   C     0.63096   0.62907   0.62374   0.00000  Uiso   1.00
C790   C     0.05802   0.14548   0.57299   0.00000  Uiso   1.00
C791   C     0.95000   0.17517   0.52039   0.00000  Uiso   1.00
C792   C     0.68701   0.56215   0.58161   0.00000  Uiso   1.00
C793   C     0.71144   0.53369   0.62508   0.00000  Uiso   1.00
C794   C     0.67531   0.50647   0.57495   0.00000  Uiso   1.00
C795   C     0.63519   0.45570   0.52349   0.00000  Uiso   1.00
C796   C     0.61093   0.59700   0.45727   0.00000  Uiso   1.00
C797   C     0.69317   0.61085   0.50399   0.00000  Uiso   1.00
C798   C     0.71133   0.62358   0.46449   0.00000  Uiso   1.00
C799   C     0.79013   0.63504   0.51860   0.00000  Uiso   1.00
C800   C     0.08482   0.11521   0.49053   0.00000  Uiso   1.00
C801   C     0.01187   0.13159   0.43971   0.00000  Uiso   1.00
C802   C     0.99945   0.14672   0.48249   0.00000  Uiso   1.00
C803   C     0.62855   0.56339   0.49126   0.00000  Uiso   1.00
C804   C     0.59236   0.53621   0.44105   0.00000  Uiso   1.00
C805   C     0.61674   0.50771   0.48444   0.00000  Uiso   1.00
H806   H     0.76407   0.59376   0.69394   0.00000  Uiso   1.00
H807   H     0.87564   0.62010   0.71843   0.00000  Uiso   1.00
H808   H     0.67621   0.62811   0.69365   0.00000  Uiso   1.00
H809   H     0.75669   0.53274   0.69500   0.00000  Uiso   1.00
H810   H     0.47355   0.14985   0.70574   0.00000  Uiso   1.00
H811   H     0.05302   0.16673   0.65350   0.00000  Uiso   1.00
H812   H     0.72272   0.46563   0.65633   0.00000  Uiso   1.00
H813   H     0.06541   0.09797   0.38693   0.00000  Uiso   1.00
H814   H     0.66608   0.62453   0.39457   0.00000  Uiso   1.00
H815   H     0.96664   0.13254   0.36980   0.00000  Uiso   1.00
H816   H     0.54712   0.53718   0.37114   0.00000  Uiso   1.00
H817   H     0.80346   0.65345   0.44289   0.00000  Uiso   1.00
H818   H     0.88292   0.17033   0.39064   0.00000  Uiso   1.00
H819   H     0.55262   0.46923   0.39348   0.00000  Uiso   1.00
O820   O     0.45830   0.16906   0.58488   0.00000  Uiso   1.00
O821   O     0.90658   0.19120   0.51634   0.00000  Uiso   1.00
O822   O     0.62922   0.42736   0.52006   0.00000  Uiso   1.00
N823   N     0.41971   0.14705   0.64283   0.00000  Uiso   1.00
N824   N     0.02654   0.16284   0.59399   0.00000  Uiso   1.00
N825   N     0.68518   0.47482   0.59663   0.00000  Uiso   1.00
N826   N     0.82818   0.64899   0.50139   0.00000  Uiso   1.00
N827   N     0.93501   0.16477   0.45255   0.00000  Uiso   1.00
N828   N     0.59365   0.47676   0.45519   0.00000  Uiso   1.00
C829   C     0.30034   0.06595   0.32411   0.00000  Uiso   1.00
C830   C     0.27606   0.10053   0.29857   0.00000  Uiso   1.00
C831   C     0.20041   0.11154   0.22054   0.00000  Uiso   1.00
C832   C     0.19031   0.14405   0.20965   0.00000  Uiso   1.00
C833   C     0.64295   0.69460   0.16015   0.00000  Uiso   1.00
C834   C     0.32838   0.06196   0.40873   0.00000  Uiso   1.00
C835   C     0.29673   0.04053   0.42330   0.00000  Uiso   1.00
C836   C     0.33070   0.04056   0.50515   0.00000  Uiso   1.00
C837   C     0.36462   0.03122   0.62668   0.00000  Uiso   1.00
C838   C     0.37648   0.06150   0.34688   0.00000  Uiso   1.00
C839   C     0.38529   0.03967   0.30947   0.00000  Uiso   1.00
C840   C     0.95976   0.53931   0.33926   0.00000  Uiso   1.00
C841   C     0.06837   0.52924   0.36477   0.00000  Uiso   1.00
C842   C     0.91694   0.60412   0.44355   0.00000  Uiso   1.00
C843   C     0.33939   0.12127   0.36345   0.00000  Uiso   1.00
C844   C     0.32941   0.15377   0.35268   0.00000  Uiso   1.00
C845   C     0.25376   0.16482   0.27464   0.00000  Uiso   1.00
C846   C     0.39171   0.08269   0.47360   0.00000  Uiso   1.00
C847   C     0.92574   0.58276   0.55545   0.00000  Uiso   1.00
C848   C     0.39414   0.06133   0.57014   0.00000  Uiso   1.00
C849   C     0.93982   0.58223   0.41175   0.00000  Uiso   1.00
C850   C     0.01429   0.58190   0.44161   0.00000  Uiso   1.00
C851   C     0.02321   0.56008   0.40425   0.00000  Uiso   1.00
H852   H     0.25103   0.04980   0.27361   0.00000  Uiso   1.00
H853   H     0.15141   0.09549   0.17035   0.00000  Uiso   1.00
H854   H     0.24773   0.02449   0.37309   0.00000  Uiso   1.00
H855   H     0.33627   0.02363   0.25927   0.00000  Uiso   1.00
H856   H     0.56887   0.65528   0.08449   0.00000  Uiso   1.00
H857   H     0.27199   0.00556   0.51199   0.00000  Uiso   1.00
H858   H     0.45869   0.00375   0.27198   0.00000  Uiso   1.00
H859   H     0.96625   0.62026   0.49406   0.00000  Uiso   1.00
H860   H     0.87843   0.66981   0.40289   0.00000  Uiso   1.00
H861   H     0.97475   0.59881   0.60563   0.00000  Uiso   1.00
H862   H     0.06329   0.59795   0.49182   0.00000  Uiso   1.00
H863   H     0.25313   0.21560   0.27324   0.00000  Uiso   1.00
H864   H     0.95625   0.56588   0.70074   0.00000  Uiso   1.00
H865   H     0.14295   0.56407   0.46073   0.00000  Uiso   1.00
O866   O     0.59934   0.71676   0.11493   0.00000  Uiso   1.00
O867   O     0.36583   0.02034   0.67579   0.00000  Uiso   1.00
O868   O     0.11078   0.51796   0.36091   0.00000  Uiso   1.00
N869   N     0.62429   0.66267   0.14142   0.00000  Uiso   1.00
N870   N     0.31418   0.02270   0.54110   0.00000  Uiso   1.00
N871   N     0.98875   0.52100   0.31673   0.00000  Uiso   1.00
N872   N     0.22344   0.19513   0.24298   0.00000  Uiso   1.00
N873   N     0.41333   0.05516   0.64266   0.00000  Uiso   1.00
N874   N     0.08790   0.55346   0.41829   0.00000  Uiso   1.00
C875   C     0.66118   0.75727   0.61752   0.00000  Uiso   1.00
C876   C     0.69238   0.74730   0.58268   0.00000  Uiso   1.00
C877   C     0.64548   0.73403   0.50194   0.00000  Uiso   1.00
C878   C     0.68546   0.72656   0.48224   0.00000  Uiso   1.00
C879   C     0.22115   0.21025   0.41916   0.00000  Uiso   1.00
C880   C     0.68352   0.79204   0.64164   0.00000  Uiso   1.00
C881   C     0.62916   0.81640   0.61047   0.00000  Uiso   1.00
C882   C     0.16169   0.34660   0.64042   0.00000  Uiso   1.00
C883   C     0.18362   0.39975   0.66891   0.00000  Uiso   1.00
C884   C     0.71344   0.73953   0.70267   0.00000  Uiso   1.00
C885   C     0.68424   0.71973   0.72283   0.00000  Uiso   1.00
C886   C     0.24195   0.20572   0.80417   0.00000  Uiso   1.00
C887   C     0.31034   0.17733   0.92743   0.00000  Uiso   1.00
C888   C     0.81558   0.76758   0.72614   0.00000  Uiso   1.00
C889   C     0.77625   0.75290   0.64168   0.00000  Uiso   1.00
C890   C     0.81631   0.74544   0.62211   0.00000  Uiso   1.00
C891   C     0.76948   0.73217   0.54135   0.00000  Uiso   1.00
C892   C     0.26738   0.29764   0.70063   0.00000  Uiso   1.00
C893   C     0.29999   0.32781   0.73064   0.00000  Uiso   1.00
C894   C     0.24570   0.35221   0.69952   0.00000  Uiso   1.00
C895   C     0.79730   0.74513   0.76166   0.00000  Uiso   1.00
C896   C     0.85507   0.73114   0.84300   0.00000  Uiso   1.00
C897   C     0.82597   0.71133   0.86328   0.00000  Uiso   1.00
H898   H     0.59589   0.75291   0.57159   0.00000  Uiso   1.00
H899   H     0.58058   0.72971   0.45629   0.00000  Uiso   1.00
H900   H     0.56427   0.81206   0.56482   0.00000  Uiso   1.00
H901   H     0.61934   0.71541   0.67716   0.00000  Uiso   1.00
H902   H     0.60059   0.70647   0.35447   0.00000  Uiso   1.00
H903   H     0.56620   0.88011   0.58333   0.00000  Uiso   1.00
H904   H     0.18233   0.17630   0.82022   0.00000  Uiso   1.00
H905   H     0.88087   0.77194   0.77207   0.00000  Uiso   1.00
H906   H     0.88121   0.74978   0.66778   0.00000  Uiso   1.00
H907   H     0.86489   0.83213   0.77630   0.00000  Uiso   1.00
H908   H     0.91996   0.73548   0.88864   0.00000  Uiso   1.00
H909   H     0.84459   0.72276   0.52612   0.00000  Uiso   1.00
H910   H     0.31020   0.39641   0.75498   0.00000  Uiso   1.00
H911   H     0.92632   0.69259   0.99186   0.00000  Uiso   1.00
O912   O     0.21767   0.19970   0.36806   0.00000  Uiso   1.00
O913   O     0.17254   0.42752   0.66832   0.00000  Uiso   1.00
O914   O     0.32490   0.16012   0.97911   0.00000  Uiso   1.00
N915   N     0.65798   0.71334   0.40919   0.00000  Uiso   1.00
N916   N     0.12582   0.37569   0.62315   0.00000  Uiso   1.00
N917   N     0.23438   0.18514   0.84462   0.00000  Uiso   1.00
N918   N     0.78927   0.72210   0.50155   0.00000  Uiso   1.00
N919   N     0.25711   0.38445   0.71551   0.00000  Uiso   1.00
N920   N     0.86568   0.69391   0.93699   0.00000  Uiso   1.00
C921   C     0.29431   0.41090   0.20907   0.00000  Uiso   1.00
C922   C     0.27460   0.39264   0.24867   0.00000  Uiso   1.00
C923   C     0.19930   0.37953   0.20324   0.00000  Uiso   1.00
C924   C     0.19372   0.36374   0.25134   0.00000  Uiso   1.00
C925   C     0.65289   0.83577   0.29909   0.00000  Uiso   1.00
C926   C     0.36654   0.39389   0.23820   0.00000  Uiso   1.00
C927   C     0.36854   0.38183   0.18396   0.00000  Uiso   1.00
C928   C     0.94036   0.86709   0.22324   0.00000  Uiso   1.00
C929   C     0.04228   0.84107   0.25473   0.00000  Uiso   1.00
C930   C     0.32676   0.44292   0.25425   0.00000  Uiso   1.00
C931   C     0.29534   0.47209   0.21350   0.00000  Uiso   1.00
C932   C     0.33369   0.49863   0.26629   0.00000  Uiso   1.00
C933   C     0.37385   0.54874   0.32270   0.00000  Uiso   1.00
C934   C     0.91830   0.90617   0.37528   0.00000  Uiso   1.00
C935   C     0.34195   0.39007   0.33895   0.00000  Uiso   1.00
C936   C     0.33649   0.37430   0.38713   0.00000  Uiso   1.00
C937   C     0.26119   0.36116   0.34178   0.00000  Uiso   1.00
C938   C     0.93388   0.89132   0.32847   0.00000  Uiso   1.00
C939   C     0.00572   0.87659   0.36785   0.00000  Uiso   1.00
C940   C     0.00783   0.86451   0.31368   0.00000  Uiso   1.00
C941   C     0.39411   0.44035   0.34452   0.00000  Uiso   1.00
C942   C     0.43252   0.46685   0.39739   0.00000  Uiso   1.00
C943   C     0.40116   0.49605   0.35673   0.00000  Uiso   1.00
H944   H     0.24188   0.41290   0.13879   0.00000  Uiso   1.00
H945   H     0.14720   0.38153   0.13337   0.00000  Uiso   1.00
H946   H     0.31641   0.38383   0.11410   0.00000  Uiso   1.00
H947   H     0.24322   0.47407   0.14363   0.00000  Uiso   1.00
H948   H     0.57194   0.84560   0.16718   0.00000  Uiso   1.00
H949   H     0.92874   0.85045   0.12654   0.00000  Uiso   1.00
H950   H     0.27440   0.54075   0.18882   0.00000  Uiso   1.00
H951   H     0.97074   0.90416   0.44557   0.00000  Uiso   1.00
H952   H     0.88861   0.87231   0.45699   0.00000  Uiso   1.00
H953   H     0.05783   0.87461   0.43771   0.00000  Uiso   1.00
H954   H     0.98464   0.96485   0.46725   0.00000  Uiso   1.00
H955   H     0.26788   0.33811   0.42984   0.00000  Uiso   1.00
H956   H     0.12469   0.84297   0.38919   0.00000  Uiso   1.00
H957   H     0.47035   0.53327   0.45148   0.00000  Uiso   1.00
O958   O     0.61176   0.82105   0.30049   0.00000  Uiso   1.00
O959   O     0.07988   0.82743   0.24716   0.00000  Uiso   1.00
O960   O     0.37739   0.57709   0.32887   0.00000  Uiso   1.00
N961   N     0.62932   0.84821   0.22743   0.00000  Uiso   1.00
N962   N     0.96290   0.85275   0.18943   0.00000  Uiso   1.00
N963   N     0.31863   0.53066   0.24766   0.00000  Uiso   1.00
N964   N     0.23475   0.34419   0.36877   0.00000  Uiso   1.00
N965   N     0.06834   0.84872   0.33077   0.00000  Uiso   1.00
N966   N     0.42406   0.52664   0.38899   0.00000  Uiso   1.00
C967   C     0.22516   0.44345   0.50594   0.00000  Uiso   1.00
C968   C     0.26514   0.41119   0.54510   0.00000  Uiso   1.00
C969   C     0.34513   0.40583   0.62579   0.00000  Uiso   1.00
C970   C     0.37010   0.37458   0.64979   0.00000  Uiso   1.00
C971   C     0.94028   0.82828   0.71891   0.00000  Uiso   1.00
C972   C     0.19405   0.44443   0.41923   0.00000  Uiso   1.00
C973   C     0.21426   0.46702   0.39409   0.00000  Uiso   1.00
C974   C     0.17937   0.46377   0.31213   0.00000  Uiso   1.00
C975   C     0.13914   0.46909   0.18581   0.00000  Uiso   1.00
C976   C     0.14920   0.44325   0.48437   0.00000  Uiso   1.00
C977   C     0.13169   0.46485   0.51399   0.00000  Uiso   1.00
C978   C     0.05903   0.46060   0.48686   0.00000  Uiso   1.00
C979   C     0.44915   0.96408   0.46169   0.00000  Uiso   1.00
C980   C     0.12725   0.39749   0.40508   0.00000  Uiso   1.00
C981   C     0.21195   0.38622   0.49031   0.00000  Uiso   1.00
C982   C     0.23681   0.35498   0.51420   0.00000  Uiso   1.00
C983   C     0.31682   0.34957   0.59491   0.00000  Uiso   1.00
C984   C     0.14087   0.41947   0.36445   0.00000  Uiso   1.00
C985   C     0.10594   0.41618   0.28250   0.00000  Uiso   1.00
C986   C     0.12610   0.43876   0.25725   0.00000  Uiso   1.00
C987   C     0.09601   0.41828   0.42959   0.00000  Uiso   1.00
C988   C     0.52336   0.91400   0.40241   0.00000  Uiso   1.00
C989   C     0.50575   0.93559   0.43198   0.00000  Uiso   1.00
H990   H     0.26656   0.46289   0.54858   0.00000  Uiso   1.00
H991   H     0.38627   0.42515   0.66816   0.00000  Uiso   1.00
H992   H     0.25541   0.48634   0.43649   0.00000  Uiso   1.00
H993   H     0.17285   0.48416   0.55638   0.00000  Uiso   1.00
H994   H     0.99555   0.87231   0.77656   0.00000  Uiso   1.00
H995   H     0.21961   0.50133   0.28806   0.00000  Uiso   1.00
H996   H     0.04551   0.49674   0.54087   0.00000  Uiso   1.00
H997   H     0.58584   0.87806   0.36243   0.00000  Uiso   1.00
H998   H     0.19564   0.33566   0.47179   0.00000  Uiso   1.00
H999   H     0.56478   0.89686   0.24012   0.00000  Uiso   1.00
H1000  H     0.48222   0.89468   0.36001   0.00000  Uiso   1.00
H1001  H     0.84083   0.79967   0.61718   0.00000  Uiso   1.00
H1002  H     0.56488   0.92870   0.12868   0.00000  Uiso   1.00
H1003  H     0.39079   0.92411   0.38149   0.00000  Uiso   1.00
O1004  O     0.99368   0.80963   0.77216   0.00000  Uiso   1.00
O1005  O     0.13164   0.47892   0.13127   0.00000  Uiso   1.00
O1006  O     0.40324   0.97289   0.46295   0.00000  Uiso   1.00
N1007  N     0.94406   0.86103   0.72405   0.00000  Uiso   1.00
N1008  N     0.18608   0.48166   0.26734   0.00000  Uiso   1.00
N1009  N     0.02331   0.47738   0.50367   0.00000  Uiso   1.00
N1010  N     0.86081   0.82195   0.63829   0.00000  Uiso   1.00
N1011  N     0.10283   0.44258   0.18158   0.00000  Uiso   1.00
N1012  N     0.44005   0.93829   0.41791   0.00000  Uiso   1.00
C1013  C     0.84744   0.73629   0.11162   0.00000  Uiso   1.00
C1014  C     0.85583   0.75441   0.17493   0.00000  Uiso   1.00
C1015  C     0.92466   0.77090   0.24722   0.00000  Uiso   1.00
C1016  C     0.92014   0.78592   0.29696   0.00000  Uiso   1.00
C1017  C     0.94395   0.81427   0.39862   0.00000  Uiso   1.00
C1018  C     0.82441   0.70260   0.11012   0.00000  Uiso   1.00
C1019  C     0.86682   0.67552   0.12791   0.00000  Uiso   1.00
C1020  C     0.33585   0.14693   0.12308   0.00000  Uiso   1.00
C1021  C     0.31086   0.09484   0.12405   0.00000  Uiso   1.00
C1022  C     0.77271   0.75003   0.02225   0.00000  Uiso   1.00
C1023  C     0.77165   0.76283   0.96613   0.00000  Uiso   1.00
C1024  C     0.69715   0.77417   0.88731   0.00000  Uiso   1.00
C1025  C     0.59188   0.79573   0.75186   0.00000  Uiso   1.00
C1026  C     0.71703   0.73364   0.07141   0.00000  Uiso   1.00
C1027  C     0.78499   0.75298   0.15309   0.00000  Uiso   1.00
C1028  C     0.78037   0.76798   0.20274   0.00000  Uiso   1.00
C1029  C     0.84918   0.78449   0.27508   0.00000  Uiso   1.00
C1030  C     0.25358   0.20116   0.08829   0.00000  Uiso   1.00
C1031  C     0.22254   0.17260   0.08342   0.00000  Uiso   1.00
C1032  C     0.26489   0.14549   0.10120   0.00000  Uiso   1.00
C1033  C     0.70188   0.74860   0.00041   0.00000  Uiso   1.00
C1034  C     0.62736   0.75991   0.92166   0.00000  Uiso   1.00
C1035  C     0.62618   0.77273   0.86543   0.00000  Uiso   1.00
H1036  H     0.90259   0.73740   0.12862   0.00000  Uiso   1.00
H1037  H     0.97947   0.77200   0.26410   0.00000  Uiso   1.00
H1038  H     0.92163   0.67664   0.14480   0.00000  Uiso   1.00
H1039  H     0.82647   0.76394   0.98306   0.00000  Uiso   1.00
H1040  H     0.03347   0.80972   0.40470   0.00000  Uiso   1.00
H1041  H     0.91151   0.60865   0.15311   0.00000  Uiso   1.00
H1042  H     0.21085   0.29273   0.81204   0.00000  Uiso   1.00
H1043  H     0.66188   0.73253   0.05441   0.00000  Uiso   1.00
H1044  H     0.72554   0.76686   0.18582   0.00000  Uiso   1.00
H1045  H     0.66772   0.67150   0.06652   0.00000  Uiso   1.00
H1046  H     0.57256   0.75880   0.90478   0.00000  Uiso   1.00
H1047  H     0.82738   0.80555   0.34116   0.00000  Uiso   1.00
H1048  H     0.20542   0.10447   0.08957   0.00000  Uiso   1.00
H1049  H     0.50476   0.78856   0.74851   0.00000  Uiso   1.00
O1050  O     0.97666   0.83030   0.46073   0.00000  Uiso   1.00
O1051  O     0.31665   0.06650   0.13064   0.00000  Uiso   1.00
O1052  O     0.55339   0.80802   0.68318   0.00000  Uiso   1.00
N1053  N     0.97622   0.80403   0.37170   0.00000  Uiso   1.00
N1054  N     0.36221   0.11604   0.13649   0.00000  Uiso   1.00
N1055  N     0.67460   0.78814   0.81762   0.00000  Uiso   1.00
N1056  N     0.86533   0.80179   0.33751   0.00000  Uiso   1.00
N1057  N     0.25131   0.11380   0.10230   0.00000  Uiso   1.00
N1058  N     0.56371   0.78589   0.78343   0.00000  Uiso   1.00
C1059  C     0.21856   0.09472   0.62360   0.00000  Uiso   1.00
C1060  C     0.25163   0.10961   0.59434   0.00000  Uiso   1.00
C1061  C     0.33042   0.12106   0.64851   0.00000  Uiso   1.00
C1062  C     0.34870   0.13380   0.60911   0.00000  Uiso   1.00
C1063  C     0.90893   0.65675   0.57741   0.00000  Uiso   1.00
C1064  C     0.14328   0.11397   0.58087   0.00000  Uiso   1.00
C1065  C     0.13096   0.12907   0.62374   0.00000  Uiso   1.00
C1066  C     0.55802   0.64548   0.57299   0.00000  Uiso   1.00
C1067  C     0.45000   0.67517   0.52039   0.00000  Uiso   1.00
C1068  C     0.18701   0.06215   0.58161   0.00000  Uiso   1.00
C1069  C     0.21144   0.03369   0.62508   0.00000  Uiso   1.00
C1070  C     0.17531   0.00647   0.57495   0.00000  Uiso   1.00
C1071  C     0.13519   0.95570   0.52349   0.00000  Uiso   1.00
C1072  C     0.11093   0.09700   0.45727   0.00000  Uiso   1.00
C1073  C     0.19317   0.11085   0.50399   0.00000  Uiso   1.00
C1074  C     0.21133   0.12358   0.46449   0.00000  Uiso   1.00
C1075  C     0.29013   0.13504   0.51860   0.00000  Uiso   1.00
C1076  C     0.58482   0.61521   0.49053   0.00000  Uiso   1.00
C1077  C     0.51187   0.63159   0.43971   0.00000  Uiso   1.00
C1078  C     0.49945   0.64672   0.48249   0.00000  Uiso   1.00
C1079  C     0.12855   0.06339   0.49126   0.00000  Uiso   1.00
C1080  C     0.09236   0.03621   0.44105   0.00000  Uiso   1.00
C1081  C     0.11674   0.00771   0.48444   0.00000  Uiso   1.00
H1082  H     0.26407   0.09376   0.69394   0.00000  Uiso   1.00
H1083  H     0.37564   0.12010   0.71843   0.00000  Uiso   1.00
H1084  H     0.17621   0.12811   0.69365   0.00000  Uiso   1.00
H1085  H     0.25669   0.03274   0.69500   0.00000  Uiso   1.00
H1086  H     0.97355   0.64985   0.70574   0.00000  Uiso   1.00
H1087  H     0.55302   0.66673   0.65350   0.00000  Uiso   1.00
H1088  H     0.22272   0.96563   0.65633   0.00000  Uiso   1.00
H1089  H     0.56541   0.59797   0.38693   0.00000  Uiso   1.00
H1090  H     0.16608   0.12453   0.39457   0.00000  Uiso   1.00
H1091  H     0.46664   0.63254   0.36980   0.00000  Uiso   1.00
H1092  H     0.04712   0.03718   0.37114   0.00000  Uiso   1.00
H1093  H     0.30346   0.15345   0.44289   0.00000  Uiso   1.00
H1094  H     0.38292   0.67033   0.39064   0.00000  Uiso   1.00
H1095  H     0.05262   0.96923   0.39348   0.00000  Uiso   1.00
O1096  O     0.95830   0.66906   0.58488   0.00000  Uiso   1.00
O1097  O     0.40658   0.69120   0.51634   0.00000  Uiso   1.00
O1098  O     0.12922   0.92736   0.52006   0.00000  Uiso   1.00
N1099  N     0.91971   0.64705   0.64283   0.00000  Uiso   1.00
N1100  N     0.52654   0.66284   0.59399   0.00000  Uiso   1.00
N1101  N     0.18518   0.97482   0.59663   0.00000  Uiso   1.00
N1102  N     0.32818   0.14899   0.50139   0.00000  Uiso   1.00
N1103  N     0.43501   0.66477   0.45255   0.00000  Uiso   1.00
N1104  N     0.09365   0.97676   0.45519   0.00000  Uiso   1.00
