data_job_02417
_audit_creation_date              2018-12-19
_audit_creation_method            'Materials Studio'
_symmetry_space_group_name_H-M    'P1'
_symmetry_Int_Tables_number       1
_symmetry_cell_setting            triclinic
loop_
_symmetry_equiv_pos_as_xyz
  x,y,z
_cell_length_a                    19.9312
_cell_length_b                    60.9617
_cell_length_c                    7.6163
_cell_angle_alpha                 90.0000
_cell_angle_beta                  90.0000
_cell_angle_gamma                 90.0000
loop_
_atom_site_label
_atom_site_type_symbol
_atom_site_fract_x
_atom_site_fract_y
_atom_site_fract_z
_atom_site_U_iso_or_equiv
_atom_site_adp_type
_atom_site_occupancy
C1     C     0.53949   0.31212   0.67325   0.00000  Uiso   1.00
C2     C     0.57467   0.29128   0.73485   0.00000  Uiso   1.00
C3     C     0.60954   0.27672   0.62865   0.00000  Uiso   1.00
C4     C     0.63815   0.25862   0.71013   0.00000  Uiso   1.00
C5     C     0.69367   0.22677   0.77821   0.00000  Uiso   1.00
C6     C     0.46669   0.31001   0.73245   0.00000  Uiso   1.00
C7     C     0.41078   0.31119   0.62425   0.00000  Uiso   1.00
C8     C     0.34849   0.30886   0.70372   0.00000  Uiso   1.00
C9     C     0.23637   0.30611   0.76810   0.00000  Uiso   1.00
C10    C     0.56943   0.33079   0.78100   0.00000  Uiso   1.00
C11    C     0.59989   0.34945   0.71361   0.00000  Uiso   1.00
C12    C     0.62409   0.36462   0.83396   0.00000  Uiso   1.00
C13    C     0.67149   0.39413   0.97371   0.00000  Uiso   1.00
C14    C     0.52828   0.30588   0.00678   0.00000  Uiso   1.00
C15    C     0.56858   0.28789   0.91601   0.00000  Uiso   1.00
C16    C     0.59714   0.26981   0.99767   0.00000  Uiso   1.00
C17    C     0.63206   0.25522   0.89162   0.00000  Uiso   1.00
C18    C     0.46060   0.30662   0.91361   0.00000  Uiso   1.00
C19    C     0.39838   0.30429   0.99326   0.00000  Uiso   1.00
C20    C     0.34239   0.30547   0.88521   0.00000  Uiso   1.00
C21    C     0.56334   0.32740   0.96216   0.00000  Uiso   1.00
C22    C     0.58750   0.34255   0.08263   0.00000  Uiso   1.00
C23    C     0.61799   0.36123   0.01545   0.00000  Uiso   1.00
H24    H     0.54423   0.31476   0.53220   0.00000  Uiso   1.00
H25    H     0.61424   0.27934   0.48846   0.00000  Uiso   1.00
H26    H     0.41551   0.31382   0.48406   0.00000  Uiso   1.00
H27    H     0.60459   0.35207   0.57342   0.00000  Uiso   1.00
H28    H     0.68915   0.23858   0.51984   0.00000  Uiso   1.00
H29    H     0.27012   0.31128   0.51057   0.00000  Uiso   1.00
H30    H     0.66884   0.39194   0.69899   0.00000  Uiso   1.00
H31    H     0.52354   0.30324   0.14783   0.00000  Uiso   1.00
H32    H     0.59242   0.26719   0.13787   0.00000  Uiso   1.00
H33    H     0.39369   0.30167   0.13346   0.00000  Uiso   1.00
H34    H     0.58278   0.33992   0.22282   0.00000  Uiso   1.00
H35    H     0.67145   0.22872   0.04692   0.00000  Uiso   1.00
H36    H     0.25241   0.30142   0.03765   0.00000  Uiso   1.00
H37    H     0.65113   0.38208   0.22608   0.00000  Uiso   1.00
O38    O     0.72596   0.21014   0.76571   0.00000  Uiso   1.00
O39    O     0.17621   0.30552   0.75355   0.00000  Uiso   1.00
O40    O     0.69933   0.41135   0.00076   0.00000  Uiso   1.00
N41    N     0.67554   0.24121   0.64526   0.00000  Uiso   1.00
N42    N     0.28377   0.30917   0.63659   0.00000  Uiso   1.00
N43    N     0.65653   0.38459   0.81275   0.00000  Uiso   1.00
N44    N     0.66602   0.23590   0.92888   0.00000  Uiso   1.00
N45    N     0.27424   0.30387   0.92021   0.00000  Uiso   1.00
N46    N     0.64700   0.37928   0.09637   0.00000  Uiso   1.00
C47    C     0.53949   0.81212   0.17325   0.00000  Uiso   1.00
C48    C     0.57467   0.79128   0.23485   0.00000  Uiso   1.00
C49    C     0.60954   0.77672   0.12865   0.00000  Uiso   1.00
C50    C     0.63815   0.75862   0.21013   0.00000  Uiso   1.00
C51    C     0.69367   0.72677   0.27821   0.00000  Uiso   1.00
C52    C     0.46669   0.81001   0.23245   0.00000  Uiso   1.00
C53    C     0.41078   0.81119   0.12425   0.00000  Uiso   1.00
C54    C     0.34849   0.80886   0.20372   0.00000  Uiso   1.00
C55    C     0.23637   0.80611   0.26810   0.00000  Uiso   1.00
C56    C     0.56943   0.83079   0.28100   0.00000  Uiso   1.00
C57    C     0.59989   0.84945   0.21361   0.00000  Uiso   1.00
C58    C     0.62409   0.86462   0.33396   0.00000  Uiso   1.00
C59    C     0.67149   0.89413   0.47371   0.00000  Uiso   1.00
C60    C     0.52828   0.80588   0.50678   0.00000  Uiso   1.00
C61    C     0.56858   0.78789   0.41601   0.00000  Uiso   1.00
C62    C     0.59714   0.76981   0.49767   0.00000  Uiso   1.00
C63    C     0.63206   0.75522   0.39162   0.00000  Uiso   1.00
C64    C     0.46060   0.80662   0.41361   0.00000  Uiso   1.00
C65    C     0.39838   0.80429   0.49326   0.00000  Uiso   1.00
C66    C     0.34239   0.80547   0.38521   0.00000  Uiso   1.00
C67    C     0.56334   0.82740   0.46216   0.00000  Uiso   1.00
C68    C     0.58750   0.84255   0.58263   0.00000  Uiso   1.00
C69    C     0.61799   0.86123   0.51545   0.00000  Uiso   1.00
H70    H     0.54423   0.81476   0.03220   0.00000  Uiso   1.00
H71    H     0.61424   0.77934   0.98846   0.00000  Uiso   1.00
H72    H     0.41551   0.81382   0.98406   0.00000  Uiso   1.00
H73    H     0.60459   0.85207   0.07342   0.00000  Uiso   1.00
H74    H     0.68915   0.73858   0.01984   0.00000  Uiso   1.00
H75    H     0.27012   0.81128   0.01057   0.00000  Uiso   1.00
H76    H     0.66884   0.89194   0.19899   0.00000  Uiso   1.00
H77    H     0.52354   0.80324   0.64783   0.00000  Uiso   1.00
H78    H     0.59242   0.76719   0.63787   0.00000  Uiso   1.00
H79    H     0.39369   0.80167   0.63346   0.00000  Uiso   1.00
H80    H     0.58278   0.83992   0.72282   0.00000  Uiso   1.00
H81    H     0.67145   0.72872   0.54692   0.00000  Uiso   1.00
H82    H     0.25241   0.80142   0.53765   0.00000  Uiso   1.00
H83    H     0.65113   0.88208   0.72608   0.00000  Uiso   1.00
O84    O     0.72596   0.71014   0.26571   0.00000  Uiso   1.00
O85    O     0.17621   0.80552   0.25355   0.00000  Uiso   1.00
O86    O     0.69933   0.91135   0.50076   0.00000  Uiso   1.00
N87    N     0.67554   0.74121   0.14526   0.00000  Uiso   1.00
N88    N     0.28377   0.80917   0.13659   0.00000  Uiso   1.00
N89    N     0.65653   0.88459   0.31275   0.00000  Uiso   1.00
N90    N     0.66602   0.73590   0.42888   0.00000  Uiso   1.00
N91    N     0.27424   0.80387   0.42021   0.00000  Uiso   1.00
N92    N     0.64700   0.87928   0.59637   0.00000  Uiso   1.00
C93    C     0.03949   0.31212   0.17325   0.00000  Uiso   1.00
C94    C     0.07467   0.29128   0.23485   0.00000  Uiso   1.00
C95    C     0.10954   0.27672   0.12865   0.00000  Uiso   1.00
C96    C     0.13815   0.25862   0.21013   0.00000  Uiso   1.00
C97    C     0.19367   0.22677   0.27821   0.00000  Uiso   1.00
C98    C     0.96669   0.31001   0.23245   0.00000  Uiso   1.00
C99    C     0.91078   0.31119   0.12425   0.00000  Uiso   1.00
C100   C     0.84849   0.30886   0.20372   0.00000  Uiso   1.00
C101   C     0.73637   0.30611   0.26810   0.00000  Uiso   1.00
C102   C     0.06943   0.33079   0.28100   0.00000  Uiso   1.00
C103   C     0.09989   0.34945   0.21361   0.00000  Uiso   1.00
C104   C     0.12409   0.36462   0.33396   0.00000  Uiso   1.00
C105   C     0.17149   0.39413   0.47371   0.00000  Uiso   1.00
C106   C     0.02828   0.30588   0.50678   0.00000  Uiso   1.00
C107   C     0.06858   0.28789   0.41601   0.00000  Uiso   1.00
C108   C     0.09714   0.26981   0.49767   0.00000  Uiso   1.00
C109   C     0.13206   0.25522   0.39162   0.00000  Uiso   1.00
C110   C     0.96060   0.30662   0.41361   0.00000  Uiso   1.00
C111   C     0.89838   0.30429   0.49326   0.00000  Uiso   1.00
C112   C     0.84239   0.30547   0.38521   0.00000  Uiso   1.00
C113   C     0.06334   0.32740   0.46216   0.00000  Uiso   1.00
C114   C     0.08750   0.34255   0.58263   0.00000  Uiso   1.00
C115   C     0.11799   0.36123   0.51545   0.00000  Uiso   1.00
H116   H     0.04423   0.31476   0.03220   0.00000  Uiso   1.00
H117   H     0.11424   0.27934   0.98846   0.00000  Uiso   1.00
H118   H     0.91551   0.31382   0.98406   0.00000  Uiso   1.00
H119   H     0.10459   0.35207   0.07342   0.00000  Uiso   1.00
H120   H     0.18915   0.23858   0.01984   0.00000  Uiso   1.00
H121   H     0.77012   0.31128   0.01057   0.00000  Uiso   1.00
H122   H     0.16884   0.39194   0.19899   0.00000  Uiso   1.00
H123   H     0.02354   0.30324   0.64783   0.00000  Uiso   1.00
H124   H     0.09242   0.26719   0.63787   0.00000  Uiso   1.00
H125   H     0.89369   0.30167   0.63346   0.00000  Uiso   1.00
H126   H     0.08278   0.33992   0.72282   0.00000  Uiso   1.00
H127   H     0.17145   0.22872   0.54692   0.00000  Uiso   1.00
H128   H     0.75241   0.30142   0.53765   0.00000  Uiso   1.00
H129   H     0.15113   0.38208   0.72608   0.00000  Uiso   1.00
O130   O     0.22596   0.21014   0.26571   0.00000  Uiso   1.00
O131   O     0.67621   0.30552   0.25355   0.00000  Uiso   1.00
O132   O     0.19933   0.41135   0.50076   0.00000  Uiso   1.00
N133   N     0.17554   0.24121   0.14526   0.00000  Uiso   1.00
N134   N     0.78377   0.30917   0.13659   0.00000  Uiso   1.00
N135   N     0.15653   0.38459   0.31275   0.00000  Uiso   1.00
N136   N     0.16602   0.23590   0.42888   0.00000  Uiso   1.00
N137   N     0.77424   0.30387   0.42021   0.00000  Uiso   1.00
N138   N     0.14700   0.37928   0.59637   0.00000  Uiso   1.00
C139   C     0.03949   0.81212   0.67325   0.00000  Uiso   1.00
C140   C     0.07467   0.79128   0.73485   0.00000  Uiso   1.00
C141   C     0.10954   0.77672   0.62865   0.00000  Uiso   1.00
C142   C     0.13815   0.75862   0.71013   0.00000  Uiso   1.00
C143   C     0.19367   0.72677   0.77821   0.00000  Uiso   1.00
C144   C     0.96669   0.81001   0.73245   0.00000  Uiso   1.00
C145   C     0.91078   0.81119   0.62425   0.00000  Uiso   1.00
C146   C     0.84849   0.80886   0.70372   0.00000  Uiso   1.00
C147   C     0.73637   0.80611   0.76810   0.00000  Uiso   1.00
C148   C     0.06943   0.83079   0.78100   0.00000  Uiso   1.00
C149   C     0.09989   0.84945   0.71361   0.00000  Uiso   1.00
C150   C     0.12409   0.86462   0.83396   0.00000  Uiso   1.00
C151   C     0.17149   0.89413   0.97371   0.00000  Uiso   1.00
C152   C     0.02828   0.80588   0.00678   0.00000  Uiso   1.00
C153   C     0.06858   0.78789   0.91601   0.00000  Uiso   1.00
C154   C     0.09714   0.76981   0.99767   0.00000  Uiso   1.00
C155   C     0.13206   0.75522   0.89162   0.00000  Uiso   1.00
C156   C     0.96060   0.80662   0.91361   0.00000  Uiso   1.00
C157   C     0.89838   0.80429   0.99326   0.00000  Uiso   1.00
C158   C     0.84239   0.80547   0.88521   0.00000  Uiso   1.00
C159   C     0.06334   0.82740   0.96216   0.00000  Uiso   1.00
C160   C     0.08750   0.84255   0.08263   0.00000  Uiso   1.00
C161   C     0.11799   0.86123   0.01545   0.00000  Uiso   1.00
H162   H     0.04423   0.81476   0.53220   0.00000  Uiso   1.00
H163   H     0.11424   0.77934   0.48846   0.00000  Uiso   1.00
H164   H     0.91551   0.81382   0.48406   0.00000  Uiso   1.00
H165   H     0.10459   0.85207   0.57342   0.00000  Uiso   1.00
H166   H     0.18915   0.73858   0.51984   0.00000  Uiso   1.00
H167   H     0.77012   0.81128   0.51057   0.00000  Uiso   1.00
H168   H     0.16884   0.89194   0.69899   0.00000  Uiso   1.00
H169   H     0.02354   0.80324   0.14783   0.00000  Uiso   1.00
H170   H     0.09242   0.76719   0.13787   0.00000  Uiso   1.00
H171   H     0.89369   0.80167   0.13346   0.00000  Uiso   1.00
H172   H     0.08278   0.83992   0.22282   0.00000  Uiso   1.00
H173   H     0.17145   0.72872   0.04692   0.00000  Uiso   1.00
H174   H     0.75241   0.80142   0.03765   0.00000  Uiso   1.00
H175   H     0.15113   0.88208   0.22608   0.00000  Uiso   1.00
O176   O     0.22596   0.71014   0.76571   0.00000  Uiso   1.00
O177   O     0.67621   0.80552   0.75355   0.00000  Uiso   1.00
O178   O     0.19933   0.91135   0.00076   0.00000  Uiso   1.00
N179   N     0.17554   0.74121   0.64526   0.00000  Uiso   1.00
N180   N     0.78377   0.80917   0.63659   0.00000  Uiso   1.00
N181   N     0.15653   0.88459   0.81275   0.00000  Uiso   1.00
N182   N     0.16602   0.73590   0.92888   0.00000  Uiso   1.00
N183   N     0.77424   0.80387   0.92021   0.00000  Uiso   1.00
N184   N     0.14700   0.87928   0.09637   0.00000  Uiso   1.00
C185   C     0.46051   0.68788   0.67325   0.00000  Uiso   1.00
C186   C     0.42533   0.70872   0.73485   0.00000  Uiso   1.00
C187   C     0.39046   0.72328   0.62865   0.00000  Uiso   1.00
C188   C     0.36185   0.74138   0.71013   0.00000  Uiso   1.00
C189   C     0.30633   0.77323   0.77821   0.00000  Uiso   1.00
C190   C     0.53331   0.68999   0.73245   0.00000  Uiso   1.00
C191   C     0.58922   0.68881   0.62425   0.00000  Uiso   1.00
C192   C     0.65151   0.69114   0.70372   0.00000  Uiso   1.00
C193   C     0.76363   0.69389   0.76810   0.00000  Uiso   1.00
C194   C     0.43057   0.66921   0.78100   0.00000  Uiso   1.00
C195   C     0.40011   0.65055   0.71361   0.00000  Uiso   1.00
C196   C     0.37591   0.63538   0.83396   0.00000  Uiso   1.00
C197   C     0.32851   0.60587   0.97371   0.00000  Uiso   1.00
C198   C     0.47172   0.69412   0.00678   0.00000  Uiso   1.00
C199   C     0.43142   0.71211   0.91601   0.00000  Uiso   1.00
C200   C     0.40286   0.73019   0.99767   0.00000  Uiso   1.00
C201   C     0.36794   0.74478   0.89162   0.00000  Uiso   1.00
C202   C     0.53940   0.69338   0.91361   0.00000  Uiso   1.00
C203   C     0.60162   0.69571   0.99326   0.00000  Uiso   1.00
C204   C     0.65761   0.69453   0.88521   0.00000  Uiso   1.00
C205   C     0.43666   0.67260   0.96216   0.00000  Uiso   1.00
C206   C     0.41250   0.65745   0.08263   0.00000  Uiso   1.00
C207   C     0.38201   0.63877   0.01545   0.00000  Uiso   1.00
H208   H     0.45577   0.68524   0.53220   0.00000  Uiso   1.00
H209   H     0.38576   0.72066   0.48846   0.00000  Uiso   1.00
H210   H     0.58449   0.68618   0.48406   0.00000  Uiso   1.00
H211   H     0.39541   0.64793   0.57342   0.00000  Uiso   1.00
H212   H     0.31085   0.76142   0.51984   0.00000  Uiso   1.00
H213   H     0.72988   0.68872   0.51057   0.00000  Uiso   1.00
H214   H     0.33116   0.60806   0.69899   0.00000  Uiso   1.00
H215   H     0.47646   0.69676   0.14783   0.00000  Uiso   1.00
H216   H     0.40758   0.73281   0.13787   0.00000  Uiso   1.00
H217   H     0.60631   0.69833   0.13346   0.00000  Uiso   1.00
H218   H     0.41722   0.66008   0.22282   0.00000  Uiso   1.00
H219   H     0.32855   0.77128   0.04692   0.00000  Uiso   1.00
H220   H     0.74759   0.69858   0.03765   0.00000  Uiso   1.00
H221   H     0.34887   0.61792   0.22608   0.00000  Uiso   1.00
O222   O     0.27404   0.78986   0.76571   0.00000  Uiso   1.00
O223   O     0.82379   0.69448   0.75355   0.00000  Uiso   1.00
O224   O     0.30067   0.58865   0.00076   0.00000  Uiso   1.00
N225   N     0.32446   0.75879   0.64526   0.00000  Uiso   1.00
N226   N     0.71623   0.69083   0.63659   0.00000  Uiso   1.00
N227   N     0.34347   0.61541   0.81275   0.00000  Uiso   1.00
N228   N     0.33398   0.76410   0.92888   0.00000  Uiso   1.00
N229   N     0.72576   0.69613   0.92021   0.00000  Uiso   1.00
N230   N     0.35300   0.62072   0.09637   0.00000  Uiso   1.00
C231   C     0.46051   0.18788   0.17325   0.00000  Uiso   1.00
C232   C     0.42533   0.20872   0.23485   0.00000  Uiso   1.00
C233   C     0.39046   0.22328   0.12865   0.00000  Uiso   1.00
C234   C     0.36185   0.24138   0.21013   0.00000  Uiso   1.00
C235   C     0.30633   0.27323   0.27821   0.00000  Uiso   1.00
C236   C     0.53331   0.18999   0.23245   0.00000  Uiso   1.00
C237   C     0.58922   0.18881   0.12425   0.00000  Uiso   1.00
C238   C     0.65151   0.19114   0.20372   0.00000  Uiso   1.00
C239   C     0.76363   0.19389   0.26810   0.00000  Uiso   1.00
C240   C     0.43057   0.16921   0.28100   0.00000  Uiso   1.00
C241   C     0.40011   0.15055   0.21361   0.00000  Uiso   1.00
C242   C     0.37591   0.13538   0.33396   0.00000  Uiso   1.00
C243   C     0.32851   0.10587   0.47371   0.00000  Uiso   1.00
C244   C     0.47172   0.19412   0.50678   0.00000  Uiso   1.00
C245   C     0.43142   0.21211   0.41601   0.00000  Uiso   1.00
C246   C     0.40286   0.23019   0.49767   0.00000  Uiso   1.00
C247   C     0.36794   0.24478   0.39162   0.00000  Uiso   1.00
C248   C     0.53940   0.19338   0.41361   0.00000  Uiso   1.00
C249   C     0.60162   0.19571   0.49326   0.00000  Uiso   1.00
C250   C     0.65761   0.19453   0.38521   0.00000  Uiso   1.00
C251   C     0.43666   0.17260   0.46216   0.00000  Uiso   1.00
C252   C     0.41250   0.15745   0.58263   0.00000  Uiso   1.00
C253   C     0.38201   0.13877   0.51545   0.00000  Uiso   1.00
H254   H     0.45577   0.18524   0.03220   0.00000  Uiso   1.00
H255   H     0.38576   0.22066   0.98846   0.00000  Uiso   1.00
H256   H     0.58449   0.18618   0.98406   0.00000  Uiso   1.00
H257   H     0.39541   0.14793   0.07342   0.00000  Uiso   1.00
H258   H     0.31085   0.26142   0.01984   0.00000  Uiso   1.00
H259   H     0.72988   0.18872   0.01057   0.00000  Uiso   1.00
H260   H     0.33116   0.10806   0.19899   0.00000  Uiso   1.00
H261   H     0.47646   0.19676   0.64783   0.00000  Uiso   1.00
H262   H     0.40758   0.23281   0.63787   0.00000  Uiso   1.00
H263   H     0.60631   0.19833   0.63346   0.00000  Uiso   1.00
H264   H     0.41722   0.16008   0.72282   0.00000  Uiso   1.00
H265   H     0.32855   0.27128   0.54692   0.00000  Uiso   1.00
H266   H     0.74759   0.19858   0.53765   0.00000  Uiso   1.00
H267   H     0.34887   0.11792   0.72608   0.00000  Uiso   1.00
O268   O     0.27404   0.28986   0.26571   0.00000  Uiso   1.00
O269   O     0.82379   0.19448   0.25355   0.00000  Uiso   1.00
O270   O     0.30067   0.08865   0.50076   0.00000  Uiso   1.00
N271   N     0.32446   0.25879   0.14526   0.00000  Uiso   1.00
N272   N     0.71623   0.19083   0.13659   0.00000  Uiso   1.00
N273   N     0.34347   0.11541   0.31275   0.00000  Uiso   1.00
N274   N     0.33398   0.26410   0.42888   0.00000  Uiso   1.00
N275   N     0.72576   0.19613   0.42021   0.00000  Uiso   1.00
N276   N     0.35300   0.12072   0.59637   0.00000  Uiso   1.00
C277   C     0.96051   0.68788   0.17325   0.00000  Uiso   1.00
C278   C     0.92533   0.70872   0.23485   0.00000  Uiso   1.00
C279   C     0.89046   0.72328   0.12865   0.00000  Uiso   1.00
C280   C     0.86185   0.74138   0.21013   0.00000  Uiso   1.00
C281   C     0.80633   0.77323   0.27821   0.00000  Uiso   1.00
C282   C     0.03331   0.68999   0.23245   0.00000  Uiso   1.00
C283   C     0.08922   0.68881   0.12425   0.00000  Uiso   1.00
C284   C     0.15151   0.69114   0.20372   0.00000  Uiso   1.00
C285   C     0.26363   0.69389   0.26810   0.00000  Uiso   1.00
C286   C     0.93057   0.66921   0.28100   0.00000  Uiso   1.00
C287   C     0.90011   0.65055   0.21361   0.00000  Uiso   1.00
C288   C     0.87591   0.63538   0.33396   0.00000  Uiso   1.00
C289   C     0.82851   0.60587   0.47371   0.00000  Uiso   1.00
C290   C     0.97172   0.69412   0.50678   0.00000  Uiso   1.00
C291   C     0.93142   0.71211   0.41601   0.00000  Uiso   1.00
C292   C     0.90286   0.73019   0.49767   0.00000  Uiso   1.00
C293   C     0.86794   0.74478   0.39162   0.00000  Uiso   1.00
C294   C     0.03940   0.69338   0.41361   0.00000  Uiso   1.00
C295   C     0.10162   0.69571   0.49326   0.00000  Uiso   1.00
C296   C     0.15761   0.69453   0.38521   0.00000  Uiso   1.00
C297   C     0.93666   0.67260   0.46216   0.00000  Uiso   1.00
C298   C     0.91250   0.65745   0.58263   0.00000  Uiso   1.00
C299   C     0.88201   0.63877   0.51545   0.00000  Uiso   1.00
H300   H     0.95577   0.68524   0.03220   0.00000  Uiso   1.00
H301   H     0.88576   0.72066   0.98846   0.00000  Uiso   1.00
H302   H     0.08449   0.68618   0.98406   0.00000  Uiso   1.00
H303   H     0.89541   0.64793   0.07342   0.00000  Uiso   1.00
H304   H     0.81085   0.76142   0.01984   0.00000  Uiso   1.00
H305   H     0.22988   0.68872   0.01057   0.00000  Uiso   1.00
H306   H     0.83116   0.60806   0.19899   0.00000  Uiso   1.00
H307   H     0.97646   0.69676   0.64783   0.00000  Uiso   1.00
H308   H     0.90758   0.73281   0.63787   0.00000  Uiso   1.00
H309   H     0.10631   0.69833   0.63346   0.00000  Uiso   1.00
H310   H     0.91722   0.66008   0.72282   0.00000  Uiso   1.00
H311   H     0.82855   0.77128   0.54692   0.00000  Uiso   1.00
H312   H     0.24759   0.69858   0.53765   0.00000  Uiso   1.00
H313   H     0.84887   0.61792   0.72608   0.00000  Uiso   1.00
O314   O     0.77404   0.78986   0.26571   0.00000  Uiso   1.00
O315   O     0.32379   0.69448   0.25355   0.00000  Uiso   1.00
O316   O     0.80067   0.58865   0.50076   0.00000  Uiso   1.00
N317   N     0.82446   0.75879   0.14526   0.00000  Uiso   1.00
N318   N     0.21623   0.69083   0.13659   0.00000  Uiso   1.00
N319   N     0.84347   0.61541   0.31275   0.00000  Uiso   1.00
N320   N     0.83398   0.76410   0.42888   0.00000  Uiso   1.00
N321   N     0.22576   0.69613   0.42021   0.00000  Uiso   1.00
N322   N     0.85300   0.62072   0.59637   0.00000  Uiso   1.00
C323   C     0.96051   0.18788   0.67325   0.00000  Uiso   1.00
C324   C     0.92533   0.20872   0.73485   0.00000  Uiso   1.00
C325   C     0.89046   0.22328   0.62865   0.00000  Uiso   1.00
C326   C     0.86185   0.24138   0.71013   0.00000  Uiso   1.00
C327   C     0.80633   0.27323   0.77821   0.00000  Uiso   1.00
C328   C     0.03331   0.18999   0.73245   0.00000  Uiso   1.00
C329   C     0.08922   0.18881   0.62425   0.00000  Uiso   1.00
C330   C     0.15151   0.19114   0.70372   0.00000  Uiso   1.00
C331   C     0.26363   0.19389   0.76810   0.00000  Uiso   1.00
C332   C     0.93057   0.16921   0.78100   0.00000  Uiso   1.00
C333   C     0.90011   0.15055   0.71361   0.00000  Uiso   1.00
C334   C     0.87591   0.13538   0.83396   0.00000  Uiso   1.00
C335   C     0.82851   0.10587   0.97371   0.00000  Uiso   1.00
C336   C     0.97172   0.19412   0.00678   0.00000  Uiso   1.00
C337   C     0.93142   0.21211   0.91601   0.00000  Uiso   1.00
C338   C     0.90286   0.23019   0.99767   0.00000  Uiso   1.00
C339   C     0.86794   0.24478   0.89162   0.00000  Uiso   1.00
C340   C     0.03940   0.19338   0.91361   0.00000  Uiso   1.00
C341   C     0.10162   0.19571   0.99326   0.00000  Uiso   1.00
C342   C     0.15761   0.19453   0.88521   0.00000  Uiso   1.00
C343   C     0.93666   0.17260   0.96216   0.00000  Uiso   1.00
C344   C     0.91250   0.15745   0.08263   0.00000  Uiso   1.00
C345   C     0.88201   0.13877   0.01545   0.00000  Uiso   1.00
H346   H     0.95577   0.18524   0.53220   0.00000  Uiso   1.00
H347   H     0.88576   0.22066   0.48846   0.00000  Uiso   1.00
H348   H     0.08449   0.18618   0.48406   0.00000  Uiso   1.00
H349   H     0.89541   0.14793   0.57342   0.00000  Uiso   1.00
H350   H     0.81085   0.26142   0.51984   0.00000  Uiso   1.00
H351   H     0.22988   0.18872   0.51057   0.00000  Uiso   1.00
H352   H     0.83116   0.10806   0.69899   0.00000  Uiso   1.00
H353   H     0.97646   0.19676   0.14783   0.00000  Uiso   1.00
H354   H     0.90758   0.23281   0.13787   0.00000  Uiso   1.00
H355   H     0.10631   0.19833   0.13346   0.00000  Uiso   1.00
H356   H     0.91722   0.16008   0.22282   0.00000  Uiso   1.00
H357   H     0.82855   0.27128   0.04692   0.00000  Uiso   1.00
H358   H     0.24759   0.19858   0.03765   0.00000  Uiso   1.00
H359   H     0.84887   0.11792   0.22608   0.00000  Uiso   1.00
O360   O     0.77404   0.28986   0.76571   0.00000  Uiso   1.00
O361   O     0.32379   0.19448   0.75355   0.00000  Uiso   1.00
O362   O     0.80067   0.08865   0.00076   0.00000  Uiso   1.00
N363   N     0.82446   0.25879   0.64526   0.00000  Uiso   1.00
N364   N     0.21623   0.19083   0.63659   0.00000  Uiso   1.00
N365   N     0.84347   0.11541   0.81275   0.00000  Uiso   1.00
N366   N     0.83398   0.26410   0.92888   0.00000  Uiso   1.00
N367   N     0.22576   0.19613   0.92021   0.00000  Uiso   1.00
N368   N     0.85300   0.12072   0.09637   0.00000  Uiso   1.00
C369   C     0.78949   0.93788   0.92325   0.00000  Uiso   1.00
C370   C     0.82467   0.95872   0.98485   0.00000  Uiso   1.00
C371   C     0.85954   0.97328   0.87865   0.00000  Uiso   1.00
C372   C     0.88815   0.99138   0.96013   0.00000  Uiso   1.00
C373   C     0.94367   0.02323   0.02821   0.00000  Uiso   1.00
C374   C     0.71669   0.93999   0.98245   0.00000  Uiso   1.00
C375   C     0.66078   0.93881   0.87425   0.00000  Uiso   1.00
C376   C     0.59849   0.94114   0.95372   0.00000  Uiso   1.00
C377   C     0.48637   0.94389   0.01810   0.00000  Uiso   1.00
C378   C     0.81943   0.91921   0.03100   0.00000  Uiso   1.00
C379   C     0.84989   0.90055   0.96361   0.00000  Uiso   1.00
C380   C     0.87409   0.88538   0.08396   0.00000  Uiso   1.00
C381   C     0.92149   0.85587   0.22371   0.00000  Uiso   1.00
C382   C     0.77828   0.94412   0.25678   0.00000  Uiso   1.00
C383   C     0.81858   0.96211   0.16601   0.00000  Uiso   1.00
C384   C     0.84714   0.98019   0.24767   0.00000  Uiso   1.00
C385   C     0.88206   0.99478   0.14162   0.00000  Uiso   1.00
C386   C     0.71060   0.94338   0.16361   0.00000  Uiso   1.00
C387   C     0.64838   0.94571   0.24326   0.00000  Uiso   1.00
C388   C     0.59239   0.94453   0.13521   0.00000  Uiso   1.00
C389   C     0.81334   0.92260   0.21216   0.00000  Uiso   1.00
C390   C     0.83750   0.90745   0.33263   0.00000  Uiso   1.00
C391   C     0.86799   0.88877   0.26545   0.00000  Uiso   1.00
H392   H     0.79423   0.93524   0.78220   0.00000  Uiso   1.00
H393   H     0.86424   0.97066   0.73846   0.00000  Uiso   1.00
H394   H     0.66551   0.93618   0.73406   0.00000  Uiso   1.00
H395   H     0.85459   0.89793   0.82342   0.00000  Uiso   1.00
H396   H     0.93915   0.01142   0.76984   0.00000  Uiso   1.00
H397   H     0.52012   0.93872   0.76057   0.00000  Uiso   1.00
H398   H     0.91884   0.85806   0.94899   0.00000  Uiso   1.00
H399   H     0.77354   0.94676   0.39783   0.00000  Uiso   1.00
H400   H     0.84242   0.98281   0.38787   0.00000  Uiso   1.00
H401   H     0.64369   0.94833   0.38346   0.00000  Uiso   1.00
H402   H     0.83278   0.91008   0.47282   0.00000  Uiso   1.00
H403   H     0.92145   0.02128   0.29692   0.00000  Uiso   1.00
H404   H     0.50241   0.94858   0.28765   0.00000  Uiso   1.00
H405   H     0.90113   0.86792   0.47608   0.00000  Uiso   1.00
O406   O     0.97596   0.03986   0.01571   0.00000  Uiso   1.00
O407   O     0.42621   0.94448   0.00355   0.00000  Uiso   1.00
O408   O     0.94933   0.83865   0.25076   0.00000  Uiso   1.00
N409   N     0.92554   0.00879   0.89526   0.00000  Uiso   1.00
N410   N     0.53377   0.94083   0.88659   0.00000  Uiso   1.00
N411   N     0.90653   0.86541   0.06275   0.00000  Uiso   1.00
N412   N     0.91602   0.01410   0.17888   0.00000  Uiso   1.00
N413   N     0.52424   0.94613   0.17021   0.00000  Uiso   1.00
N414   N     0.89700   0.87072   0.34637   0.00000  Uiso   1.00
C415   C     0.78949   0.43788   0.42325   0.00000  Uiso   1.00
C416   C     0.82467   0.45872   0.48485   0.00000  Uiso   1.00
C417   C     0.85954   0.47328   0.37865   0.00000  Uiso   1.00
C418   C     0.88815   0.49138   0.46013   0.00000  Uiso   1.00
C419   C     0.94367   0.52323   0.52821   0.00000  Uiso   1.00
C420   C     0.71669   0.43999   0.48245   0.00000  Uiso   1.00
C421   C     0.66078   0.43881   0.37425   0.00000  Uiso   1.00
C422   C     0.59849   0.44114   0.45372   0.00000  Uiso   1.00
C423   C     0.48637   0.44389   0.51810   0.00000  Uiso   1.00
C424   C     0.81943   0.41921   0.53100   0.00000  Uiso   1.00
C425   C     0.84989   0.40055   0.46361   0.00000  Uiso   1.00
C426   C     0.87409   0.38538   0.58396   0.00000  Uiso   1.00
C427   C     0.92149   0.35587   0.72371   0.00000  Uiso   1.00
C428   C     0.77828   0.44412   0.75678   0.00000  Uiso   1.00
C429   C     0.81858   0.46211   0.66601   0.00000  Uiso   1.00
C430   C     0.84714   0.48019   0.74767   0.00000  Uiso   1.00
C431   C     0.88206   0.49478   0.64162   0.00000  Uiso   1.00
C432   C     0.71060   0.44338   0.66361   0.00000  Uiso   1.00
C433   C     0.64838   0.44571   0.74326   0.00000  Uiso   1.00
C434   C     0.59239   0.44453   0.63521   0.00000  Uiso   1.00
C435   C     0.81334   0.42260   0.71216   0.00000  Uiso   1.00
C436   C     0.83750   0.40745   0.83263   0.00000  Uiso   1.00
C437   C     0.86799   0.38877   0.76545   0.00000  Uiso   1.00
H438   H     0.79423   0.43524   0.28220   0.00000  Uiso   1.00
H439   H     0.86424   0.47066   0.23846   0.00000  Uiso   1.00
H440   H     0.66551   0.43618   0.23406   0.00000  Uiso   1.00
H441   H     0.85459   0.39793   0.32342   0.00000  Uiso   1.00
H442   H     0.93915   0.51142   0.26984   0.00000  Uiso   1.00
H443   H     0.52012   0.43872   0.26057   0.00000  Uiso   1.00
H444   H     0.91884   0.35806   0.44899   0.00000  Uiso   1.00
H445   H     0.77354   0.44676   0.89783   0.00000  Uiso   1.00
H446   H     0.84242   0.48281   0.88787   0.00000  Uiso   1.00
H447   H     0.64369   0.44833   0.88346   0.00000  Uiso   1.00
H448   H     0.83278   0.41008   0.97282   0.00000  Uiso   1.00
H449   H     0.92145   0.52128   0.79692   0.00000  Uiso   1.00
H450   H     0.50241   0.44858   0.78765   0.00000  Uiso   1.00
H451   H     0.90113   0.36792   0.97608   0.00000  Uiso   1.00
O452   O     0.97596   0.53986   0.51571   0.00000  Uiso   1.00
O453   O     0.42621   0.44448   0.50355   0.00000  Uiso   1.00
O454   O     0.94933   0.33865   0.75076   0.00000  Uiso   1.00
N455   N     0.92554   0.50879   0.39526   0.00000  Uiso   1.00
N456   N     0.53377   0.44083   0.38659   0.00000  Uiso   1.00
N457   N     0.90653   0.36541   0.56275   0.00000  Uiso   1.00
N458   N     0.91602   0.51410   0.67888   0.00000  Uiso   1.00
N459   N     0.52424   0.44613   0.67021   0.00000  Uiso   1.00
N460   N     0.89700   0.37072   0.84637   0.00000  Uiso   1.00
C461   C     0.28949   0.93788   0.42325   0.00000  Uiso   1.00
C462   C     0.32467   0.95872   0.48485   0.00000  Uiso   1.00
C463   C     0.35954   0.97328   0.37865   0.00000  Uiso   1.00
C464   C     0.38815   0.99138   0.46013   0.00000  Uiso   1.00
C465   C     0.44367   0.02323   0.52821   0.00000  Uiso   1.00
C466   C     0.21669   0.93999   0.48245   0.00000  Uiso   1.00
C467   C     0.16078   0.93881   0.37425   0.00000  Uiso   1.00
C468   C     0.09849   0.94114   0.45372   0.00000  Uiso   1.00
C469   C     0.98637   0.94389   0.51810   0.00000  Uiso   1.00
C470   C     0.31943   0.91921   0.53100   0.00000  Uiso   1.00
C471   C     0.34989   0.90055   0.46361   0.00000  Uiso   1.00
C472   C     0.37409   0.88538   0.58396   0.00000  Uiso   1.00
C473   C     0.42149   0.85587   0.72371   0.00000  Uiso   1.00
C474   C     0.27828   0.94412   0.75678   0.00000  Uiso   1.00
C475   C     0.31858   0.96211   0.66601   0.00000  Uiso   1.00
C476   C     0.34714   0.98019   0.74767   0.00000  Uiso   1.00
C477   C     0.38206   0.99478   0.64162   0.00000  Uiso   1.00
C478   C     0.21060   0.94338   0.66361   0.00000  Uiso   1.00
C479   C     0.14838   0.94571   0.74326   0.00000  Uiso   1.00
C480   C     0.09239   0.94453   0.63521   0.00000  Uiso   1.00
C481   C     0.31334   0.92260   0.71216   0.00000  Uiso   1.00
C482   C     0.33750   0.90745   0.83263   0.00000  Uiso   1.00
C483   C     0.36799   0.88877   0.76545   0.00000  Uiso   1.00
H484   H     0.29423   0.93524   0.28220   0.00000  Uiso   1.00
H485   H     0.36424   0.97066   0.23846   0.00000  Uiso   1.00
H486   H     0.16551   0.93618   0.23406   0.00000  Uiso   1.00
H487   H     0.35459   0.89793   0.32342   0.00000  Uiso   1.00
H488   H     0.43915   0.01142   0.26984   0.00000  Uiso   1.00
H489   H     0.02012   0.93872   0.26057   0.00000  Uiso   1.00
H490   H     0.41884   0.85806   0.44899   0.00000  Uiso   1.00
H491   H     0.27354   0.94676   0.89783   0.00000  Uiso   1.00
H492   H     0.34242   0.98281   0.88787   0.00000  Uiso   1.00
H493   H     0.14369   0.94833   0.88346   0.00000  Uiso   1.00
H494   H     0.33278   0.91008   0.97282   0.00000  Uiso   1.00
H495   H     0.42145   0.02128   0.79692   0.00000  Uiso   1.00
H496   H     0.00241   0.94858   0.78765   0.00000  Uiso   1.00
H497   H     0.40113   0.86792   0.97608   0.00000  Uiso   1.00
O498   O     0.47596   0.03986   0.51571   0.00000  Uiso   1.00
O499   O     0.92621   0.94448   0.50355   0.00000  Uiso   1.00
O500   O     0.44933   0.83865   0.75076   0.00000  Uiso   1.00
N501   N     0.42554   0.00879   0.39526   0.00000  Uiso   1.00
N502   N     0.03377   0.94083   0.38659   0.00000  Uiso   1.00
N503   N     0.40653   0.86541   0.56275   0.00000  Uiso   1.00
N504   N     0.41602   0.01410   0.67888   0.00000  Uiso   1.00
N505   N     0.02424   0.94613   0.67021   0.00000  Uiso   1.00
N506   N     0.39700   0.87072   0.84637   0.00000  Uiso   1.00
C507   C     0.28949   0.43788   0.92325   0.00000  Uiso   1.00
C508   C     0.32467   0.45872   0.98485   0.00000  Uiso   1.00
C509   C     0.35954   0.47328   0.87865   0.00000  Uiso   1.00
C510   C     0.38815   0.49138   0.96013   0.00000  Uiso   1.00
C511   C     0.44367   0.52323   0.02821   0.00000  Uiso   1.00
C512   C     0.21669   0.43999   0.98245   0.00000  Uiso   1.00
C513   C     0.16078   0.43881   0.87425   0.00000  Uiso   1.00
C514   C     0.09849   0.44114   0.95372   0.00000  Uiso   1.00
C515   C     0.98637   0.44389   0.01810   0.00000  Uiso   1.00
C516   C     0.31943   0.41921   0.03100   0.00000  Uiso   1.00
C517   C     0.34989   0.40055   0.96361   0.00000  Uiso   1.00
C518   C     0.37409   0.38538   0.08396   0.00000  Uiso   1.00
C519   C     0.42149   0.35587   0.22371   0.00000  Uiso   1.00
C520   C     0.27828   0.44412   0.25678   0.00000  Uiso   1.00
C521   C     0.31858   0.46211   0.16601   0.00000  Uiso   1.00
C522   C     0.34714   0.48019   0.24767   0.00000  Uiso   1.00
C523   C     0.38206   0.49478   0.14162   0.00000  Uiso   1.00
C524   C     0.21060   0.44338   0.16361   0.00000  Uiso   1.00
C525   C     0.14838   0.44571   0.24326   0.00000  Uiso   1.00
C526   C     0.09239   0.44453   0.13521   0.00000  Uiso   1.00
C527   C     0.31334   0.42260   0.21216   0.00000  Uiso   1.00
C528   C     0.33750   0.40745   0.33263   0.00000  Uiso   1.00
C529   C     0.36799   0.38877   0.26545   0.00000  Uiso   1.00
H530   H     0.29423   0.43524   0.78220   0.00000  Uiso   1.00
H531   H     0.36424   0.47066   0.73846   0.00000  Uiso   1.00
H532   H     0.16551   0.43618   0.73406   0.00000  Uiso   1.00
H533   H     0.35459   0.39793   0.82342   0.00000  Uiso   1.00
H534   H     0.43915   0.51142   0.76984   0.00000  Uiso   1.00
H535   H     0.02012   0.43872   0.76057   0.00000  Uiso   1.00
H536   H     0.41884   0.35806   0.94899   0.00000  Uiso   1.00
H537   H     0.27354   0.44676   0.39783   0.00000  Uiso   1.00
H538   H     0.34242   0.48281   0.38787   0.00000  Uiso   1.00
H539   H     0.14369   0.44833   0.38346   0.00000  Uiso   1.00
H540   H     0.33278   0.41008   0.47282   0.00000  Uiso   1.00
H541   H     0.42145   0.52128   0.29692   0.00000  Uiso   1.00
H542   H     0.00241   0.44858   0.28765   0.00000  Uiso   1.00
H543   H     0.40113   0.36792   0.47608   0.00000  Uiso   1.00
O544   O     0.47596   0.53986   0.01571   0.00000  Uiso   1.00
O545   O     0.92621   0.44448   0.00355   0.00000  Uiso   1.00
O546   O     0.44933   0.33865   0.25076   0.00000  Uiso   1.00
N547   N     0.42554   0.50879   0.89526   0.00000  Uiso   1.00
N548   N     0.03377   0.44083   0.88659   0.00000  Uiso   1.00
N549   N     0.40653   0.36541   0.06275   0.00000  Uiso   1.00
N550   N     0.41602   0.51410   0.17888   0.00000  Uiso   1.00
N551   N     0.02424   0.44613   0.17021   0.00000  Uiso   1.00
N552   N     0.39700   0.37072   0.34637   0.00000  Uiso   1.00
C553   C     0.71051   0.56212   0.92325   0.00000  Uiso   1.00
C554   C     0.67533   0.54128   0.98485   0.00000  Uiso   1.00
C555   C     0.64046   0.52672   0.87865   0.00000  Uiso   1.00
C556   C     0.61185   0.50862   0.96013   0.00000  Uiso   1.00
C557   C     0.55633   0.47677   0.02821   0.00000  Uiso   1.00
C558   C     0.78331   0.56001   0.98245   0.00000  Uiso   1.00
C559   C     0.83922   0.56119   0.87425   0.00000  Uiso   1.00
C560   C     0.90151   0.55886   0.95372   0.00000  Uiso   1.00
C561   C     0.01363   0.55611   0.01810   0.00000  Uiso   1.00
C562   C     0.68057   0.58079   0.03100   0.00000  Uiso   1.00
C563   C     0.65011   0.59945   0.96361   0.00000  Uiso   1.00
C564   C     0.62591   0.61462   0.08396   0.00000  Uiso   1.00
C565   C     0.57851   0.64413   0.22371   0.00000  Uiso   1.00
C566   C     0.72172   0.55588   0.25678   0.00000  Uiso   1.00
C567   C     0.68142   0.53789   0.16601   0.00000  Uiso   1.00
C568   C     0.65286   0.51981   0.24767   0.00000  Uiso   1.00
C569   C     0.61794   0.50522   0.14162   0.00000  Uiso   1.00
C570   C     0.78940   0.55662   0.16361   0.00000  Uiso   1.00
C571   C     0.85162   0.55429   0.24326   0.00000  Uiso   1.00
C572   C     0.90761   0.55547   0.13521   0.00000  Uiso   1.00
C573   C     0.68666   0.57740   0.21216   0.00000  Uiso   1.00
C574   C     0.66250   0.59255   0.33263   0.00000  Uiso   1.00
C575   C     0.63201   0.61123   0.26545   0.00000  Uiso   1.00
H576   H     0.70577   0.56476   0.78220   0.00000  Uiso   1.00
H577   H     0.63576   0.52934   0.73846   0.00000  Uiso   1.00
H578   H     0.83449   0.56382   0.73406   0.00000  Uiso   1.00
H579   H     0.64541   0.60207   0.82342   0.00000  Uiso   1.00
H580   H     0.56085   0.48858   0.76984   0.00000  Uiso   1.00
H581   H     0.97988   0.56128   0.76057   0.00000  Uiso   1.00
H582   H     0.58116   0.64194   0.94899   0.00000  Uiso   1.00
H583   H     0.72646   0.55324   0.39783   0.00000  Uiso   1.00
H584   H     0.65758   0.51719   0.38787   0.00000  Uiso   1.00
H585   H     0.85631   0.55167   0.38346   0.00000  Uiso   1.00
H586   H     0.66722   0.58992   0.47282   0.00000  Uiso   1.00
H587   H     0.57855   0.47872   0.29692   0.00000  Uiso   1.00
H588   H     0.99759   0.55142   0.28765   0.00000  Uiso   1.00
H589   H     0.59887   0.63208   0.47608   0.00000  Uiso   1.00
O590   O     0.52404   0.46014   0.01571   0.00000  Uiso   1.00
O591   O     0.07379   0.55552   0.00355   0.00000  Uiso   1.00
O592   O     0.55067   0.66135   0.25076   0.00000  Uiso   1.00
N593   N     0.57446   0.49121   0.89526   0.00000  Uiso   1.00
N594   N     0.96623   0.55917   0.88659   0.00000  Uiso   1.00
N595   N     0.59347   0.63459   0.06275   0.00000  Uiso   1.00
N596   N     0.58398   0.48590   0.17888   0.00000  Uiso   1.00
N597   N     0.97576   0.55387   0.17021   0.00000  Uiso   1.00
N598   N     0.60300   0.62928   0.34637   0.00000  Uiso   1.00
C599   C     0.71051   0.06212   0.42325   0.00000  Uiso   1.00
C600   C     0.67533   0.04128   0.48485   0.00000  Uiso   1.00
C601   C     0.64046   0.02672   0.37865   0.00000  Uiso   1.00
C602   C     0.61185   0.00862   0.46013   0.00000  Uiso   1.00
C603   C     0.55633   0.97677   0.52821   0.00000  Uiso   1.00
C604   C     0.78331   0.06001   0.48245   0.00000  Uiso   1.00
C605   C     0.83922   0.06119   0.37425   0.00000  Uiso   1.00
C606   C     0.90151   0.05886   0.45372   0.00000  Uiso   1.00
C607   C     0.01363   0.05611   0.51810   0.00000  Uiso   1.00
C608   C     0.68057   0.08079   0.53100   0.00000  Uiso   1.00
C609   C     0.65011   0.09945   0.46361   0.00000  Uiso   1.00
C610   C     0.62591   0.11462   0.58396   0.00000  Uiso   1.00
C611   C     0.57851   0.14413   0.72371   0.00000  Uiso   1.00
C612   C     0.72172   0.05588   0.75678   0.00000  Uiso   1.00
C613   C     0.68142   0.03789   0.66601   0.00000  Uiso   1.00
C614   C     0.65286   0.01981   0.74767   0.00000  Uiso   1.00
C615   C     0.61794   0.00522   0.64162   0.00000  Uiso   1.00
C616   C     0.78940   0.05662   0.66361   0.00000  Uiso   1.00
C617   C     0.85162   0.05429   0.74326   0.00000  Uiso   1.00
C618   C     0.90761   0.05547   0.63521   0.00000  Uiso   1.00
C619   C     0.68666   0.07740   0.71216   0.00000  Uiso   1.00
C620   C     0.66250   0.09255   0.83263   0.00000  Uiso   1.00
C621   C     0.63201   0.11123   0.76545   0.00000  Uiso   1.00
H622   H     0.70577   0.06476   0.28220   0.00000  Uiso   1.00
H623   H     0.63576   0.02934   0.23846   0.00000  Uiso   1.00
H624   H     0.83449   0.06382   0.23406   0.00000  Uiso   1.00
H625   H     0.64541   0.10207   0.32342   0.00000  Uiso   1.00
H626   H     0.56085   0.98858   0.26984   0.00000  Uiso   1.00
H627   H     0.97988   0.06128   0.26057   0.00000  Uiso   1.00
H628   H     0.58116   0.14194   0.44899   0.00000  Uiso   1.00
H629   H     0.72646   0.05324   0.89783   0.00000  Uiso   1.00
H630   H     0.65758   0.01719   0.88787   0.00000  Uiso   1.00
H631   H     0.85631   0.05167   0.88346   0.00000  Uiso   1.00
H632   H     0.66722   0.08992   0.97282   0.00000  Uiso   1.00
H633   H     0.57855   0.97872   0.79692   0.00000  Uiso   1.00
H634   H     0.99759   0.05142   0.78765   0.00000  Uiso   1.00
H635   H     0.59887   0.13208   0.97608   0.00000  Uiso   1.00
O636   O     0.52404   0.96014   0.51571   0.00000  Uiso   1.00
O637   O     0.07379   0.05552   0.50355   0.00000  Uiso   1.00
O638   O     0.55067   0.16135   0.75076   0.00000  Uiso   1.00
N639   N     0.57446   0.99121   0.39526   0.00000  Uiso   1.00
N640   N     0.96623   0.05917   0.38659   0.00000  Uiso   1.00
N641   N     0.59347   0.13459   0.56275   0.00000  Uiso   1.00
N642   N     0.58398   0.98590   0.67888   0.00000  Uiso   1.00
N643   N     0.97576   0.05387   0.67021   0.00000  Uiso   1.00
N644   N     0.60300   0.12928   0.84637   0.00000  Uiso   1.00
C645   C     0.21051   0.56212   0.42325   0.00000  Uiso   1.00
C646   C     0.17533   0.54128   0.48485   0.00000  Uiso   1.00
C647   C     0.14046   0.52672   0.37865   0.00000  Uiso   1.00
C648   C     0.11185   0.50862   0.46013   0.00000  Uiso   1.00
C649   C     0.05633   0.47677   0.52821   0.00000  Uiso   1.00
C650   C     0.28331   0.56001   0.48245   0.00000  Uiso   1.00
C651   C     0.33922   0.56119   0.37425   0.00000  Uiso   1.00
C652   C     0.40151   0.55886   0.45372   0.00000  Uiso   1.00
C653   C     0.51363   0.55611   0.51810   0.00000  Uiso   1.00
C654   C     0.18057   0.58079   0.53100   0.00000  Uiso   1.00
C655   C     0.15011   0.59945   0.46361   0.00000  Uiso   1.00
C656   C     0.12591   0.61462   0.58396   0.00000  Uiso   1.00
C657   C     0.07851   0.64413   0.72371   0.00000  Uiso   1.00
C658   C     0.22172   0.55588   0.75678   0.00000  Uiso   1.00
C659   C     0.18142   0.53789   0.66601   0.00000  Uiso   1.00
C660   C     0.15286   0.51981   0.74767   0.00000  Uiso   1.00
C661   C     0.11794   0.50522   0.64162   0.00000  Uiso   1.00
C662   C     0.28940   0.55662   0.66361   0.00000  Uiso   1.00
C663   C     0.35162   0.55429   0.74326   0.00000  Uiso   1.00
C664   C     0.40761   0.55547   0.63521   0.00000  Uiso   1.00
C665   C     0.18666   0.57740   0.71216   0.00000  Uiso   1.00
C666   C     0.16250   0.59255   0.83263   0.00000  Uiso   1.00
C667   C     0.13201   0.61123   0.76545   0.00000  Uiso   1.00
H668   H     0.20577   0.56476   0.28220   0.00000  Uiso   1.00
H669   H     0.13576   0.52934   0.23846   0.00000  Uiso   1.00
H670   H     0.33449   0.56382   0.23406   0.00000  Uiso   1.00
H671   H     0.14541   0.60207   0.32342   0.00000  Uiso   1.00
H672   H     0.06085   0.48858   0.26984   0.00000  Uiso   1.00
H673   H     0.47988   0.56128   0.26057   0.00000  Uiso   1.00
H674   H     0.08116   0.64194   0.44899   0.00000  Uiso   1.00
H675   H     0.22646   0.55324   0.89783   0.00000  Uiso   1.00
H676   H     0.15758   0.51719   0.88787   0.00000  Uiso   1.00
H677   H     0.35631   0.55167   0.88346   0.00000  Uiso   1.00
H678   H     0.16722   0.58992   0.97282   0.00000  Uiso   1.00
H679   H     0.07855   0.47872   0.79692   0.00000  Uiso   1.00
H680   H     0.49759   0.55142   0.78765   0.00000  Uiso   1.00
H681   H     0.09887   0.63208   0.97608   0.00000  Uiso   1.00
O682   O     0.02404   0.46014   0.51571   0.00000  Uiso   1.00
O683   O     0.57379   0.55552   0.50355   0.00000  Uiso   1.00
O684   O     0.05067   0.66135   0.75076   0.00000  Uiso   1.00
N685   N     0.07446   0.49121   0.39526   0.00000  Uiso   1.00
N686   N     0.46623   0.55917   0.38659   0.00000  Uiso   1.00
N687   N     0.09347   0.63459   0.56275   0.00000  Uiso   1.00
N688   N     0.08398   0.48590   0.67888   0.00000  Uiso   1.00
N689   N     0.47576   0.55387   0.67021   0.00000  Uiso   1.00
N690   N     0.10300   0.62928   0.84637   0.00000  Uiso   1.00
C691   C     0.21051   0.06212   0.92325   0.00000  Uiso   1.00
C692   C     0.17533   0.04128   0.98485   0.00000  Uiso   1.00
C693   C     0.14046   0.02672   0.87865   0.00000  Uiso   1.00
C694   C     0.11185   0.00862   0.96013   0.00000  Uiso   1.00
C695   C     0.05633   0.97677   0.02821   0.00000  Uiso   1.00
C696   C     0.28331   0.06001   0.98245   0.00000  Uiso   1.00
C697   C     0.33922   0.06119   0.87425   0.00000  Uiso   1.00
C698   C     0.40151   0.05886   0.95372   0.00000  Uiso   1.00
C699   C     0.51363   0.05611   0.01810   0.00000  Uiso   1.00
C700   C     0.18057   0.08079   0.03100   0.00000  Uiso   1.00
C701   C     0.15011   0.09945   0.96361   0.00000  Uiso   1.00
C702   C     0.12591   0.11462   0.08396   0.00000  Uiso   1.00
C703   C     0.07851   0.14413   0.22371   0.00000  Uiso   1.00
C704   C     0.22172   0.05588   0.25678   0.00000  Uiso   1.00
C705   C     0.18142   0.03789   0.16601   0.00000  Uiso   1.00
C706   C     0.15286   0.01981   0.24767   0.00000  Uiso   1.00
C707   C     0.11794   0.00522   0.14162   0.00000  Uiso   1.00
C708   C     0.28940   0.05662   0.16361   0.00000  Uiso   1.00
C709   C     0.35162   0.05429   0.24326   0.00000  Uiso   1.00
C710   C     0.40761   0.05547   0.13521   0.00000  Uiso   1.00
C711   C     0.18666   0.07740   0.21216   0.00000  Uiso   1.00
C712   C     0.16250   0.09255   0.33263   0.00000  Uiso   1.00
C713   C     0.13201   0.11123   0.26545   0.00000  Uiso   1.00
H714   H     0.20577   0.06476   0.78220   0.00000  Uiso   1.00
H715   H     0.13576   0.02934   0.73846   0.00000  Uiso   1.00
H716   H     0.33449   0.06382   0.73406   0.00000  Uiso   1.00
H717   H     0.14541   0.10207   0.82342   0.00000  Uiso   1.00
H718   H     0.06085   0.98858   0.76984   0.00000  Uiso   1.00
H719   H     0.47988   0.06128   0.76057   0.00000  Uiso   1.00
H720   H     0.08116   0.14194   0.94899   0.00000  Uiso   1.00
H721   H     0.22646   0.05324   0.39783   0.00000  Uiso   1.00
H722   H     0.15758   0.01719   0.38787   0.00000  Uiso   1.00
H723   H     0.35631   0.05167   0.38346   0.00000  Uiso   1.00
H724   H     0.16722   0.08992   0.47282   0.00000  Uiso   1.00
H725   H     0.07855   0.97872   0.29692   0.00000  Uiso   1.00
H726   H     0.49759   0.05142   0.28765   0.00000  Uiso   1.00
H727   H     0.09887   0.13208   0.47608   0.00000  Uiso   1.00
O728   O     0.02404   0.96014   0.01571   0.00000  Uiso   1.00
O729   O     0.57379   0.05552   0.00355   0.00000  Uiso   1.00
O730   O     0.05067   0.16135   0.25076   0.00000  Uiso   1.00
N731   N     0.07446   0.99121   0.89526   0.00000  Uiso   1.00
N732   N     0.46623   0.05917   0.88659   0.00000  Uiso   1.00
N733   N     0.09347   0.13459   0.06275   0.00000  Uiso   1.00
N734   N     0.08398   0.98590   0.17888   0.00000  Uiso   1.00
N735   N     0.47576   0.05387   0.17021   0.00000  Uiso   1.00
N736   N     0.10300   0.12928   0.34637   0.00000  Uiso   1.00
