data_job_03325
_audit_creation_date              2018-12-19
_audit_creation_method            'Materials Studio'
_symmetry_space_group_name_H-M    'P1'
_symmetry_Int_Tables_number       1
_symmetry_cell_setting            triclinic
loop_
_symmetry_equiv_pos_as_xyz
  x,y,z
_cell_length_a                    28.6286
_cell_length_b                    28.6286
_cell_length_c                    17.8547
_cell_angle_alpha                 90.0000
_cell_angle_beta                  90.0000
_cell_angle_gamma                 90.0000
loop_
_atom_site_label
_atom_site_type_symbol
_atom_site_fract_x
_atom_site_fract_y
_atom_site_fract_z
_atom_site_U_iso_or_equiv
_atom_site_adp_type
_atom_site_occupancy
C1     C     0.09615   0.70329   0.57586   0.00000  Uiso   1.00
C2     C     0.04704   0.70664   0.54323   0.00000  Uiso   1.00
C3     C     0.01174   0.73583   0.56869   0.00000  Uiso   1.00
C4     C     0.96927   0.73370   0.53131   0.00000  Uiso   1.00
C5     C     0.89405   0.74349   0.48989   0.00000  Uiso   1.00
C6     C     0.10322   0.65213   0.59674   0.00000  Uiso   1.00
C7     C     0.11517   0.63548   0.66718   0.00000  Uiso   1.00
C8     C     0.12000   0.58746   0.67484   0.00000  Uiso   1.00
C9     C     0.13204   0.51261   0.71648   0.00000  Uiso   1.00
C10    C     0.12951   0.71294   0.51111   0.00000  Uiso   1.00
C11    C     0.16357   0.74742   0.50956   0.00000  Uiso   1.00
C12    C     0.19054   0.75059   0.44513   0.00000  Uiso   1.00
C13    C     0.24339   0.77017   0.35381   0.00000  Uiso   1.00
C14    C     0.08348   0.64761   0.46420   0.00000  Uiso   1.00
C15    C     0.04016   0.67639   0.48258   0.00000  Uiso   1.00
C16    C     0.99773   0.67422   0.44515   0.00000  Uiso   1.00
C17    C     0.96238   0.70340   0.47055   0.00000  Uiso   1.00
C18    C     0.09634   0.62188   0.53609   0.00000  Uiso   1.00
C19    C     0.10116   0.57387   0.54364   0.00000  Uiso   1.00
C20    C     0.11310   0.55716   0.61408   0.00000  Uiso   1.00
C21    C     0.12263   0.68270   0.45045   0.00000  Uiso   1.00
C22    C     0.14955   0.68581   0.38601   0.00000  Uiso   1.00
C23    C     0.18365   0.72029   0.38437   0.00000  Uiso   1.00
H24    H     0.10150   0.72683   0.62309   0.00000  Uiso   1.00
H25    H     0.01708   0.75923   0.61564   0.00000  Uiso   1.00
H26    H     0.12049   0.65890   0.71411   0.00000  Uiso   1.00
H27    H     0.16888   0.77082   0.55650   0.00000  Uiso   1.00
H28    H     0.92044   0.78179   0.58065   0.00000  Uiso   1.00
H29    H     0.13851   0.57024   0.78827   0.00000  Uiso   1.00
H30    H     0.24055   0.80625   0.45594   0.00000  Uiso   1.00
H31    H     0.07813   0.62406   0.41698   0.00000  Uiso   1.00
H32    H     0.99242   0.65081   0.39822   0.00000  Uiso   1.00
H33    H     0.09583   0.55048   0.49669   0.00000  Uiso   1.00
H34    H     0.14422   0.66240   0.33909   0.00000  Uiso   1.00
H35    H     0.90042   0.69380   0.40418   0.00000  Uiso   1.00
H36    H     0.11849   0.48224   0.61181   0.00000  Uiso   1.00
H37    H     0.22053   0.71825   0.27948   0.00000  Uiso   1.00
O38    O     0.85446   0.75724   0.48381   0.00000  Uiso   1.00
O39    O     0.14057   0.47969   0.75620   0.00000  Uiso   1.00
O40    O     0.27444   0.78933   0.32019   0.00000  Uiso   1.00
N41    N     0.92749   0.75742   0.54168   0.00000  Uiso   1.00
N42    N     0.13137   0.55962   0.73580   0.00000  Uiso   1.00
N43    N     0.22677   0.78027   0.42511   0.00000  Uiso   1.00
N44    N     0.91672   0.71007   0.44673   0.00000  Uiso   1.00
N45    N     0.12060   0.51228   0.64085   0.00000  Uiso   1.00
N46    N     0.21600   0.73292   0.33015   0.00000  Uiso   1.00
C47    C     0.90385   0.29671   0.57586   0.00000  Uiso   1.00
C48    C     0.95296   0.29336   0.54323   0.00000  Uiso   1.00
C49    C     0.98826   0.26417   0.56869   0.00000  Uiso   1.00
C50    C     0.03073   0.26630   0.53131   0.00000  Uiso   1.00
C51    C     0.10595   0.25651   0.48989   0.00000  Uiso   1.00
C52    C     0.89678   0.34787   0.59674   0.00000  Uiso   1.00
C53    C     0.88483   0.36452   0.66718   0.00000  Uiso   1.00
C54    C     0.88000   0.41254   0.67484   0.00000  Uiso   1.00
C55    C     0.86796   0.48739   0.71648   0.00000  Uiso   1.00
C56    C     0.87049   0.28706   0.51111   0.00000  Uiso   1.00
C57    C     0.83643   0.25258   0.50956   0.00000  Uiso   1.00
C58    C     0.80946   0.24941   0.44513   0.00000  Uiso   1.00
C59    C     0.75661   0.22983   0.35381   0.00000  Uiso   1.00
C60    C     0.91652   0.35239   0.46420   0.00000  Uiso   1.00
C61    C     0.95984   0.32361   0.48258   0.00000  Uiso   1.00
C62    C     0.00227   0.32578   0.44515   0.00000  Uiso   1.00
C63    C     0.03762   0.29660   0.47055   0.00000  Uiso   1.00
C64    C     0.90366   0.37812   0.53609   0.00000  Uiso   1.00
C65    C     0.89884   0.42613   0.54364   0.00000  Uiso   1.00
C66    C     0.88690   0.44284   0.61408   0.00000  Uiso   1.00
C67    C     0.87737   0.31730   0.45045   0.00000  Uiso   1.00
C68    C     0.85045   0.31419   0.38601   0.00000  Uiso   1.00
C69    C     0.81635   0.27971   0.38437   0.00000  Uiso   1.00
H70    H     0.89850   0.27317   0.62309   0.00000  Uiso   1.00
H71    H     0.98292   0.24077   0.61564   0.00000  Uiso   1.00
H72    H     0.87951   0.34110   0.71411   0.00000  Uiso   1.00
H73    H     0.83112   0.22918   0.55650   0.00000  Uiso   1.00
H74    H     0.07956   0.21821   0.58065   0.00000  Uiso   1.00
H75    H     0.86149   0.42976   0.78827   0.00000  Uiso   1.00
H76    H     0.75945   0.19375   0.45594   0.00000  Uiso   1.00
H77    H     0.92187   0.37594   0.41698   0.00000  Uiso   1.00
H78    H     0.00758   0.34919   0.39822   0.00000  Uiso   1.00
H79    H     0.90417   0.44952   0.49669   0.00000  Uiso   1.00
H80    H     0.85578   0.33760   0.33909   0.00000  Uiso   1.00
H81    H     0.09958   0.30620   0.40418   0.00000  Uiso   1.00
H82    H     0.88151   0.51776   0.61181   0.00000  Uiso   1.00
H83    H     0.77947   0.28175   0.27948   0.00000  Uiso   1.00
O84    O     0.14554   0.24276   0.48381   0.00000  Uiso   1.00
O85    O     0.85943   0.52031   0.75620   0.00000  Uiso   1.00
O86    O     0.72556   0.21067   0.32019   0.00000  Uiso   1.00
N87    N     0.07251   0.24258   0.54168   0.00000  Uiso   1.00
N88    N     0.86863   0.44038   0.73580   0.00000  Uiso   1.00
N89    N     0.77323   0.21973   0.42511   0.00000  Uiso   1.00
N90    N     0.08328   0.28993   0.44673   0.00000  Uiso   1.00
N91    N     0.87940   0.48772   0.64085   0.00000  Uiso   1.00
N92    N     0.78400   0.26708   0.33015   0.00000  Uiso   1.00
C93    C     0.79671   0.59615   0.57586   0.00000  Uiso   1.00
C94    C     0.79336   0.54704   0.54323   0.00000  Uiso   1.00
C95    C     0.76417   0.51174   0.56869   0.00000  Uiso   1.00
C96    C     0.76630   0.46927   0.53131   0.00000  Uiso   1.00
C97    C     0.75651   0.39405   0.48989   0.00000  Uiso   1.00
C98    C     0.84787   0.60322   0.59674   0.00000  Uiso   1.00
C99    C     0.86452   0.61517   0.66718   0.00000  Uiso   1.00
C100   C     0.91254   0.62000   0.67484   0.00000  Uiso   1.00
C101   C     0.98739   0.63204   0.71648   0.00000  Uiso   1.00
C102   C     0.78706   0.62951   0.51111   0.00000  Uiso   1.00
C103   C     0.75258   0.66357   0.50956   0.00000  Uiso   1.00
C104   C     0.74941   0.69054   0.44513   0.00000  Uiso   1.00
C105   C     0.72983   0.74339   0.35381   0.00000  Uiso   1.00
C106   C     0.85239   0.58348   0.46420   0.00000  Uiso   1.00
C107   C     0.82361   0.54016   0.48258   0.00000  Uiso   1.00
C108   C     0.82578   0.49773   0.44515   0.00000  Uiso   1.00
C109   C     0.79660   0.46238   0.47055   0.00000  Uiso   1.00
C110   C     0.87812   0.59634   0.53609   0.00000  Uiso   1.00
C111   C     0.92613   0.60116   0.54364   0.00000  Uiso   1.00
C112   C     0.94284   0.61310   0.61408   0.00000  Uiso   1.00
C113   C     0.81730   0.62263   0.45045   0.00000  Uiso   1.00
C114   C     0.81419   0.64955   0.38601   0.00000  Uiso   1.00
C115   C     0.77971   0.68365   0.38437   0.00000  Uiso   1.00
H116   H     0.77317   0.60150   0.62309   0.00000  Uiso   1.00
H117   H     0.74077   0.51708   0.61564   0.00000  Uiso   1.00
H118   H     0.84110   0.62049   0.71411   0.00000  Uiso   1.00
H119   H     0.72918   0.66888   0.55650   0.00000  Uiso   1.00
H120   H     0.71821   0.42044   0.58065   0.00000  Uiso   1.00
H121   H     0.92976   0.63851   0.78827   0.00000  Uiso   1.00
H122   H     0.69375   0.74055   0.45594   0.00000  Uiso   1.00
H123   H     0.87594   0.57813   0.41698   0.00000  Uiso   1.00
H124   H     0.84919   0.49242   0.39822   0.00000  Uiso   1.00
H125   H     0.94952   0.59583   0.49669   0.00000  Uiso   1.00
H126   H     0.83760   0.64422   0.33909   0.00000  Uiso   1.00
H127   H     0.80620   0.40042   0.40418   0.00000  Uiso   1.00
H128   H     0.01776   0.61849   0.61181   0.00000  Uiso   1.00
H129   H     0.78175   0.72053   0.27948   0.00000  Uiso   1.00
O130   O     0.74276   0.35446   0.48381   0.00000  Uiso   1.00
O131   O     0.02031   0.64057   0.75620   0.00000  Uiso   1.00
O132   O     0.71067   0.77444   0.32019   0.00000  Uiso   1.00
N133   N     0.74258   0.42749   0.54168   0.00000  Uiso   1.00
N134   N     0.94038   0.63137   0.73580   0.00000  Uiso   1.00
N135   N     0.71973   0.72677   0.42511   0.00000  Uiso   1.00
N136   N     0.78993   0.41672   0.44673   0.00000  Uiso   1.00
N137   N     0.98772   0.62060   0.64085   0.00000  Uiso   1.00
N138   N     0.76708   0.71600   0.33015   0.00000  Uiso   1.00
C139   C     0.20329   0.40385   0.57586   0.00000  Uiso   1.00
C140   C     0.20664   0.45296   0.54323   0.00000  Uiso   1.00
C141   C     0.23583   0.48826   0.56869   0.00000  Uiso   1.00
C142   C     0.23370   0.53073   0.53131   0.00000  Uiso   1.00
C143   C     0.24349   0.60595   0.48989   0.00000  Uiso   1.00
C144   C     0.15213   0.39678   0.59674   0.00000  Uiso   1.00
C145   C     0.13548   0.38483   0.66718   0.00000  Uiso   1.00
C146   C     0.08746   0.38000   0.67484   0.00000  Uiso   1.00
C147   C     0.01261   0.36796   0.71648   0.00000  Uiso   1.00
C148   C     0.21294   0.37049   0.51111   0.00000  Uiso   1.00
C149   C     0.24742   0.33643   0.50956   0.00000  Uiso   1.00
C150   C     0.25059   0.30946   0.44513   0.00000  Uiso   1.00
C151   C     0.27017   0.25661   0.35381   0.00000  Uiso   1.00
C152   C     0.14761   0.41652   0.46420   0.00000  Uiso   1.00
C153   C     0.17639   0.45984   0.48258   0.00000  Uiso   1.00
C154   C     0.17422   0.50227   0.44515   0.00000  Uiso   1.00
C155   C     0.20340   0.53762   0.47055   0.00000  Uiso   1.00
C156   C     0.12188   0.40366   0.53609   0.00000  Uiso   1.00
C157   C     0.07387   0.39884   0.54364   0.00000  Uiso   1.00
C158   C     0.05716   0.38690   0.61408   0.00000  Uiso   1.00
C159   C     0.18270   0.37737   0.45045   0.00000  Uiso   1.00
C160   C     0.18581   0.35045   0.38601   0.00000  Uiso   1.00
C161   C     0.22029   0.31635   0.38437   0.00000  Uiso   1.00
H162   H     0.22683   0.39850   0.62309   0.00000  Uiso   1.00
H163   H     0.25923   0.48292   0.61564   0.00000  Uiso   1.00
H164   H     0.15890   0.37951   0.71411   0.00000  Uiso   1.00
H165   H     0.27082   0.33112   0.55650   0.00000  Uiso   1.00
H166   H     0.28179   0.57956   0.58065   0.00000  Uiso   1.00
H167   H     0.07024   0.36149   0.78827   0.00000  Uiso   1.00
H168   H     0.30625   0.25945   0.45594   0.00000  Uiso   1.00
H169   H     0.12406   0.42187   0.41698   0.00000  Uiso   1.00
H170   H     0.15081   0.50758   0.39822   0.00000  Uiso   1.00
H171   H     0.05048   0.40417   0.49669   0.00000  Uiso   1.00
H172   H     0.16240   0.35578   0.33909   0.00000  Uiso   1.00
H173   H     0.19380   0.59958   0.40418   0.00000  Uiso   1.00
H174   H     0.98224   0.38151   0.61181   0.00000  Uiso   1.00
H175   H     0.21825   0.27947   0.27948   0.00000  Uiso   1.00
O176   O     0.25724   0.64554   0.48381   0.00000  Uiso   1.00
O177   O     0.97969   0.35943   0.75620   0.00000  Uiso   1.00
O178   O     0.28933   0.22556   0.32019   0.00000  Uiso   1.00
N179   N     0.25742   0.57251   0.54168   0.00000  Uiso   1.00
N180   N     0.05962   0.36863   0.73580   0.00000  Uiso   1.00
N181   N     0.28027   0.27323   0.42511   0.00000  Uiso   1.00
N182   N     0.21007   0.58328   0.44673   0.00000  Uiso   1.00
N183   N     0.01228   0.37940   0.64085   0.00000  Uiso   1.00
N184   N     0.23292   0.28400   0.33015   0.00000  Uiso   1.00
C185   C     0.40385   0.20329   0.92414   0.00000  Uiso   1.00
C186   C     0.45296   0.20664   0.95677   0.00000  Uiso   1.00
C187   C     0.48826   0.23583   0.93131   0.00000  Uiso   1.00
C188   C     0.53073   0.23370   0.96869   0.00000  Uiso   1.00
C189   C     0.60595   0.24349   0.01011   0.00000  Uiso   1.00
C190   C     0.39678   0.15213   0.90326   0.00000  Uiso   1.00
C191   C     0.38483   0.13548   0.83282   0.00000  Uiso   1.00
C192   C     0.38000   0.08746   0.82516   0.00000  Uiso   1.00
C193   C     0.36796   0.01261   0.78352   0.00000  Uiso   1.00
C194   C     0.37049   0.21294   0.98889   0.00000  Uiso   1.00
C195   C     0.33643   0.24742   0.99044   0.00000  Uiso   1.00
C196   C     0.30946   0.25059   0.05487   0.00000  Uiso   1.00
C197   C     0.25661   0.27017   0.14619   0.00000  Uiso   1.00
C198   C     0.41652   0.14761   0.03580   0.00000  Uiso   1.00
C199   C     0.45984   0.17639   0.01742   0.00000  Uiso   1.00
C200   C     0.50227   0.17422   0.05485   0.00000  Uiso   1.00
C201   C     0.53762   0.20340   0.02945   0.00000  Uiso   1.00
C202   C     0.40366   0.12188   0.96391   0.00000  Uiso   1.00
C203   C     0.39884   0.07387   0.95636   0.00000  Uiso   1.00
C204   C     0.38690   0.05716   0.88592   0.00000  Uiso   1.00
C205   C     0.37737   0.18270   0.04955   0.00000  Uiso   1.00
C206   C     0.35045   0.18581   0.11399   0.00000  Uiso   1.00
C207   C     0.31635   0.22029   0.11563   0.00000  Uiso   1.00
H208   H     0.39850   0.22683   0.87691   0.00000  Uiso   1.00
H209   H     0.48292   0.25923   0.88436   0.00000  Uiso   1.00
H210   H     0.37951   0.15890   0.78589   0.00000  Uiso   1.00
H211   H     0.33112   0.27082   0.94350   0.00000  Uiso   1.00
H212   H     0.57956   0.28179   0.91935   0.00000  Uiso   1.00
H213   H     0.36149   0.07024   0.71173   0.00000  Uiso   1.00
H214   H     0.25945   0.30625   0.04406   0.00000  Uiso   1.00
H215   H     0.42187   0.12406   0.08302   0.00000  Uiso   1.00
H216   H     0.50758   0.15081   0.10178   0.00000  Uiso   1.00
H217   H     0.40417   0.05048   0.00331   0.00000  Uiso   1.00
H218   H     0.35578   0.16240   0.16091   0.00000  Uiso   1.00
H219   H     0.59958   0.19380   0.09582   0.00000  Uiso   1.00
H220   H     0.38151   0.98224   0.88819   0.00000  Uiso   1.00
H221   H     0.27947   0.21825   0.22052   0.00000  Uiso   1.00
O222   O     0.64554   0.25724   0.01619   0.00000  Uiso   1.00
O223   O     0.35943   0.97969   0.74380   0.00000  Uiso   1.00
O224   O     0.22556   0.28933   0.17981   0.00000  Uiso   1.00
N225   N     0.57251   0.25742   0.95832   0.00000  Uiso   1.00
N226   N     0.36863   0.05962   0.76420   0.00000  Uiso   1.00
N227   N     0.27323   0.28027   0.07489   0.00000  Uiso   1.00
N228   N     0.58328   0.21007   0.05327   0.00000  Uiso   1.00
N229   N     0.37940   0.01228   0.85915   0.00000  Uiso   1.00
N230   N     0.28400   0.23292   0.16985   0.00000  Uiso   1.00
C231   C     0.59615   0.79671   0.92414   0.00000  Uiso   1.00
C232   C     0.54704   0.79336   0.95677   0.00000  Uiso   1.00
C233   C     0.51174   0.76417   0.93131   0.00000  Uiso   1.00
C234   C     0.46927   0.76630   0.96869   0.00000  Uiso   1.00
C235   C     0.39405   0.75651   0.01011   0.00000  Uiso   1.00
C236   C     0.60322   0.84787   0.90326   0.00000  Uiso   1.00
C237   C     0.61517   0.86452   0.83282   0.00000  Uiso   1.00
C238   C     0.62000   0.91254   0.82516   0.00000  Uiso   1.00
C239   C     0.63204   0.98739   0.78352   0.00000  Uiso   1.00
C240   C     0.62951   0.78706   0.98889   0.00000  Uiso   1.00
C241   C     0.66357   0.75258   0.99044   0.00000  Uiso   1.00
C242   C     0.69054   0.74941   0.05487   0.00000  Uiso   1.00
C243   C     0.74339   0.72983   0.14619   0.00000  Uiso   1.00
C244   C     0.58348   0.85239   0.03580   0.00000  Uiso   1.00
C245   C     0.54016   0.82361   0.01742   0.00000  Uiso   1.00
C246   C     0.49773   0.82578   0.05485   0.00000  Uiso   1.00
C247   C     0.46238   0.79660   0.02945   0.00000  Uiso   1.00
C248   C     0.59634   0.87812   0.96391   0.00000  Uiso   1.00
C249   C     0.60116   0.92613   0.95636   0.00000  Uiso   1.00
C250   C     0.61310   0.94284   0.88592   0.00000  Uiso   1.00
C251   C     0.62263   0.81730   0.04955   0.00000  Uiso   1.00
C252   C     0.64955   0.81419   0.11399   0.00000  Uiso   1.00
C253   C     0.68365   0.77971   0.11563   0.00000  Uiso   1.00
H254   H     0.60150   0.77317   0.87691   0.00000  Uiso   1.00
H255   H     0.51708   0.74077   0.88436   0.00000  Uiso   1.00
H256   H     0.62049   0.84110   0.78589   0.00000  Uiso   1.00
H257   H     0.66888   0.72918   0.94350   0.00000  Uiso   1.00
H258   H     0.42044   0.71821   0.91935   0.00000  Uiso   1.00
H259   H     0.63851   0.92976   0.71173   0.00000  Uiso   1.00
H260   H     0.74055   0.69375   0.04406   0.00000  Uiso   1.00
H261   H     0.57813   0.87594   0.08302   0.00000  Uiso   1.00
H262   H     0.49242   0.84919   0.10178   0.00000  Uiso   1.00
H263   H     0.59583   0.94952   0.00331   0.00000  Uiso   1.00
H264   H     0.64422   0.83760   0.16091   0.00000  Uiso   1.00
H265   H     0.40042   0.80620   0.09582   0.00000  Uiso   1.00
H266   H     0.61849   0.01776   0.88819   0.00000  Uiso   1.00
H267   H     0.72053   0.78175   0.22052   0.00000  Uiso   1.00
O268   O     0.35446   0.74276   0.01619   0.00000  Uiso   1.00
O269   O     0.64057   0.02031   0.74380   0.00000  Uiso   1.00
O270   O     0.77444   0.71067   0.17981   0.00000  Uiso   1.00
N271   N     0.42749   0.74258   0.95832   0.00000  Uiso   1.00
N272   N     0.63137   0.94038   0.76420   0.00000  Uiso   1.00
N273   N     0.72677   0.71973   0.07489   0.00000  Uiso   1.00
N274   N     0.41672   0.78993   0.05327   0.00000  Uiso   1.00
N275   N     0.62060   0.98772   0.85915   0.00000  Uiso   1.00
N276   N     0.71600   0.76708   0.16985   0.00000  Uiso   1.00
C277   C     0.70329   0.09615   0.92414   0.00000  Uiso   1.00
C278   C     0.70664   0.04704   0.95677   0.00000  Uiso   1.00
C279   C     0.73583   0.01174   0.93131   0.00000  Uiso   1.00
C280   C     0.73370   0.96927   0.96869   0.00000  Uiso   1.00
C281   C     0.74349   0.89405   0.01011   0.00000  Uiso   1.00
C282   C     0.65213   0.10322   0.90326   0.00000  Uiso   1.00
C283   C     0.63548   0.11517   0.83282   0.00000  Uiso   1.00
C284   C     0.58746   0.12000   0.82516   0.00000  Uiso   1.00
C285   C     0.51261   0.13204   0.78352   0.00000  Uiso   1.00
C286   C     0.71294   0.12951   0.98889   0.00000  Uiso   1.00
C287   C     0.74742   0.16357   0.99044   0.00000  Uiso   1.00
C288   C     0.75059   0.19054   0.05487   0.00000  Uiso   1.00
C289   C     0.77017   0.24339   0.14619   0.00000  Uiso   1.00
C290   C     0.64761   0.08348   0.03580   0.00000  Uiso   1.00
C291   C     0.67639   0.04016   0.01742   0.00000  Uiso   1.00
C292   C     0.67422   0.99773   0.05485   0.00000  Uiso   1.00
C293   C     0.70340   0.96238   0.02945   0.00000  Uiso   1.00
C294   C     0.62188   0.09634   0.96391   0.00000  Uiso   1.00
C295   C     0.57387   0.10116   0.95636   0.00000  Uiso   1.00
C296   C     0.55716   0.11310   0.88592   0.00000  Uiso   1.00
C297   C     0.68270   0.12263   0.04955   0.00000  Uiso   1.00
C298   C     0.68581   0.14955   0.11399   0.00000  Uiso   1.00
C299   C     0.72029   0.18365   0.11563   0.00000  Uiso   1.00
H300   H     0.72683   0.10150   0.87691   0.00000  Uiso   1.00
H301   H     0.75923   0.01708   0.88436   0.00000  Uiso   1.00
H302   H     0.65890   0.12049   0.78589   0.00000  Uiso   1.00
H303   H     0.77082   0.16888   0.94350   0.00000  Uiso   1.00
H304   H     0.78179   0.92044   0.91935   0.00000  Uiso   1.00
H305   H     0.57024   0.13851   0.71173   0.00000  Uiso   1.00
H306   H     0.80625   0.24055   0.04406   0.00000  Uiso   1.00
H307   H     0.62406   0.07813   0.08302   0.00000  Uiso   1.00
H308   H     0.65081   0.99242   0.10178   0.00000  Uiso   1.00
H309   H     0.55048   0.09583   0.00331   0.00000  Uiso   1.00
H310   H     0.66240   0.14422   0.16091   0.00000  Uiso   1.00
H311   H     0.69380   0.90042   0.09582   0.00000  Uiso   1.00
H312   H     0.48224   0.11849   0.88819   0.00000  Uiso   1.00
H313   H     0.71825   0.22053   0.22052   0.00000  Uiso   1.00
O314   O     0.75724   0.85446   0.01619   0.00000  Uiso   1.00
O315   O     0.47969   0.14057   0.74380   0.00000  Uiso   1.00
O316   O     0.78933   0.27444   0.17981   0.00000  Uiso   1.00
N317   N     0.75742   0.92749   0.95832   0.00000  Uiso   1.00
N318   N     0.55962   0.13137   0.76420   0.00000  Uiso   1.00
N319   N     0.78027   0.22677   0.07489   0.00000  Uiso   1.00
N320   N     0.71007   0.91672   0.05327   0.00000  Uiso   1.00
N321   N     0.51228   0.12060   0.85915   0.00000  Uiso   1.00
N322   N     0.73292   0.21600   0.16985   0.00000  Uiso   1.00
C323   C     0.29671   0.90385   0.92414   0.00000  Uiso   1.00
C324   C     0.29336   0.95296   0.95677   0.00000  Uiso   1.00
C325   C     0.26417   0.98826   0.93131   0.00000  Uiso   1.00
C326   C     0.26630   0.03073   0.96869   0.00000  Uiso   1.00
C327   C     0.25651   0.10595   0.01011   0.00000  Uiso   1.00
C328   C     0.34787   0.89678   0.90326   0.00000  Uiso   1.00
C329   C     0.36452   0.88483   0.83282   0.00000  Uiso   1.00
C330   C     0.41254   0.88000   0.82516   0.00000  Uiso   1.00
C331   C     0.48739   0.86796   0.78352   0.00000  Uiso   1.00
C332   C     0.28706   0.87049   0.98889   0.00000  Uiso   1.00
C333   C     0.25258   0.83643   0.99044   0.00000  Uiso   1.00
C334   C     0.24941   0.80946   0.05487   0.00000  Uiso   1.00
C335   C     0.22983   0.75661   0.14619   0.00000  Uiso   1.00
C336   C     0.35239   0.91652   0.03580   0.00000  Uiso   1.00
C337   C     0.32361   0.95984   0.01742   0.00000  Uiso   1.00
C338   C     0.32578   0.00227   0.05485   0.00000  Uiso   1.00
C339   C     0.29660   0.03762   0.02945   0.00000  Uiso   1.00
C340   C     0.37812   0.90366   0.96391   0.00000  Uiso   1.00
C341   C     0.42613   0.89884   0.95636   0.00000  Uiso   1.00
C342   C     0.44284   0.88690   0.88592   0.00000  Uiso   1.00
C343   C     0.31730   0.87737   0.04955   0.00000  Uiso   1.00
C344   C     0.31419   0.85045   0.11399   0.00000  Uiso   1.00
C345   C     0.27971   0.81635   0.11563   0.00000  Uiso   1.00
H346   H     0.27317   0.89850   0.87691   0.00000  Uiso   1.00
H347   H     0.24077   0.98292   0.88436   0.00000  Uiso   1.00
H348   H     0.34110   0.87951   0.78589   0.00000  Uiso   1.00
H349   H     0.22918   0.83112   0.94350   0.00000  Uiso   1.00
H350   H     0.21821   0.07956   0.91935   0.00000  Uiso   1.00
H351   H     0.42976   0.86149   0.71173   0.00000  Uiso   1.00
H352   H     0.19375   0.75945   0.04406   0.00000  Uiso   1.00
H353   H     0.37594   0.92187   0.08302   0.00000  Uiso   1.00
H354   H     0.34919   0.00758   0.10178   0.00000  Uiso   1.00
H355   H     0.44952   0.90417   0.00331   0.00000  Uiso   1.00
H356   H     0.33760   0.85578   0.16091   0.00000  Uiso   1.00
H357   H     0.30620   0.09958   0.09582   0.00000  Uiso   1.00
H358   H     0.51776   0.88151   0.88819   0.00000  Uiso   1.00
H359   H     0.28175   0.77947   0.22052   0.00000  Uiso   1.00
O360   O     0.24276   0.14554   0.01619   0.00000  Uiso   1.00
O361   O     0.52031   0.85943   0.74380   0.00000  Uiso   1.00
O362   O     0.21067   0.72556   0.17981   0.00000  Uiso   1.00
N363   N     0.24258   0.07251   0.95832   0.00000  Uiso   1.00
N364   N     0.44038   0.86863   0.76420   0.00000  Uiso   1.00
N365   N     0.21973   0.77323   0.07489   0.00000  Uiso   1.00
N366   N     0.28993   0.08328   0.05327   0.00000  Uiso   1.00
N367   N     0.48772   0.87940   0.85915   0.00000  Uiso   1.00
N368   N     0.26708   0.78400   0.16985   0.00000  Uiso   1.00
C369   C     0.40385   0.79671   0.42414   0.00000  Uiso   1.00
C370   C     0.45296   0.79336   0.45677   0.00000  Uiso   1.00
C371   C     0.48826   0.76417   0.43131   0.00000  Uiso   1.00
C372   C     0.53073   0.76630   0.46869   0.00000  Uiso   1.00
C373   C     0.60595   0.75651   0.51011   0.00000  Uiso   1.00
C374   C     0.39678   0.84787   0.40326   0.00000  Uiso   1.00
C375   C     0.38483   0.86452   0.33282   0.00000  Uiso   1.00
C376   C     0.38000   0.91254   0.32516   0.00000  Uiso   1.00
C377   C     0.36796   0.98739   0.28352   0.00000  Uiso   1.00
C378   C     0.37049   0.78706   0.48889   0.00000  Uiso   1.00
C379   C     0.33643   0.75258   0.49044   0.00000  Uiso   1.00
C380   C     0.30946   0.74941   0.55487   0.00000  Uiso   1.00
C381   C     0.25661   0.72983   0.64619   0.00000  Uiso   1.00
C382   C     0.41652   0.85239   0.53580   0.00000  Uiso   1.00
C383   C     0.45984   0.82361   0.51742   0.00000  Uiso   1.00
C384   C     0.50227   0.82578   0.55485   0.00000  Uiso   1.00
C385   C     0.53762   0.79660   0.52945   0.00000  Uiso   1.00
C386   C     0.40366   0.87812   0.46391   0.00000  Uiso   1.00
C387   C     0.39884   0.92613   0.45636   0.00000  Uiso   1.00
C388   C     0.38690   0.94284   0.38592   0.00000  Uiso   1.00
C389   C     0.37737   0.81730   0.54955   0.00000  Uiso   1.00
C390   C     0.35045   0.81419   0.61399   0.00000  Uiso   1.00
C391   C     0.31635   0.77971   0.61563   0.00000  Uiso   1.00
H392   H     0.39850   0.77317   0.37691   0.00000  Uiso   1.00
H393   H     0.48292   0.74077   0.38436   0.00000  Uiso   1.00
H394   H     0.37951   0.84110   0.28589   0.00000  Uiso   1.00
H395   H     0.33112   0.72918   0.44350   0.00000  Uiso   1.00
H396   H     0.57956   0.71821   0.41935   0.00000  Uiso   1.00
H397   H     0.36149   0.92976   0.21173   0.00000  Uiso   1.00
H398   H     0.25945   0.69375   0.54406   0.00000  Uiso   1.00
H399   H     0.42187   0.87594   0.58302   0.00000  Uiso   1.00
H400   H     0.50758   0.84919   0.60178   0.00000  Uiso   1.00
H401   H     0.40417   0.94952   0.50331   0.00000  Uiso   1.00
H402   H     0.35578   0.83760   0.66091   0.00000  Uiso   1.00
H403   H     0.59958   0.80620   0.59582   0.00000  Uiso   1.00
H404   H     0.38151   0.01776   0.38819   0.00000  Uiso   1.00
H405   H     0.27947   0.78175   0.72052   0.00000  Uiso   1.00
O406   O     0.64554   0.74276   0.51619   0.00000  Uiso   1.00
O407   O     0.35943   0.02031   0.24380   0.00000  Uiso   1.00
O408   O     0.22556   0.71067   0.67981   0.00000  Uiso   1.00
N409   N     0.57251   0.74258   0.45832   0.00000  Uiso   1.00
N410   N     0.36863   0.94038   0.26420   0.00000  Uiso   1.00
N411   N     0.27323   0.71973   0.57489   0.00000  Uiso   1.00
N412   N     0.58328   0.78993   0.55327   0.00000  Uiso   1.00
N413   N     0.37940   0.98772   0.35915   0.00000  Uiso   1.00
N414   N     0.28400   0.76708   0.66985   0.00000  Uiso   1.00
C415   C     0.59615   0.20329   0.42414   0.00000  Uiso   1.00
C416   C     0.54704   0.20664   0.45677   0.00000  Uiso   1.00
C417   C     0.51174   0.23583   0.43131   0.00000  Uiso   1.00
C418   C     0.46927   0.23370   0.46869   0.00000  Uiso   1.00
C419   C     0.39405   0.24349   0.51011   0.00000  Uiso   1.00
C420   C     0.60322   0.15213   0.40326   0.00000  Uiso   1.00
C421   C     0.61517   0.13548   0.33282   0.00000  Uiso   1.00
C422   C     0.62000   0.08746   0.32516   0.00000  Uiso   1.00
C423   C     0.63204   0.01261   0.28352   0.00000  Uiso   1.00
C424   C     0.62951   0.21294   0.48889   0.00000  Uiso   1.00
C425   C     0.66357   0.24742   0.49044   0.00000  Uiso   1.00
C426   C     0.69054   0.25059   0.55487   0.00000  Uiso   1.00
C427   C     0.74339   0.27017   0.64619   0.00000  Uiso   1.00
C428   C     0.58348   0.14761   0.53580   0.00000  Uiso   1.00
C429   C     0.54016   0.17639   0.51742   0.00000  Uiso   1.00
C430   C     0.49773   0.17422   0.55485   0.00000  Uiso   1.00
C431   C     0.46238   0.20340   0.52945   0.00000  Uiso   1.00
C432   C     0.59634   0.12188   0.46391   0.00000  Uiso   1.00
C433   C     0.60116   0.07387   0.45636   0.00000  Uiso   1.00
C434   C     0.61310   0.05716   0.38592   0.00000  Uiso   1.00
C435   C     0.62263   0.18270   0.54955   0.00000  Uiso   1.00
C436   C     0.64955   0.18581   0.61399   0.00000  Uiso   1.00
C437   C     0.68365   0.22029   0.61563   0.00000  Uiso   1.00
H438   H     0.60150   0.22683   0.37691   0.00000  Uiso   1.00
H439   H     0.51708   0.25923   0.38436   0.00000  Uiso   1.00
H440   H     0.62049   0.15890   0.28589   0.00000  Uiso   1.00
H441   H     0.66888   0.27082   0.44350   0.00000  Uiso   1.00
H442   H     0.42044   0.28179   0.41935   0.00000  Uiso   1.00
H443   H     0.63851   0.07024   0.21173   0.00000  Uiso   1.00
H444   H     0.74055   0.30625   0.54406   0.00000  Uiso   1.00
H445   H     0.57813   0.12406   0.58302   0.00000  Uiso   1.00
H446   H     0.49242   0.15081   0.60178   0.00000  Uiso   1.00
H447   H     0.59583   0.05048   0.50331   0.00000  Uiso   1.00
H448   H     0.64422   0.16240   0.66091   0.00000  Uiso   1.00
H449   H     0.40042   0.19380   0.59582   0.00000  Uiso   1.00
H450   H     0.61849   0.98224   0.38819   0.00000  Uiso   1.00
H451   H     0.72053   0.21825   0.72052   0.00000  Uiso   1.00
O452   O     0.35446   0.25724   0.51619   0.00000  Uiso   1.00
O453   O     0.64057   0.97969   0.24380   0.00000  Uiso   1.00
O454   O     0.77444   0.28933   0.67981   0.00000  Uiso   1.00
N455   N     0.42749   0.25742   0.45832   0.00000  Uiso   1.00
N456   N     0.63137   0.05962   0.26420   0.00000  Uiso   1.00
N457   N     0.72677   0.28027   0.57489   0.00000  Uiso   1.00
N458   N     0.41672   0.21007   0.55327   0.00000  Uiso   1.00
N459   N     0.62060   0.01228   0.35915   0.00000  Uiso   1.00
N460   N     0.71600   0.23292   0.66985   0.00000  Uiso   1.00
C461   C     0.70329   0.90385   0.42414   0.00000  Uiso   1.00
C462   C     0.70664   0.95296   0.45677   0.00000  Uiso   1.00
C463   C     0.73583   0.98826   0.43131   0.00000  Uiso   1.00
C464   C     0.73370   0.03073   0.46869   0.00000  Uiso   1.00
C465   C     0.74349   0.10595   0.51011   0.00000  Uiso   1.00
C466   C     0.65213   0.89678   0.40326   0.00000  Uiso   1.00
C467   C     0.63548   0.88483   0.33282   0.00000  Uiso   1.00
C468   C     0.58746   0.88000   0.32516   0.00000  Uiso   1.00
C469   C     0.51261   0.86796   0.28352   0.00000  Uiso   1.00
C470   C     0.71294   0.87049   0.48889   0.00000  Uiso   1.00
C471   C     0.74742   0.83643   0.49044   0.00000  Uiso   1.00
C472   C     0.75059   0.80946   0.55487   0.00000  Uiso   1.00
C473   C     0.77017   0.75661   0.64619   0.00000  Uiso   1.00
C474   C     0.64761   0.91652   0.53580   0.00000  Uiso   1.00
C475   C     0.67639   0.95984   0.51742   0.00000  Uiso   1.00
C476   C     0.67422   0.00227   0.55485   0.00000  Uiso   1.00
C477   C     0.70340   0.03762   0.52945   0.00000  Uiso   1.00
C478   C     0.62188   0.90366   0.46391   0.00000  Uiso   1.00
C479   C     0.57387   0.89884   0.45636   0.00000  Uiso   1.00
C480   C     0.55716   0.88690   0.38592   0.00000  Uiso   1.00
C481   C     0.68270   0.87737   0.54955   0.00000  Uiso   1.00
C482   C     0.68581   0.85045   0.61399   0.00000  Uiso   1.00
C483   C     0.72029   0.81635   0.61563   0.00000  Uiso   1.00
H484   H     0.72683   0.89850   0.37691   0.00000  Uiso   1.00
H485   H     0.75923   0.98292   0.38436   0.00000  Uiso   1.00
H486   H     0.65890   0.87951   0.28589   0.00000  Uiso   1.00
H487   H     0.77082   0.83112   0.44350   0.00000  Uiso   1.00
H488   H     0.78179   0.07956   0.41935   0.00000  Uiso   1.00
H489   H     0.57024   0.86149   0.21173   0.00000  Uiso   1.00
H490   H     0.80625   0.75945   0.54406   0.00000  Uiso   1.00
H491   H     0.62406   0.92187   0.58302   0.00000  Uiso   1.00
H492   H     0.65081   0.00758   0.60178   0.00000  Uiso   1.00
H493   H     0.55048   0.90417   0.50331   0.00000  Uiso   1.00
H494   H     0.66240   0.85578   0.66091   0.00000  Uiso   1.00
H495   H     0.69380   0.09958   0.59582   0.00000  Uiso   1.00
H496   H     0.48224   0.88151   0.38819   0.00000  Uiso   1.00
H497   H     0.71825   0.77947   0.72052   0.00000  Uiso   1.00
O498   O     0.75724   0.14554   0.51619   0.00000  Uiso   1.00
O499   O     0.47969   0.85943   0.24380   0.00000  Uiso   1.00
O500   O     0.78933   0.72556   0.67981   0.00000  Uiso   1.00
N501   N     0.75742   0.07251   0.45832   0.00000  Uiso   1.00
N502   N     0.55962   0.86863   0.26420   0.00000  Uiso   1.00
N503   N     0.78027   0.77323   0.57489   0.00000  Uiso   1.00
N504   N     0.71007   0.08328   0.55327   0.00000  Uiso   1.00
N505   N     0.51228   0.87940   0.35915   0.00000  Uiso   1.00
N506   N     0.73292   0.78400   0.66985   0.00000  Uiso   1.00
C507   C     0.29671   0.09615   0.42414   0.00000  Uiso   1.00
C508   C     0.29336   0.04704   0.45677   0.00000  Uiso   1.00
C509   C     0.26417   0.01174   0.43131   0.00000  Uiso   1.00
C510   C     0.26630   0.96927   0.46869   0.00000  Uiso   1.00
C511   C     0.25651   0.89405   0.51011   0.00000  Uiso   1.00
C512   C     0.34787   0.10322   0.40326   0.00000  Uiso   1.00
C513   C     0.36452   0.11517   0.33282   0.00000  Uiso   1.00
C514   C     0.41254   0.12000   0.32516   0.00000  Uiso   1.00
C515   C     0.48739   0.13204   0.28352   0.00000  Uiso   1.00
C516   C     0.28706   0.12951   0.48889   0.00000  Uiso   1.00
C517   C     0.25258   0.16357   0.49044   0.00000  Uiso   1.00
C518   C     0.24941   0.19054   0.55487   0.00000  Uiso   1.00
C519   C     0.22983   0.24339   0.64619   0.00000  Uiso   1.00
C520   C     0.35239   0.08348   0.53580   0.00000  Uiso   1.00
C521   C     0.32361   0.04016   0.51742   0.00000  Uiso   1.00
C522   C     0.32578   0.99773   0.55485   0.00000  Uiso   1.00
C523   C     0.29660   0.96238   0.52945   0.00000  Uiso   1.00
C524   C     0.37812   0.09634   0.46391   0.00000  Uiso   1.00
C525   C     0.42613   0.10116   0.45636   0.00000  Uiso   1.00
C526   C     0.44284   0.11310   0.38592   0.00000  Uiso   1.00
C527   C     0.31730   0.12263   0.54955   0.00000  Uiso   1.00
C528   C     0.31419   0.14955   0.61399   0.00000  Uiso   1.00
C529   C     0.27971   0.18365   0.61563   0.00000  Uiso   1.00
H530   H     0.27317   0.10150   0.37691   0.00000  Uiso   1.00
H531   H     0.24077   0.01708   0.38436   0.00000  Uiso   1.00
H532   H     0.34110   0.12049   0.28589   0.00000  Uiso   1.00
H533   H     0.22918   0.16888   0.44350   0.00000  Uiso   1.00
H534   H     0.21821   0.92044   0.41935   0.00000  Uiso   1.00
H535   H     0.42976   0.13851   0.21173   0.00000  Uiso   1.00
H536   H     0.19375   0.24055   0.54406   0.00000  Uiso   1.00
H537   H     0.37594   0.07813   0.58302   0.00000  Uiso   1.00
H538   H     0.34919   0.99242   0.60178   0.00000  Uiso   1.00
H539   H     0.44952   0.09583   0.50331   0.00000  Uiso   1.00
H540   H     0.33760   0.14422   0.66091   0.00000  Uiso   1.00
H541   H     0.30620   0.90042   0.59582   0.00000  Uiso   1.00
H542   H     0.51776   0.11849   0.38819   0.00000  Uiso   1.00
H543   H     0.28175   0.22053   0.72052   0.00000  Uiso   1.00
O544   O     0.24276   0.85446   0.51619   0.00000  Uiso   1.00
O545   O     0.52031   0.14057   0.24380   0.00000  Uiso   1.00
O546   O     0.21067   0.27444   0.67981   0.00000  Uiso   1.00
N547   N     0.24258   0.92749   0.45832   0.00000  Uiso   1.00
N548   N     0.44038   0.13137   0.26420   0.00000  Uiso   1.00
N549   N     0.21973   0.22677   0.57489   0.00000  Uiso   1.00
N550   N     0.28993   0.91672   0.55327   0.00000  Uiso   1.00
N551   N     0.48772   0.12060   0.35915   0.00000  Uiso   1.00
N552   N     0.26708   0.21600   0.66985   0.00000  Uiso   1.00
C553   C     0.09615   0.29671   0.07586   0.00000  Uiso   1.00
C554   C     0.04704   0.29336   0.04323   0.00000  Uiso   1.00
C555   C     0.01174   0.26417   0.06869   0.00000  Uiso   1.00
C556   C     0.96927   0.26630   0.03131   0.00000  Uiso   1.00
C557   C     0.89405   0.25651   0.98989   0.00000  Uiso   1.00
C558   C     0.10322   0.34787   0.09674   0.00000  Uiso   1.00
C559   C     0.11517   0.36452   0.16718   0.00000  Uiso   1.00
C560   C     0.12000   0.41254   0.17484   0.00000  Uiso   1.00
C561   C     0.13204   0.48739   0.21648   0.00000  Uiso   1.00
C562   C     0.12951   0.28706   0.01111   0.00000  Uiso   1.00
C563   C     0.16357   0.25258   0.00956   0.00000  Uiso   1.00
C564   C     0.19054   0.24941   0.94513   0.00000  Uiso   1.00
C565   C     0.24339   0.22983   0.85381   0.00000  Uiso   1.00
C566   C     0.08348   0.35239   0.96420   0.00000  Uiso   1.00
C567   C     0.04016   0.32361   0.98258   0.00000  Uiso   1.00
C568   C     0.99773   0.32578   0.94515   0.00000  Uiso   1.00
C569   C     0.96238   0.29660   0.97055   0.00000  Uiso   1.00
C570   C     0.09634   0.37812   0.03609   0.00000  Uiso   1.00
C571   C     0.10116   0.42613   0.04364   0.00000  Uiso   1.00
C572   C     0.11310   0.44284   0.11408   0.00000  Uiso   1.00
C573   C     0.12263   0.31730   0.95045   0.00000  Uiso   1.00
C574   C     0.14955   0.31419   0.88601   0.00000  Uiso   1.00
C575   C     0.18365   0.27971   0.88437   0.00000  Uiso   1.00
H576   H     0.10150   0.27317   0.12309   0.00000  Uiso   1.00
H577   H     0.01708   0.24077   0.11564   0.00000  Uiso   1.00
H578   H     0.12049   0.34110   0.21411   0.00000  Uiso   1.00
H579   H     0.16888   0.22918   0.05650   0.00000  Uiso   1.00
H580   H     0.92044   0.21821   0.08065   0.00000  Uiso   1.00
H581   H     0.13851   0.42976   0.28827   0.00000  Uiso   1.00
H582   H     0.24055   0.19375   0.95594   0.00000  Uiso   1.00
H583   H     0.07813   0.37594   0.91698   0.00000  Uiso   1.00
H584   H     0.99242   0.34919   0.89822   0.00000  Uiso   1.00
H585   H     0.09583   0.44952   0.99669   0.00000  Uiso   1.00
H586   H     0.14422   0.33760   0.83909   0.00000  Uiso   1.00
H587   H     0.90042   0.30620   0.90418   0.00000  Uiso   1.00
H588   H     0.11849   0.51776   0.11181   0.00000  Uiso   1.00
H589   H     0.22053   0.28175   0.77948   0.00000  Uiso   1.00
O590   O     0.85446   0.24276   0.98381   0.00000  Uiso   1.00
O591   O     0.14057   0.52031   0.25620   0.00000  Uiso   1.00
O592   O     0.27444   0.21067   0.82019   0.00000  Uiso   1.00
N593   N     0.92749   0.24258   0.04168   0.00000  Uiso   1.00
N594   N     0.13137   0.44038   0.23580   0.00000  Uiso   1.00
N595   N     0.22677   0.21973   0.92511   0.00000  Uiso   1.00
N596   N     0.91672   0.28993   0.94673   0.00000  Uiso   1.00
N597   N     0.12060   0.48772   0.14085   0.00000  Uiso   1.00
N598   N     0.21600   0.26708   0.83015   0.00000  Uiso   1.00
C599   C     0.90385   0.70329   0.07586   0.00000  Uiso   1.00
C600   C     0.95296   0.70664   0.04323   0.00000  Uiso   1.00
C601   C     0.98826   0.73583   0.06869   0.00000  Uiso   1.00
C602   C     0.03073   0.73370   0.03131   0.00000  Uiso   1.00
C603   C     0.10595   0.74349   0.98989   0.00000  Uiso   1.00
C604   C     0.89678   0.65213   0.09674   0.00000  Uiso   1.00
C605   C     0.88483   0.63548   0.16718   0.00000  Uiso   1.00
C606   C     0.88000   0.58746   0.17484   0.00000  Uiso   1.00
C607   C     0.86796   0.51261   0.21648   0.00000  Uiso   1.00
C608   C     0.87049   0.71294   0.01111   0.00000  Uiso   1.00
C609   C     0.83643   0.74742   0.00956   0.00000  Uiso   1.00
C610   C     0.80946   0.75059   0.94513   0.00000  Uiso   1.00
C611   C     0.75661   0.77017   0.85381   0.00000  Uiso   1.00
C612   C     0.91652   0.64761   0.96420   0.00000  Uiso   1.00
C613   C     0.95984   0.67639   0.98258   0.00000  Uiso   1.00
C614   C     0.00227   0.67422   0.94515   0.00000  Uiso   1.00
C615   C     0.03762   0.70340   0.97055   0.00000  Uiso   1.00
C616   C     0.90366   0.62188   0.03609   0.00000  Uiso   1.00
C617   C     0.89884   0.57387   0.04364   0.00000  Uiso   1.00
C618   C     0.88690   0.55716   0.11408   0.00000  Uiso   1.00
C619   C     0.87737   0.68270   0.95045   0.00000  Uiso   1.00
C620   C     0.85045   0.68581   0.88601   0.00000  Uiso   1.00
C621   C     0.81635   0.72029   0.88437   0.00000  Uiso   1.00
H622   H     0.89850   0.72683   0.12309   0.00000  Uiso   1.00
H623   H     0.98292   0.75923   0.11564   0.00000  Uiso   1.00
H624   H     0.87951   0.65890   0.21411   0.00000  Uiso   1.00
H625   H     0.83112   0.77082   0.05650   0.00000  Uiso   1.00
H626   H     0.07956   0.78179   0.08065   0.00000  Uiso   1.00
H627   H     0.86149   0.57024   0.28827   0.00000  Uiso   1.00
H628   H     0.75945   0.80625   0.95594   0.00000  Uiso   1.00
H629   H     0.92187   0.62406   0.91698   0.00000  Uiso   1.00
H630   H     0.00758   0.65081   0.89822   0.00000  Uiso   1.00
H631   H     0.90417   0.55048   0.99669   0.00000  Uiso   1.00
H632   H     0.85578   0.66240   0.83909   0.00000  Uiso   1.00
H633   H     0.09958   0.69380   0.90418   0.00000  Uiso   1.00
H634   H     0.88151   0.48224   0.11181   0.00000  Uiso   1.00
H635   H     0.77947   0.71825   0.77948   0.00000  Uiso   1.00
O636   O     0.14554   0.75724   0.98381   0.00000  Uiso   1.00
O637   O     0.85943   0.47969   0.25620   0.00000  Uiso   1.00
O638   O     0.72556   0.78933   0.82019   0.00000  Uiso   1.00
N639   N     0.07251   0.75742   0.04168   0.00000  Uiso   1.00
N640   N     0.86863   0.55962   0.23580   0.00000  Uiso   1.00
N641   N     0.77323   0.78027   0.92511   0.00000  Uiso   1.00
N642   N     0.08328   0.71007   0.94673   0.00000  Uiso   1.00
N643   N     0.87940   0.51228   0.14085   0.00000  Uiso   1.00
N644   N     0.78400   0.73292   0.83015   0.00000  Uiso   1.00
C645   C     0.79671   0.40385   0.07586   0.00000  Uiso   1.00
C646   C     0.79336   0.45296   0.04323   0.00000  Uiso   1.00
C647   C     0.76417   0.48826   0.06869   0.00000  Uiso   1.00
C648   C     0.76630   0.53073   0.03131   0.00000  Uiso   1.00
C649   C     0.75651   0.60595   0.98989   0.00000  Uiso   1.00
C650   C     0.84787   0.39678   0.09674   0.00000  Uiso   1.00
C651   C     0.86452   0.38483   0.16718   0.00000  Uiso   1.00
C652   C     0.91254   0.38000   0.17484   0.00000  Uiso   1.00
C653   C     0.98739   0.36796   0.21648   0.00000  Uiso   1.00
C654   C     0.78706   0.37049   0.01111   0.00000  Uiso   1.00
C655   C     0.75258   0.33643   0.00956   0.00000  Uiso   1.00
C656   C     0.74941   0.30946   0.94513   0.00000  Uiso   1.00
C657   C     0.72983   0.25661   0.85381   0.00000  Uiso   1.00
C658   C     0.85239   0.41652   0.96420   0.00000  Uiso   1.00
C659   C     0.82361   0.45984   0.98258   0.00000  Uiso   1.00
C660   C     0.82578   0.50227   0.94515   0.00000  Uiso   1.00
C661   C     0.79660   0.53762   0.97055   0.00000  Uiso   1.00
C662   C     0.87812   0.40366   0.03609   0.00000  Uiso   1.00
C663   C     0.92613   0.39884   0.04364   0.00000  Uiso   1.00
C664   C     0.94284   0.38690   0.11408   0.00000  Uiso   1.00
C665   C     0.81730   0.37737   0.95045   0.00000  Uiso   1.00
C666   C     0.81419   0.35045   0.88601   0.00000  Uiso   1.00
C667   C     0.77971   0.31635   0.88437   0.00000  Uiso   1.00
H668   H     0.77317   0.39850   0.12309   0.00000  Uiso   1.00
H669   H     0.74077   0.48292   0.11564   0.00000  Uiso   1.00
H670   H     0.84110   0.37951   0.21411   0.00000  Uiso   1.00
H671   H     0.72918   0.33112   0.05650   0.00000  Uiso   1.00
H672   H     0.71821   0.57956   0.08065   0.00000  Uiso   1.00
H673   H     0.92976   0.36149   0.28827   0.00000  Uiso   1.00
H674   H     0.69375   0.25945   0.95594   0.00000  Uiso   1.00
H675   H     0.87594   0.42187   0.91698   0.00000  Uiso   1.00
H676   H     0.84919   0.50758   0.89822   0.00000  Uiso   1.00
H677   H     0.94952   0.40417   0.99669   0.00000  Uiso   1.00
H678   H     0.83760   0.35578   0.83909   0.00000  Uiso   1.00
H679   H     0.80620   0.59958   0.90418   0.00000  Uiso   1.00
H680   H     0.01776   0.38151   0.11181   0.00000  Uiso   1.00
H681   H     0.78175   0.27947   0.77948   0.00000  Uiso   1.00
O682   O     0.74276   0.64554   0.98381   0.00000  Uiso   1.00
O683   O     0.02031   0.35943   0.25620   0.00000  Uiso   1.00
O684   O     0.71067   0.22556   0.82019   0.00000  Uiso   1.00
N685   N     0.74258   0.57251   0.04168   0.00000  Uiso   1.00
N686   N     0.94038   0.36863   0.23580   0.00000  Uiso   1.00
N687   N     0.71973   0.27323   0.92511   0.00000  Uiso   1.00
N688   N     0.78993   0.58328   0.94673   0.00000  Uiso   1.00
N689   N     0.98772   0.37940   0.14085   0.00000  Uiso   1.00
N690   N     0.76708   0.28400   0.83015   0.00000  Uiso   1.00
C691   C     0.20329   0.59615   0.07586   0.00000  Uiso   1.00
C692   C     0.20664   0.54704   0.04323   0.00000  Uiso   1.00
C693   C     0.23583   0.51174   0.06869   0.00000  Uiso   1.00
C694   C     0.23370   0.46927   0.03131   0.00000  Uiso   1.00
C695   C     0.24349   0.39405   0.98989   0.00000  Uiso   1.00
C696   C     0.15213   0.60322   0.09674   0.00000  Uiso   1.00
C697   C     0.13548   0.61517   0.16718   0.00000  Uiso   1.00
C698   C     0.08746   0.62000   0.17484   0.00000  Uiso   1.00
C699   C     0.01261   0.63204   0.21648   0.00000  Uiso   1.00
C700   C     0.21294   0.62951   0.01111   0.00000  Uiso   1.00
C701   C     0.24742   0.66357   0.00956   0.00000  Uiso   1.00
C702   C     0.25059   0.69054   0.94513   0.00000  Uiso   1.00
C703   C     0.27017   0.74339   0.85381   0.00000  Uiso   1.00
C704   C     0.14761   0.58348   0.96420   0.00000  Uiso   1.00
C705   C     0.17639   0.54016   0.98258   0.00000  Uiso   1.00
C706   C     0.17422   0.49773   0.94515   0.00000  Uiso   1.00
C707   C     0.20340   0.46238   0.97055   0.00000  Uiso   1.00
C708   C     0.12188   0.59634   0.03609   0.00000  Uiso   1.00
C709   C     0.07387   0.60116   0.04364   0.00000  Uiso   1.00
C710   C     0.05716   0.61310   0.11408   0.00000  Uiso   1.00
C711   C     0.18270   0.62263   0.95045   0.00000  Uiso   1.00
C712   C     0.18581   0.64955   0.88601   0.00000  Uiso   1.00
C713   C     0.22029   0.68365   0.88437   0.00000  Uiso   1.00
H714   H     0.22683   0.60150   0.12309   0.00000  Uiso   1.00
H715   H     0.25923   0.51708   0.11564   0.00000  Uiso   1.00
H716   H     0.15890   0.62049   0.21411   0.00000  Uiso   1.00
H717   H     0.27082   0.66888   0.05650   0.00000  Uiso   1.00
H718   H     0.28179   0.42044   0.08065   0.00000  Uiso   1.00
H719   H     0.07024   0.63851   0.28827   0.00000  Uiso   1.00
H720   H     0.30625   0.74055   0.95594   0.00000  Uiso   1.00
H721   H     0.12406   0.57813   0.91698   0.00000  Uiso   1.00
H722   H     0.15081   0.49242   0.89822   0.00000  Uiso   1.00
H723   H     0.05048   0.59583   0.99669   0.00000  Uiso   1.00
H724   H     0.16240   0.64422   0.83909   0.00000  Uiso   1.00
H725   H     0.19380   0.40042   0.90418   0.00000  Uiso   1.00
H726   H     0.98224   0.61849   0.11181   0.00000  Uiso   1.00
H727   H     0.21825   0.72053   0.77948   0.00000  Uiso   1.00
O728   O     0.25724   0.35446   0.98381   0.00000  Uiso   1.00
O729   O     0.97969   0.64057   0.25620   0.00000  Uiso   1.00
O730   O     0.28933   0.77444   0.82019   0.00000  Uiso   1.00
N731   N     0.25742   0.42749   0.04168   0.00000  Uiso   1.00
N732   N     0.05962   0.63137   0.23580   0.00000  Uiso   1.00
N733   N     0.28027   0.72677   0.92511   0.00000  Uiso   1.00
N734   N     0.21007   0.41672   0.94673   0.00000  Uiso   1.00
N735   N     0.01228   0.62060   0.14085   0.00000  Uiso   1.00
N736   N     0.23292   0.71600   0.83015   0.00000  Uiso   1.00
