data_job_00795
_audit_creation_date              2018-12-19
_audit_creation_method            'Materials Studio'
_symmetry_space_group_name_H-M    'P1'
_symmetry_Int_Tables_number       1
_symmetry_cell_setting            triclinic
loop_
_symmetry_equiv_pos_as_xyz
  x,y,z
_cell_length_a                    45.1671
_cell_length_b                    45.1671
_cell_length_c                    7.1587
_cell_angle_alpha                 90.0000
_cell_angle_beta                  90.0000
_cell_angle_gamma                 90.0000
loop_
_atom_site_label
_atom_site_type_symbol
_atom_site_fract_x
_atom_site_fract_y
_atom_site_fract_z
_atom_site_U_iso_or_equiv
_atom_site_adp_type
_atom_site_occupancy
C1     C     0.59698   0.38107   0.56771   0.00000  Uiso   1.00
C2     C     0.58368   0.40925   0.64962   0.00000  Uiso   1.00
C3     C     0.56884   0.43102   0.54990   0.00000  Uiso   1.00
C4     C     0.55834   0.45511   0.65046   0.00000  Uiso   1.00
C5     C     0.53706   0.49855   0.74823   0.00000  Uiso   1.00
C6     C     0.62960   0.38128   0.62263   0.00000  Uiso   1.00
C7     C     0.65337   0.37952   0.50022   0.00000  Uiso   1.00
C8     C     0.68152   0.38006   0.57807   0.00000  Uiso   1.00
C9     C     0.73153   0.38005   0.63394   0.00000  Uiso   1.00
C10    C     0.58297   0.35546   0.67477   0.00000  Uiso   1.00
C11    C     0.56753   0.33200   0.59620   0.00000  Uiso   1.00
C12    C     0.55642   0.31080   0.71795   0.00000  Uiso   1.00
C13    C     0.53403   0.27070   0.85478   0.00000  Uiso   1.00
C14    C     0.60472   0.38514   0.92362   0.00000  Uiso   1.00
C15    C     0.58789   0.41147   0.84294   0.00000  Uiso   1.00
C16    C     0.57740   0.43553   0.94368   0.00000  Uiso   1.00
C17    C     0.56255   0.45733   0.84413   0.00000  Uiso   1.00
C18    C     0.63381   0.38349   0.81594   0.00000  Uiso   1.00
C19    C     0.66193   0.38403   0.89399   0.00000  Uiso   1.00
C20    C     0.68573   0.38228   0.77173   0.00000  Uiso   1.00
C21    C     0.58717   0.35768   0.86809   0.00000  Uiso   1.00
C22    C     0.57609   0.33651   0.98998   0.00000  Uiso   1.00
C23    C     0.56064   0.31302   0.91161   0.00000  Uiso   1.00
H24    H     0.59371   0.37934   0.41720   0.00000  Uiso   1.00
H25    H     0.56559   0.42930   0.40029   0.00000  Uiso   1.00
H26    H     0.65011   0.37780   0.35063   0.00000  Uiso   1.00
H27    H     0.56428   0.33029   0.44660   0.00000  Uiso   1.00
H28    H     0.53628   0.48567   0.46679   0.00000  Uiso   1.00
H29    H     0.71448   0.37708   0.36207   0.00000  Uiso   1.00
H30    H     0.53350   0.27689   0.56444   0.00000  Uiso   1.00
H31    H     0.60800   0.38687   0.07413   0.00000  Uiso   1.00
H32    H     0.58066   0.43724   0.09327   0.00000  Uiso   1.00
H33    H     0.66517   0.38575   0.04360   0.00000  Uiso   1.00
H34    H     0.57935   0.33823   0.13957   0.00000  Uiso   1.00
H35    H     0.54851   0.49212   0.02924   0.00000  Uiso   1.00
H36    H     0.72671   0.38352   0.92451   0.00000  Uiso   1.00
H37    H     0.54573   0.28333   0.12688   0.00000  Uiso   1.00
O38    O     0.52417   0.52190   0.74875   0.00000  Uiso   1.00
O39    O     0.75795   0.37943   0.61135   0.00000  Uiso   1.00
O40    O     0.52052   0.24798   0.87685   0.00000  Uiso   1.00
N41    N     0.54291   0.48027   0.59654   0.00000  Uiso   1.00
N42    N     0.70951   0.37875   0.49863   0.00000  Uiso   1.00
N43    N     0.54032   0.28507   0.68782   0.00000  Uiso   1.00
N44    N     0.54949   0.48374   0.89919   0.00000  Uiso   1.00
N45    N     0.71609   0.38222   0.80128   0.00000  Uiso   1.00
N46    N     0.54690   0.28854   0.99047   0.00000  Uiso   1.00
C47    C     0.09698   0.88107   0.06771   0.00000  Uiso   1.00
C48    C     0.08368   0.90925   0.14962   0.00000  Uiso   1.00
C49    C     0.06884   0.93102   0.04990   0.00000  Uiso   1.00
C50    C     0.05834   0.95511   0.15046   0.00000  Uiso   1.00
C51    C     0.03706   0.99855   0.24823   0.00000  Uiso   1.00
C52    C     0.12960   0.88128   0.12263   0.00000  Uiso   1.00
C53    C     0.15337   0.87952   0.00022   0.00000  Uiso   1.00
C54    C     0.18152   0.88006   0.07807   0.00000  Uiso   1.00
C55    C     0.23153   0.88005   0.13394   0.00000  Uiso   1.00
C56    C     0.08297   0.85546   0.17477   0.00000  Uiso   1.00
C57    C     0.06753   0.83200   0.09620   0.00000  Uiso   1.00
C58    C     0.05642   0.81080   0.21795   0.00000  Uiso   1.00
C59    C     0.03403   0.77070   0.35478   0.00000  Uiso   1.00
C60    C     0.10472   0.88514   0.42362   0.00000  Uiso   1.00
C61    C     0.08789   0.91147   0.34294   0.00000  Uiso   1.00
C62    C     0.07740   0.93553   0.44368   0.00000  Uiso   1.00
C63    C     0.06255   0.95733   0.34413   0.00000  Uiso   1.00
C64    C     0.13381   0.88349   0.31594   0.00000  Uiso   1.00
C65    C     0.16193   0.88403   0.39399   0.00000  Uiso   1.00
C66    C     0.18573   0.88228   0.27173   0.00000  Uiso   1.00
C67    C     0.08717   0.85768   0.36809   0.00000  Uiso   1.00
C68    C     0.07609   0.83651   0.48998   0.00000  Uiso   1.00
C69    C     0.06064   0.81302   0.41161   0.00000  Uiso   1.00
H70    H     0.09371   0.87934   0.91720   0.00000  Uiso   1.00
H71    H     0.06559   0.92930   0.90029   0.00000  Uiso   1.00
H72    H     0.15011   0.87780   0.85063   0.00000  Uiso   1.00
H73    H     0.06428   0.83029   0.94660   0.00000  Uiso   1.00
H74    H     0.03628   0.98567   0.96679   0.00000  Uiso   1.00
H75    H     0.21448   0.87708   0.86207   0.00000  Uiso   1.00
H76    H     0.03350   0.77689   0.06444   0.00000  Uiso   1.00
H77    H     0.10800   0.88687   0.57413   0.00000  Uiso   1.00
H78    H     0.08066   0.93724   0.59327   0.00000  Uiso   1.00
H79    H     0.16517   0.88575   0.54360   0.00000  Uiso   1.00
H80    H     0.07935   0.83823   0.63957   0.00000  Uiso   1.00
H81    H     0.04851   0.99212   0.52924   0.00000  Uiso   1.00
H82    H     0.22671   0.88352   0.42451   0.00000  Uiso   1.00
H83    H     0.04573   0.78333   0.62688   0.00000  Uiso   1.00
O84    O     0.02417   0.02190   0.24875   0.00000  Uiso   1.00
O85    O     0.25795   0.87943   0.11135   0.00000  Uiso   1.00
O86    O     0.02052   0.74798   0.37685   0.00000  Uiso   1.00
N87    N     0.04291   0.98027   0.09654   0.00000  Uiso   1.00
N88    N     0.20951   0.87875   0.99863   0.00000  Uiso   1.00
N89    N     0.04032   0.78507   0.18782   0.00000  Uiso   1.00
N90    N     0.04949   0.98374   0.39919   0.00000  Uiso   1.00
N91    N     0.21609   0.88222   0.30128   0.00000  Uiso   1.00
N92    N     0.04690   0.78854   0.49047   0.00000  Uiso   1.00
C93    C     0.40302   0.61893   0.56771   0.00000  Uiso   1.00
C94    C     0.41632   0.59075   0.64962   0.00000  Uiso   1.00
C95    C     0.43116   0.56898   0.54990   0.00000  Uiso   1.00
C96    C     0.44166   0.54489   0.65046   0.00000  Uiso   1.00
C97    C     0.46294   0.50145   0.74823   0.00000  Uiso   1.00
C98    C     0.37040   0.61872   0.62263   0.00000  Uiso   1.00
C99    C     0.34663   0.62048   0.50022   0.00000  Uiso   1.00
C100   C     0.31848   0.61994   0.57807   0.00000  Uiso   1.00
C101   C     0.26847   0.61995   0.63394   0.00000  Uiso   1.00
C102   C     0.41703   0.64454   0.67477   0.00000  Uiso   1.00
C103   C     0.43247   0.66800   0.59620   0.00000  Uiso   1.00
C104   C     0.44358   0.68920   0.71795   0.00000  Uiso   1.00
C105   C     0.46597   0.72930   0.85478   0.00000  Uiso   1.00
C106   C     0.39528   0.61486   0.92362   0.00000  Uiso   1.00
C107   C     0.41211   0.58853   0.84294   0.00000  Uiso   1.00
C108   C     0.42260   0.56447   0.94368   0.00000  Uiso   1.00
C109   C     0.43745   0.54267   0.84413   0.00000  Uiso   1.00
C110   C     0.36619   0.61651   0.81594   0.00000  Uiso   1.00
C111   C     0.33807   0.61597   0.89399   0.00000  Uiso   1.00
C112   C     0.31427   0.61772   0.77173   0.00000  Uiso   1.00
C113   C     0.41283   0.64232   0.86809   0.00000  Uiso   1.00
C114   C     0.42391   0.66349   0.98998   0.00000  Uiso   1.00
C115   C     0.43936   0.68698   0.91161   0.00000  Uiso   1.00
H116   H     0.40629   0.62066   0.41720   0.00000  Uiso   1.00
H117   H     0.43441   0.57070   0.40029   0.00000  Uiso   1.00
H118   H     0.34989   0.62220   0.35063   0.00000  Uiso   1.00
H119   H     0.43572   0.66971   0.44660   0.00000  Uiso   1.00
H120   H     0.46372   0.51433   0.46679   0.00000  Uiso   1.00
H121   H     0.28552   0.62292   0.36207   0.00000  Uiso   1.00
H122   H     0.46650   0.72311   0.56444   0.00000  Uiso   1.00
H123   H     0.39200   0.61313   0.07413   0.00000  Uiso   1.00
H124   H     0.41934   0.56276   0.09327   0.00000  Uiso   1.00
H125   H     0.33483   0.61425   0.04360   0.00000  Uiso   1.00
H126   H     0.42065   0.66177   0.13957   0.00000  Uiso   1.00
H127   H     0.45149   0.50788   0.02924   0.00000  Uiso   1.00
H128   H     0.27329   0.61648   0.92451   0.00000  Uiso   1.00
H129   H     0.45427   0.71667   0.12688   0.00000  Uiso   1.00
O130   O     0.47583   0.47810   0.74875   0.00000  Uiso   1.00
O131   O     0.24205   0.62057   0.61135   0.00000  Uiso   1.00
O132   O     0.47948   0.75202   0.87685   0.00000  Uiso   1.00
N133   N     0.45709   0.51973   0.59654   0.00000  Uiso   1.00
N134   N     0.29049   0.62125   0.49863   0.00000  Uiso   1.00
N135   N     0.45968   0.71493   0.68782   0.00000  Uiso   1.00
N136   N     0.45051   0.51626   0.89919   0.00000  Uiso   1.00
N137   N     0.28391   0.61778   0.80128   0.00000  Uiso   1.00
N138   N     0.45310   0.71146   0.99047   0.00000  Uiso   1.00
C139   C     0.90302   0.11893   0.06771   0.00000  Uiso   1.00
C140   C     0.91632   0.09075   0.14962   0.00000  Uiso   1.00
C141   C     0.93116   0.06898   0.04990   0.00000  Uiso   1.00
C142   C     0.94166   0.04489   0.15046   0.00000  Uiso   1.00
C143   C     0.96294   0.00145   0.24823   0.00000  Uiso   1.00
C144   C     0.87040   0.11872   0.12263   0.00000  Uiso   1.00
C145   C     0.84663   0.12048   0.00022   0.00000  Uiso   1.00
C146   C     0.81848   0.11994   0.07807   0.00000  Uiso   1.00
C147   C     0.76847   0.11995   0.13394   0.00000  Uiso   1.00
C148   C     0.91703   0.14454   0.17477   0.00000  Uiso   1.00
C149   C     0.93247   0.16800   0.09620   0.00000  Uiso   1.00
C150   C     0.94358   0.18920   0.21795   0.00000  Uiso   1.00
C151   C     0.96597   0.22930   0.35478   0.00000  Uiso   1.00
C152   C     0.89528   0.11486   0.42362   0.00000  Uiso   1.00
C153   C     0.91211   0.08853   0.34294   0.00000  Uiso   1.00
C154   C     0.92260   0.06447   0.44368   0.00000  Uiso   1.00
C155   C     0.93745   0.04267   0.34413   0.00000  Uiso   1.00
C156   C     0.86619   0.11651   0.31594   0.00000  Uiso   1.00
C157   C     0.83807   0.11597   0.39399   0.00000  Uiso   1.00
C158   C     0.81427   0.11772   0.27173   0.00000  Uiso   1.00
C159   C     0.91283   0.14232   0.36809   0.00000  Uiso   1.00
C160   C     0.92391   0.16349   0.48998   0.00000  Uiso   1.00
C161   C     0.93936   0.18698   0.41161   0.00000  Uiso   1.00
H162   H     0.90629   0.12066   0.91720   0.00000  Uiso   1.00
H163   H     0.93441   0.07070   0.90029   0.00000  Uiso   1.00
H164   H     0.84989   0.12220   0.85063   0.00000  Uiso   1.00
H165   H     0.93572   0.16971   0.94660   0.00000  Uiso   1.00
H166   H     0.96372   0.01433   0.96679   0.00000  Uiso   1.00
H167   H     0.78552   0.12292   0.86207   0.00000  Uiso   1.00
H168   H     0.96650   0.22311   0.06444   0.00000  Uiso   1.00
H169   H     0.89200   0.11313   0.57413   0.00000  Uiso   1.00
H170   H     0.91934   0.06276   0.59327   0.00000  Uiso   1.00
H171   H     0.83483   0.11425   0.54360   0.00000  Uiso   1.00
H172   H     0.92065   0.16177   0.63957   0.00000  Uiso   1.00
H173   H     0.95149   0.00788   0.52924   0.00000  Uiso   1.00
H174   H     0.77329   0.11648   0.42451   0.00000  Uiso   1.00
H175   H     0.95427   0.21667   0.62688   0.00000  Uiso   1.00
O176   O     0.97583   0.97810   0.24875   0.00000  Uiso   1.00
O177   O     0.74205   0.12057   0.11135   0.00000  Uiso   1.00
O178   O     0.97948   0.25202   0.37685   0.00000  Uiso   1.00
N179   N     0.95709   0.01973   0.09654   0.00000  Uiso   1.00
N180   N     0.79049   0.12125   0.99863   0.00000  Uiso   1.00
N181   N     0.95968   0.21493   0.18782   0.00000  Uiso   1.00
N182   N     0.95051   0.01626   0.39919   0.00000  Uiso   1.00
N183   N     0.78391   0.11778   0.30128   0.00000  Uiso   1.00
N184   N     0.95310   0.21146   0.49047   0.00000  Uiso   1.00
C185   C     0.38107   0.40302   0.43229   0.00000  Uiso   1.00
C186   C     0.40925   0.41632   0.35038   0.00000  Uiso   1.00
C187   C     0.43102   0.43116   0.45010   0.00000  Uiso   1.00
C188   C     0.45511   0.44166   0.34954   0.00000  Uiso   1.00
C189   C     0.49855   0.46294   0.25177   0.00000  Uiso   1.00
C190   C     0.38128   0.37040   0.37737   0.00000  Uiso   1.00
C191   C     0.37952   0.34663   0.49978   0.00000  Uiso   1.00
C192   C     0.38006   0.31848   0.42193   0.00000  Uiso   1.00
C193   C     0.38005   0.26847   0.36606   0.00000  Uiso   1.00
C194   C     0.35546   0.41703   0.32523   0.00000  Uiso   1.00
C195   C     0.33200   0.43247   0.40380   0.00000  Uiso   1.00
C196   C     0.31080   0.44358   0.28205   0.00000  Uiso   1.00
C197   C     0.27070   0.46597   0.14522   0.00000  Uiso   1.00
C198   C     0.38514   0.39528   0.07638   0.00000  Uiso   1.00
C199   C     0.41147   0.41211   0.15706   0.00000  Uiso   1.00
C200   C     0.43553   0.42260   0.05632   0.00000  Uiso   1.00
C201   C     0.45733   0.43745   0.15587   0.00000  Uiso   1.00
C202   C     0.38349   0.36619   0.18406   0.00000  Uiso   1.00
C203   C     0.38403   0.33807   0.10601   0.00000  Uiso   1.00
C204   C     0.38228   0.31427   0.22827   0.00000  Uiso   1.00
C205   C     0.35768   0.41283   0.13191   0.00000  Uiso   1.00
C206   C     0.33651   0.42391   0.01002   0.00000  Uiso   1.00
C207   C     0.31302   0.43936   0.08839   0.00000  Uiso   1.00
H208   H     0.37934   0.40629   0.58280   0.00000  Uiso   1.00
H209   H     0.42930   0.43441   0.59971   0.00000  Uiso   1.00
H210   H     0.37780   0.34989   0.64937   0.00000  Uiso   1.00
H211   H     0.33029   0.43572   0.55340   0.00000  Uiso   1.00
H212   H     0.48567   0.46372   0.53321   0.00000  Uiso   1.00
H213   H     0.37708   0.28552   0.63793   0.00000  Uiso   1.00
H214   H     0.27689   0.46650   0.43556   0.00000  Uiso   1.00
H215   H     0.38687   0.39200   0.92587   0.00000  Uiso   1.00
H216   H     0.43724   0.41934   0.90673   0.00000  Uiso   1.00
H217   H     0.38575   0.33483   0.95640   0.00000  Uiso   1.00
H218   H     0.33823   0.42065   0.86043   0.00000  Uiso   1.00
H219   H     0.49212   0.45149   0.97076   0.00000  Uiso   1.00
H220   H     0.38352   0.27329   0.07549   0.00000  Uiso   1.00
H221   H     0.28333   0.45427   0.87312   0.00000  Uiso   1.00
O222   O     0.52190   0.47583   0.25125   0.00000  Uiso   1.00
O223   O     0.37943   0.24205   0.38865   0.00000  Uiso   1.00
O224   O     0.24798   0.47948   0.12315   0.00000  Uiso   1.00
N225   N     0.48027   0.45709   0.40346   0.00000  Uiso   1.00
N226   N     0.37875   0.29049   0.50137   0.00000  Uiso   1.00
N227   N     0.28507   0.45968   0.31218   0.00000  Uiso   1.00
N228   N     0.48374   0.45051   0.10081   0.00000  Uiso   1.00
N229   N     0.38222   0.28391   0.19872   0.00000  Uiso   1.00
N230   N     0.28854   0.45310   0.00953   0.00000  Uiso   1.00
C231   C     0.88107   0.90302   0.93229   0.00000  Uiso   1.00
C232   C     0.90925   0.91632   0.85038   0.00000  Uiso   1.00
C233   C     0.93102   0.93116   0.95010   0.00000  Uiso   1.00
C234   C     0.95511   0.94166   0.84954   0.00000  Uiso   1.00
C235   C     0.99855   0.96294   0.75177   0.00000  Uiso   1.00
C236   C     0.88128   0.87040   0.87737   0.00000  Uiso   1.00
C237   C     0.87952   0.84663   0.99978   0.00000  Uiso   1.00
C238   C     0.88006   0.81848   0.92193   0.00000  Uiso   1.00
C239   C     0.88005   0.76847   0.86606   0.00000  Uiso   1.00
C240   C     0.85546   0.91703   0.82523   0.00000  Uiso   1.00
C241   C     0.83200   0.93247   0.90380   0.00000  Uiso   1.00
C242   C     0.81080   0.94358   0.78205   0.00000  Uiso   1.00
C243   C     0.77070   0.96597   0.64522   0.00000  Uiso   1.00
C244   C     0.88514   0.89528   0.57638   0.00000  Uiso   1.00
C245   C     0.91147   0.91211   0.65706   0.00000  Uiso   1.00
C246   C     0.93553   0.92260   0.55632   0.00000  Uiso   1.00
C247   C     0.95733   0.93745   0.65587   0.00000  Uiso   1.00
C248   C     0.88349   0.86619   0.68406   0.00000  Uiso   1.00
C249   C     0.88403   0.83807   0.60601   0.00000  Uiso   1.00
C250   C     0.88228   0.81427   0.72827   0.00000  Uiso   1.00
C251   C     0.85768   0.91283   0.63191   0.00000  Uiso   1.00
C252   C     0.83651   0.92391   0.51002   0.00000  Uiso   1.00
C253   C     0.81302   0.93936   0.58839   0.00000  Uiso   1.00
H254   H     0.87934   0.90629   0.08280   0.00000  Uiso   1.00
H255   H     0.92930   0.93441   0.09971   0.00000  Uiso   1.00
H256   H     0.87780   0.84989   0.14937   0.00000  Uiso   1.00
H257   H     0.83029   0.93572   0.05340   0.00000  Uiso   1.00
H258   H     0.98567   0.96372   0.03321   0.00000  Uiso   1.00
H259   H     0.87708   0.78552   0.13793   0.00000  Uiso   1.00
H260   H     0.77689   0.96650   0.93556   0.00000  Uiso   1.00
H261   H     0.88687   0.89200   0.42587   0.00000  Uiso   1.00
H262   H     0.93724   0.91934   0.40673   0.00000  Uiso   1.00
H263   H     0.88575   0.83483   0.45640   0.00000  Uiso   1.00
H264   H     0.83823   0.92065   0.36043   0.00000  Uiso   1.00
H265   H     0.99212   0.95149   0.47076   0.00000  Uiso   1.00
H266   H     0.88352   0.77329   0.57549   0.00000  Uiso   1.00
H267   H     0.78333   0.95427   0.37312   0.00000  Uiso   1.00
O268   O     0.02190   0.97583   0.75125   0.00000  Uiso   1.00
O269   O     0.87943   0.74205   0.88865   0.00000  Uiso   1.00
O270   O     0.74798   0.97948   0.62315   0.00000  Uiso   1.00
N271   N     0.98027   0.95709   0.90346   0.00000  Uiso   1.00
N272   N     0.87875   0.79049   0.00137   0.00000  Uiso   1.00
N273   N     0.78507   0.95968   0.81218   0.00000  Uiso   1.00
N274   N     0.98374   0.95051   0.60081   0.00000  Uiso   1.00
N275   N     0.88222   0.78391   0.69872   0.00000  Uiso   1.00
N276   N     0.78854   0.95310   0.50953   0.00000  Uiso   1.00
C277   C     0.61893   0.59698   0.43229   0.00000  Uiso   1.00
C278   C     0.59075   0.58368   0.35038   0.00000  Uiso   1.00
C279   C     0.56898   0.56884   0.45010   0.00000  Uiso   1.00
C280   C     0.54489   0.55834   0.34954   0.00000  Uiso   1.00
C281   C     0.50145   0.53706   0.25177   0.00000  Uiso   1.00
C282   C     0.61872   0.62960   0.37737   0.00000  Uiso   1.00
C283   C     0.62048   0.65337   0.49978   0.00000  Uiso   1.00
C284   C     0.61994   0.68152   0.42193   0.00000  Uiso   1.00
C285   C     0.61995   0.73153   0.36606   0.00000  Uiso   1.00
C286   C     0.64454   0.58297   0.32523   0.00000  Uiso   1.00
C287   C     0.66800   0.56753   0.40380   0.00000  Uiso   1.00
C288   C     0.68920   0.55642   0.28205   0.00000  Uiso   1.00
C289   C     0.72930   0.53403   0.14522   0.00000  Uiso   1.00
C290   C     0.61486   0.60472   0.07638   0.00000  Uiso   1.00
C291   C     0.58853   0.58789   0.15706   0.00000  Uiso   1.00
C292   C     0.56447   0.57740   0.05632   0.00000  Uiso   1.00
C293   C     0.54267   0.56255   0.15587   0.00000  Uiso   1.00
C294   C     0.61651   0.63381   0.18406   0.00000  Uiso   1.00
C295   C     0.61597   0.66193   0.10601   0.00000  Uiso   1.00
C296   C     0.61772   0.68573   0.22827   0.00000  Uiso   1.00
C297   C     0.64232   0.58717   0.13191   0.00000  Uiso   1.00
C298   C     0.66349   0.57609   0.01002   0.00000  Uiso   1.00
C299   C     0.68698   0.56064   0.08839   0.00000  Uiso   1.00
H300   H     0.62066   0.59371   0.58280   0.00000  Uiso   1.00
H301   H     0.57070   0.56559   0.59971   0.00000  Uiso   1.00
H302   H     0.62220   0.65011   0.64937   0.00000  Uiso   1.00
H303   H     0.66971   0.56428   0.55340   0.00000  Uiso   1.00
H304   H     0.51433   0.53628   0.53321   0.00000  Uiso   1.00
H305   H     0.62292   0.71448   0.63793   0.00000  Uiso   1.00
H306   H     0.72311   0.53350   0.43556   0.00000  Uiso   1.00
H307   H     0.61313   0.60800   0.92587   0.00000  Uiso   1.00
H308   H     0.56276   0.58066   0.90673   0.00000  Uiso   1.00
H309   H     0.61425   0.66517   0.95640   0.00000  Uiso   1.00
H310   H     0.66177   0.57935   0.86043   0.00000  Uiso   1.00
H311   H     0.50788   0.54851   0.97076   0.00000  Uiso   1.00
H312   H     0.61648   0.72671   0.07549   0.00000  Uiso   1.00
H313   H     0.71667   0.54573   0.87312   0.00000  Uiso   1.00
O314   O     0.47810   0.52417   0.25125   0.00000  Uiso   1.00
O315   O     0.62057   0.75795   0.38865   0.00000  Uiso   1.00
O316   O     0.75202   0.52052   0.12315   0.00000  Uiso   1.00
N317   N     0.51973   0.54291   0.40346   0.00000  Uiso   1.00
N318   N     0.62125   0.70951   0.50137   0.00000  Uiso   1.00
N319   N     0.71493   0.54032   0.31218   0.00000  Uiso   1.00
N320   N     0.51626   0.54949   0.10081   0.00000  Uiso   1.00
N321   N     0.61778   0.71609   0.19872   0.00000  Uiso   1.00
N322   N     0.71146   0.54690   0.00953   0.00000  Uiso   1.00
C323   C     0.11893   0.09698   0.93229   0.00000  Uiso   1.00
C324   C     0.09075   0.08368   0.85038   0.00000  Uiso   1.00
C325   C     0.06898   0.06884   0.95010   0.00000  Uiso   1.00
C326   C     0.04489   0.05834   0.84954   0.00000  Uiso   1.00
C327   C     0.00145   0.03706   0.75177   0.00000  Uiso   1.00
C328   C     0.11872   0.12960   0.87737   0.00000  Uiso   1.00
C329   C     0.12048   0.15337   0.99978   0.00000  Uiso   1.00
C330   C     0.11994   0.18152   0.92193   0.00000  Uiso   1.00
C331   C     0.11995   0.23153   0.86606   0.00000  Uiso   1.00
C332   C     0.14454   0.08297   0.82523   0.00000  Uiso   1.00
C333   C     0.16800   0.06753   0.90380   0.00000  Uiso   1.00
C334   C     0.18920   0.05642   0.78205   0.00000  Uiso   1.00
C335   C     0.22930   0.03403   0.64522   0.00000  Uiso   1.00
C336   C     0.11486   0.10472   0.57638   0.00000  Uiso   1.00
C337   C     0.08853   0.08789   0.65706   0.00000  Uiso   1.00
C338   C     0.06447   0.07740   0.55632   0.00000  Uiso   1.00
C339   C     0.04267   0.06255   0.65587   0.00000  Uiso   1.00
C340   C     0.11651   0.13381   0.68406   0.00000  Uiso   1.00
C341   C     0.11597   0.16193   0.60601   0.00000  Uiso   1.00
C342   C     0.11772   0.18573   0.72827   0.00000  Uiso   1.00
C343   C     0.14232   0.08717   0.63191   0.00000  Uiso   1.00
C344   C     0.16349   0.07609   0.51002   0.00000  Uiso   1.00
C345   C     0.18698   0.06064   0.58839   0.00000  Uiso   1.00
H346   H     0.12066   0.09371   0.08280   0.00000  Uiso   1.00
H347   H     0.07070   0.06559   0.09971   0.00000  Uiso   1.00
H348   H     0.12220   0.15011   0.14937   0.00000  Uiso   1.00
H349   H     0.16971   0.06428   0.05340   0.00000  Uiso   1.00
H350   H     0.01433   0.03628   0.03321   0.00000  Uiso   1.00
H351   H     0.12292   0.21448   0.13793   0.00000  Uiso   1.00
H352   H     0.22311   0.03350   0.93556   0.00000  Uiso   1.00
H353   H     0.11313   0.10800   0.42587   0.00000  Uiso   1.00
H354   H     0.06276   0.08066   0.40673   0.00000  Uiso   1.00
H355   H     0.11425   0.16517   0.45640   0.00000  Uiso   1.00
H356   H     0.16177   0.07935   0.36043   0.00000  Uiso   1.00
H357   H     0.00788   0.04851   0.47076   0.00000  Uiso   1.00
H358   H     0.11648   0.22671   0.57549   0.00000  Uiso   1.00
H359   H     0.21667   0.04573   0.37312   0.00000  Uiso   1.00
O360   O     0.97810   0.02417   0.75125   0.00000  Uiso   1.00
O361   O     0.12057   0.25795   0.88865   0.00000  Uiso   1.00
O362   O     0.25202   0.02052   0.62315   0.00000  Uiso   1.00
N363   N     0.01973   0.04291   0.90346   0.00000  Uiso   1.00
N364   N     0.12125   0.20951   0.00137   0.00000  Uiso   1.00
N365   N     0.21493   0.04032   0.81218   0.00000  Uiso   1.00
N366   N     0.01626   0.04949   0.60081   0.00000  Uiso   1.00
N367   N     0.11778   0.21609   0.69872   0.00000  Uiso   1.00
N368   N     0.21146   0.04690   0.50953   0.00000  Uiso   1.00
C369   C     0.90302   0.38107   0.18229   0.00000  Uiso   1.00
C370   C     0.91632   0.40925   0.10038   0.00000  Uiso   1.00
C371   C     0.93116   0.43102   0.20010   0.00000  Uiso   1.00
C372   C     0.94166   0.45511   0.09954   0.00000  Uiso   1.00
C373   C     0.96294   0.49855   0.00177   0.00000  Uiso   1.00
C374   C     0.87040   0.38128   0.12737   0.00000  Uiso   1.00
C375   C     0.84663   0.37952   0.24978   0.00000  Uiso   1.00
C376   C     0.81848   0.38006   0.17193   0.00000  Uiso   1.00
C377   C     0.76847   0.38005   0.11606   0.00000  Uiso   1.00
C378   C     0.91703   0.35546   0.07523   0.00000  Uiso   1.00
C379   C     0.93247   0.33200   0.15380   0.00000  Uiso   1.00
C380   C     0.94358   0.31080   0.03205   0.00000  Uiso   1.00
C381   C     0.96597   0.27070   0.89522   0.00000  Uiso   1.00
C382   C     0.89528   0.38514   0.82638   0.00000  Uiso   1.00
C383   C     0.91211   0.41147   0.90706   0.00000  Uiso   1.00
C384   C     0.92260   0.43553   0.80632   0.00000  Uiso   1.00
C385   C     0.93745   0.45733   0.90587   0.00000  Uiso   1.00
C386   C     0.86619   0.38349   0.93406   0.00000  Uiso   1.00
C387   C     0.83807   0.38403   0.85601   0.00000  Uiso   1.00
C388   C     0.81427   0.38228   0.97827   0.00000  Uiso   1.00
C389   C     0.91283   0.35768   0.88191   0.00000  Uiso   1.00
C390   C     0.92391   0.33651   0.76002   0.00000  Uiso   1.00
C391   C     0.93936   0.31302   0.83839   0.00000  Uiso   1.00
H392   H     0.90629   0.37934   0.33280   0.00000  Uiso   1.00
H393   H     0.93441   0.42930   0.34971   0.00000  Uiso   1.00
H394   H     0.84989   0.37780   0.39937   0.00000  Uiso   1.00
H395   H     0.93572   0.33029   0.30340   0.00000  Uiso   1.00
H396   H     0.96372   0.48567   0.28321   0.00000  Uiso   1.00
H397   H     0.78552   0.37708   0.38793   0.00000  Uiso   1.00
H398   H     0.96650   0.27689   0.18556   0.00000  Uiso   1.00
H399   H     0.89200   0.38687   0.67587   0.00000  Uiso   1.00
H400   H     0.91934   0.43724   0.65673   0.00000  Uiso   1.00
H401   H     0.83483   0.38575   0.70640   0.00000  Uiso   1.00
H402   H     0.92065   0.33823   0.61043   0.00000  Uiso   1.00
H403   H     0.95149   0.49212   0.72076   0.00000  Uiso   1.00
H404   H     0.77329   0.38352   0.82549   0.00000  Uiso   1.00
H405   H     0.95427   0.28333   0.62312   0.00000  Uiso   1.00
O406   O     0.97583   0.52190   0.00125   0.00000  Uiso   1.00
O407   O     0.74205   0.37943   0.13865   0.00000  Uiso   1.00
O408   O     0.97948   0.24798   0.87315   0.00000  Uiso   1.00
N409   N     0.95709   0.48027   0.15346   0.00000  Uiso   1.00
N410   N     0.79049   0.37875   0.25137   0.00000  Uiso   1.00
N411   N     0.95968   0.28507   0.06218   0.00000  Uiso   1.00
N412   N     0.95051   0.48374   0.85081   0.00000  Uiso   1.00
N413   N     0.78391   0.38222   0.94872   0.00000  Uiso   1.00
N414   N     0.95310   0.28854   0.75953   0.00000  Uiso   1.00
C415   C     0.40302   0.88107   0.68229   0.00000  Uiso   1.00
C416   C     0.41632   0.90925   0.60038   0.00000  Uiso   1.00
C417   C     0.43116   0.93102   0.70010   0.00000  Uiso   1.00
C418   C     0.44166   0.95511   0.59954   0.00000  Uiso   1.00
C419   C     0.46294   0.99855   0.50177   0.00000  Uiso   1.00
C420   C     0.37040   0.88128   0.62737   0.00000  Uiso   1.00
C421   C     0.34663   0.87952   0.74978   0.00000  Uiso   1.00
C422   C     0.31848   0.88006   0.67193   0.00000  Uiso   1.00
C423   C     0.26847   0.88005   0.61606   0.00000  Uiso   1.00
C424   C     0.41703   0.85546   0.57523   0.00000  Uiso   1.00
C425   C     0.43247   0.83200   0.65380   0.00000  Uiso   1.00
C426   C     0.44358   0.81080   0.53205   0.00000  Uiso   1.00
C427   C     0.46597   0.77070   0.39522   0.00000  Uiso   1.00
C428   C     0.39528   0.88514   0.32638   0.00000  Uiso   1.00
C429   C     0.41211   0.91147   0.40706   0.00000  Uiso   1.00
C430   C     0.42260   0.93553   0.30632   0.00000  Uiso   1.00
C431   C     0.43745   0.95733   0.40587   0.00000  Uiso   1.00
C432   C     0.36619   0.88349   0.43406   0.00000  Uiso   1.00
C433   C     0.33807   0.88403   0.35601   0.00000  Uiso   1.00
C434   C     0.31427   0.88228   0.47827   0.00000  Uiso   1.00
C435   C     0.41283   0.85768   0.38191   0.00000  Uiso   1.00
C436   C     0.42391   0.83651   0.26002   0.00000  Uiso   1.00
C437   C     0.43936   0.81302   0.33839   0.00000  Uiso   1.00
H438   H     0.40629   0.87934   0.83280   0.00000  Uiso   1.00
H439   H     0.43441   0.92930   0.84971   0.00000  Uiso   1.00
H440   H     0.34989   0.87780   0.89937   0.00000  Uiso   1.00
H441   H     0.43572   0.83029   0.80340   0.00000  Uiso   1.00
H442   H     0.46372   0.98567   0.78321   0.00000  Uiso   1.00
H443   H     0.28552   0.87708   0.88793   0.00000  Uiso   1.00
H444   H     0.46650   0.77689   0.68556   0.00000  Uiso   1.00
H445   H     0.39200   0.88687   0.17587   0.00000  Uiso   1.00
H446   H     0.41934   0.93724   0.15673   0.00000  Uiso   1.00
H447   H     0.33483   0.88575   0.20640   0.00000  Uiso   1.00
H448   H     0.42065   0.83823   0.11043   0.00000  Uiso   1.00
H449   H     0.45149   0.99212   0.22076   0.00000  Uiso   1.00
H450   H     0.27329   0.88352   0.32549   0.00000  Uiso   1.00
H451   H     0.45427   0.78333   0.12312   0.00000  Uiso   1.00
O452   O     0.47583   0.02190   0.50125   0.00000  Uiso   1.00
O453   O     0.24205   0.87943   0.63865   0.00000  Uiso   1.00
O454   O     0.47948   0.74798   0.37315   0.00000  Uiso   1.00
N455   N     0.45709   0.98027   0.65346   0.00000  Uiso   1.00
N456   N     0.29049   0.87875   0.75137   0.00000  Uiso   1.00
N457   N     0.45968   0.78507   0.56218   0.00000  Uiso   1.00
N458   N     0.45051   0.98374   0.35081   0.00000  Uiso   1.00
N459   N     0.28391   0.88222   0.44872   0.00000  Uiso   1.00
N460   N     0.45310   0.78854   0.25953   0.00000  Uiso   1.00
C461   C     0.09698   0.61893   0.18229   0.00000  Uiso   1.00
C462   C     0.08368   0.59075   0.10038   0.00000  Uiso   1.00
C463   C     0.06884   0.56898   0.20010   0.00000  Uiso   1.00
C464   C     0.05834   0.54489   0.09954   0.00000  Uiso   1.00
C465   C     0.03706   0.50145   0.00177   0.00000  Uiso   1.00
C466   C     0.12960   0.61872   0.12737   0.00000  Uiso   1.00
C467   C     0.15337   0.62048   0.24978   0.00000  Uiso   1.00
C468   C     0.18152   0.61994   0.17193   0.00000  Uiso   1.00
C469   C     0.23153   0.61995   0.11606   0.00000  Uiso   1.00
C470   C     0.08297   0.64454   0.07523   0.00000  Uiso   1.00
C471   C     0.06753   0.66800   0.15380   0.00000  Uiso   1.00
C472   C     0.05642   0.68920   0.03205   0.00000  Uiso   1.00
C473   C     0.03403   0.72930   0.89522   0.00000  Uiso   1.00
C474   C     0.10472   0.61486   0.82638   0.00000  Uiso   1.00
C475   C     0.08789   0.58853   0.90706   0.00000  Uiso   1.00
C476   C     0.07740   0.56447   0.80632   0.00000  Uiso   1.00
C477   C     0.06255   0.54267   0.90587   0.00000  Uiso   1.00
C478   C     0.13381   0.61651   0.93406   0.00000  Uiso   1.00
C479   C     0.16193   0.61597   0.85601   0.00000  Uiso   1.00
C480   C     0.18573   0.61772   0.97827   0.00000  Uiso   1.00
C481   C     0.08717   0.64232   0.88191   0.00000  Uiso   1.00
C482   C     0.07609   0.66349   0.76002   0.00000  Uiso   1.00
C483   C     0.06064   0.68698   0.83839   0.00000  Uiso   1.00
H484   H     0.09371   0.62066   0.33280   0.00000  Uiso   1.00
H485   H     0.06559   0.57070   0.34971   0.00000  Uiso   1.00
H486   H     0.15011   0.62220   0.39937   0.00000  Uiso   1.00
H487   H     0.06428   0.66971   0.30340   0.00000  Uiso   1.00
H488   H     0.03628   0.51433   0.28321   0.00000  Uiso   1.00
H489   H     0.21448   0.62292   0.38793   0.00000  Uiso   1.00
H490   H     0.03350   0.72311   0.18556   0.00000  Uiso   1.00
H491   H     0.10800   0.61313   0.67587   0.00000  Uiso   1.00
H492   H     0.08066   0.56276   0.65673   0.00000  Uiso   1.00
H493   H     0.16517   0.61425   0.70640   0.00000  Uiso   1.00
H494   H     0.07935   0.66177   0.61043   0.00000  Uiso   1.00
H495   H     0.04851   0.50788   0.72076   0.00000  Uiso   1.00
H496   H     0.22671   0.61648   0.82549   0.00000  Uiso   1.00
H497   H     0.04573   0.71667   0.62312   0.00000  Uiso   1.00
O498   O     0.02417   0.47810   0.00125   0.00000  Uiso   1.00
O499   O     0.25795   0.62057   0.13865   0.00000  Uiso   1.00
O500   O     0.02052   0.75202   0.87315   0.00000  Uiso   1.00
N501   N     0.04291   0.51973   0.15346   0.00000  Uiso   1.00
N502   N     0.20951   0.62125   0.25137   0.00000  Uiso   1.00
N503   N     0.04032   0.71493   0.06218   0.00000  Uiso   1.00
N504   N     0.04949   0.51626   0.85081   0.00000  Uiso   1.00
N505   N     0.21609   0.61778   0.94872   0.00000  Uiso   1.00
N506   N     0.04690   0.71146   0.75953   0.00000  Uiso   1.00
C507   C     0.59698   0.11893   0.68229   0.00000  Uiso   1.00
C508   C     0.58368   0.09075   0.60038   0.00000  Uiso   1.00
C509   C     0.56884   0.06898   0.70010   0.00000  Uiso   1.00
C510   C     0.55834   0.04489   0.59954   0.00000  Uiso   1.00
C511   C     0.53706   0.00145   0.50177   0.00000  Uiso   1.00
C512   C     0.62960   0.11872   0.62737   0.00000  Uiso   1.00
C513   C     0.65337   0.12048   0.74978   0.00000  Uiso   1.00
C514   C     0.68152   0.11994   0.67193   0.00000  Uiso   1.00
C515   C     0.73153   0.11995   0.61606   0.00000  Uiso   1.00
C516   C     0.58297   0.14454   0.57523   0.00000  Uiso   1.00
C517   C     0.56753   0.16800   0.65380   0.00000  Uiso   1.00
C518   C     0.55642   0.18920   0.53205   0.00000  Uiso   1.00
C519   C     0.53403   0.22930   0.39522   0.00000  Uiso   1.00
C520   C     0.60472   0.11486   0.32638   0.00000  Uiso   1.00
C521   C     0.58789   0.08853   0.40706   0.00000  Uiso   1.00
C522   C     0.57740   0.06447   0.30632   0.00000  Uiso   1.00
C523   C     0.56255   0.04267   0.40587   0.00000  Uiso   1.00
C524   C     0.63381   0.11651   0.43406   0.00000  Uiso   1.00
C525   C     0.66193   0.11597   0.35601   0.00000  Uiso   1.00
C526   C     0.68573   0.11772   0.47827   0.00000  Uiso   1.00
C527   C     0.58717   0.14232   0.38191   0.00000  Uiso   1.00
C528   C     0.57609   0.16349   0.26002   0.00000  Uiso   1.00
C529   C     0.56064   0.18698   0.33839   0.00000  Uiso   1.00
H530   H     0.59371   0.12066   0.83280   0.00000  Uiso   1.00
H531   H     0.56559   0.07070   0.84971   0.00000  Uiso   1.00
H532   H     0.65011   0.12220   0.89937   0.00000  Uiso   1.00
H533   H     0.56428   0.16971   0.80340   0.00000  Uiso   1.00
H534   H     0.53628   0.01433   0.78321   0.00000  Uiso   1.00
H535   H     0.71448   0.12292   0.88793   0.00000  Uiso   1.00
H536   H     0.53350   0.22311   0.68556   0.00000  Uiso   1.00
H537   H     0.60800   0.11313   0.17587   0.00000  Uiso   1.00
H538   H     0.58066   0.06276   0.15673   0.00000  Uiso   1.00
H539   H     0.66517   0.11425   0.20640   0.00000  Uiso   1.00
H540   H     0.57935   0.16177   0.11043   0.00000  Uiso   1.00
H541   H     0.54851   0.00788   0.22076   0.00000  Uiso   1.00
H542   H     0.72671   0.11648   0.32549   0.00000  Uiso   1.00
H543   H     0.54573   0.21667   0.12312   0.00000  Uiso   1.00
O544   O     0.52417   0.97810   0.50125   0.00000  Uiso   1.00
O545   O     0.75795   0.12057   0.63865   0.00000  Uiso   1.00
O546   O     0.52052   0.25202   0.37315   0.00000  Uiso   1.00
N547   N     0.54291   0.01973   0.65346   0.00000  Uiso   1.00
N548   N     0.70951   0.12125   0.75137   0.00000  Uiso   1.00
N549   N     0.54032   0.21493   0.56218   0.00000  Uiso   1.00
N550   N     0.54949   0.01626   0.35081   0.00000  Uiso   1.00
N551   N     0.71609   0.11778   0.44872   0.00000  Uiso   1.00
N552   N     0.54690   0.21146   0.25953   0.00000  Uiso   1.00
C553   C     0.11893   0.40302   0.31771   0.00000  Uiso   1.00
C554   C     0.09075   0.41632   0.39962   0.00000  Uiso   1.00
C555   C     0.06898   0.43116   0.29990   0.00000  Uiso   1.00
C556   C     0.04489   0.44166   0.40046   0.00000  Uiso   1.00
C557   C     0.00145   0.46294   0.49823   0.00000  Uiso   1.00
C558   C     0.11872   0.37040   0.37263   0.00000  Uiso   1.00
C559   C     0.12048   0.34663   0.25022   0.00000  Uiso   1.00
C560   C     0.11994   0.31848   0.32807   0.00000  Uiso   1.00
C561   C     0.11995   0.26847   0.38394   0.00000  Uiso   1.00
C562   C     0.14454   0.41703   0.42477   0.00000  Uiso   1.00
C563   C     0.16800   0.43247   0.34620   0.00000  Uiso   1.00
C564   C     0.18920   0.44358   0.46795   0.00000  Uiso   1.00
C565   C     0.22930   0.46597   0.60478   0.00000  Uiso   1.00
C566   C     0.11486   0.39528   0.67362   0.00000  Uiso   1.00
C567   C     0.08853   0.41211   0.59294   0.00000  Uiso   1.00
C568   C     0.06447   0.42260   0.69368   0.00000  Uiso   1.00
C569   C     0.04267   0.43745   0.59413   0.00000  Uiso   1.00
C570   C     0.11651   0.36619   0.56594   0.00000  Uiso   1.00
C571   C     0.11597   0.33807   0.64399   0.00000  Uiso   1.00
C572   C     0.11772   0.31427   0.52173   0.00000  Uiso   1.00
C573   C     0.14232   0.41283   0.61809   0.00000  Uiso   1.00
C574   C     0.16349   0.42391   0.73998   0.00000  Uiso   1.00
C575   C     0.18698   0.43936   0.66161   0.00000  Uiso   1.00
H576   H     0.12066   0.40629   0.16720   0.00000  Uiso   1.00
H577   H     0.07070   0.43441   0.15029   0.00000  Uiso   1.00
H578   H     0.12220   0.34989   0.10063   0.00000  Uiso   1.00
H579   H     0.16971   0.43572   0.19660   0.00000  Uiso   1.00
H580   H     0.01433   0.46372   0.21679   0.00000  Uiso   1.00
H581   H     0.12292   0.28552   0.11207   0.00000  Uiso   1.00
H582   H     0.22311   0.46650   0.31444   0.00000  Uiso   1.00
H583   H     0.11313   0.39200   0.82413   0.00000  Uiso   1.00
H584   H     0.06276   0.41934   0.84327   0.00000  Uiso   1.00
H585   H     0.11425   0.33483   0.79360   0.00000  Uiso   1.00
H586   H     0.16177   0.42065   0.88957   0.00000  Uiso   1.00
H587   H     0.00788   0.45149   0.77924   0.00000  Uiso   1.00
H588   H     0.11648   0.27329   0.67451   0.00000  Uiso   1.00
H589   H     0.21667   0.45427   0.87688   0.00000  Uiso   1.00
O590   O     0.97810   0.47583   0.49875   0.00000  Uiso   1.00
O591   O     0.12057   0.24205   0.36135   0.00000  Uiso   1.00
O592   O     0.25202   0.47948   0.62685   0.00000  Uiso   1.00
N593   N     0.01973   0.45709   0.34654   0.00000  Uiso   1.00
N594   N     0.12125   0.29049   0.24863   0.00000  Uiso   1.00
N595   N     0.21493   0.45968   0.43782   0.00000  Uiso   1.00
N596   N     0.01626   0.45051   0.64919   0.00000  Uiso   1.00
N597   N     0.11778   0.28391   0.55128   0.00000  Uiso   1.00
N598   N     0.21146   0.45310   0.74047   0.00000  Uiso   1.00
C599   C     0.61893   0.90302   0.81771   0.00000  Uiso   1.00
C600   C     0.59075   0.91632   0.89962   0.00000  Uiso   1.00
C601   C     0.56898   0.93116   0.79990   0.00000  Uiso   1.00
C602   C     0.54489   0.94166   0.90046   0.00000  Uiso   1.00
C603   C     0.50145   0.96294   0.99823   0.00000  Uiso   1.00
C604   C     0.61872   0.87040   0.87263   0.00000  Uiso   1.00
C605   C     0.62048   0.84663   0.75022   0.00000  Uiso   1.00
C606   C     0.61994   0.81848   0.82807   0.00000  Uiso   1.00
C607   C     0.61995   0.76847   0.88394   0.00000  Uiso   1.00
C608   C     0.64454   0.91703   0.92477   0.00000  Uiso   1.00
C609   C     0.66800   0.93247   0.84620   0.00000  Uiso   1.00
C610   C     0.68920   0.94358   0.96795   0.00000  Uiso   1.00
C611   C     0.72930   0.96597   0.10478   0.00000  Uiso   1.00
C612   C     0.61486   0.89528   0.17362   0.00000  Uiso   1.00
C613   C     0.58853   0.91211   0.09294   0.00000  Uiso   1.00
C614   C     0.56447   0.92260   0.19368   0.00000  Uiso   1.00
C615   C     0.54267   0.93745   0.09413   0.00000  Uiso   1.00
C616   C     0.61651   0.86619   0.06594   0.00000  Uiso   1.00
C617   C     0.61597   0.83807   0.14399   0.00000  Uiso   1.00
C618   C     0.61772   0.81427   0.02173   0.00000  Uiso   1.00
C619   C     0.64232   0.91283   0.11809   0.00000  Uiso   1.00
C620   C     0.66349   0.92391   0.23998   0.00000  Uiso   1.00
C621   C     0.68698   0.93936   0.16161   0.00000  Uiso   1.00
H622   H     0.62066   0.90629   0.66720   0.00000  Uiso   1.00
H623   H     0.57070   0.93441   0.65029   0.00000  Uiso   1.00
H624   H     0.62220   0.84989   0.60063   0.00000  Uiso   1.00
H625   H     0.66971   0.93572   0.69660   0.00000  Uiso   1.00
H626   H     0.51433   0.96372   0.71679   0.00000  Uiso   1.00
H627   H     0.62292   0.78552   0.61207   0.00000  Uiso   1.00
H628   H     0.72311   0.96650   0.81444   0.00000  Uiso   1.00
H629   H     0.61313   0.89200   0.32413   0.00000  Uiso   1.00
H630   H     0.56276   0.91934   0.34327   0.00000  Uiso   1.00
H631   H     0.61425   0.83483   0.29360   0.00000  Uiso   1.00
H632   H     0.66177   0.92065   0.38957   0.00000  Uiso   1.00
H633   H     0.50788   0.95149   0.27924   0.00000  Uiso   1.00
H634   H     0.61648   0.77329   0.17451   0.00000  Uiso   1.00
H635   H     0.71667   0.95427   0.37688   0.00000  Uiso   1.00
O636   O     0.47810   0.97583   0.99875   0.00000  Uiso   1.00
O637   O     0.62057   0.74205   0.86135   0.00000  Uiso   1.00
O638   O     0.75202   0.97948   0.12685   0.00000  Uiso   1.00
N639   N     0.51973   0.95709   0.84654   0.00000  Uiso   1.00
N640   N     0.62125   0.79049   0.74863   0.00000  Uiso   1.00
N641   N     0.71493   0.95968   0.93782   0.00000  Uiso   1.00
N642   N     0.51626   0.95051   0.14919   0.00000  Uiso   1.00
N643   N     0.61778   0.78391   0.05128   0.00000  Uiso   1.00
N644   N     0.71146   0.95310   0.24047   0.00000  Uiso   1.00
C645   C     0.88107   0.59698   0.31771   0.00000  Uiso   1.00
C646   C     0.90925   0.58368   0.39962   0.00000  Uiso   1.00
C647   C     0.93102   0.56884   0.29990   0.00000  Uiso   1.00
C648   C     0.95511   0.55834   0.40046   0.00000  Uiso   1.00
C649   C     0.99855   0.53706   0.49823   0.00000  Uiso   1.00
C650   C     0.88128   0.62960   0.37263   0.00000  Uiso   1.00
C651   C     0.87952   0.65337   0.25022   0.00000  Uiso   1.00
C652   C     0.88006   0.68152   0.32807   0.00000  Uiso   1.00
C653   C     0.88005   0.73153   0.38394   0.00000  Uiso   1.00
C654   C     0.85546   0.58297   0.42477   0.00000  Uiso   1.00
C655   C     0.83200   0.56753   0.34620   0.00000  Uiso   1.00
C656   C     0.81080   0.55642   0.46795   0.00000  Uiso   1.00
C657   C     0.77070   0.53403   0.60478   0.00000  Uiso   1.00
C658   C     0.88514   0.60472   0.67362   0.00000  Uiso   1.00
C659   C     0.91147   0.58789   0.59294   0.00000  Uiso   1.00
C660   C     0.93553   0.57740   0.69368   0.00000  Uiso   1.00
C661   C     0.95733   0.56255   0.59413   0.00000  Uiso   1.00
C662   C     0.88349   0.63381   0.56594   0.00000  Uiso   1.00
C663   C     0.88403   0.66193   0.64399   0.00000  Uiso   1.00
C664   C     0.88228   0.68573   0.52173   0.00000  Uiso   1.00
C665   C     0.85768   0.58717   0.61809   0.00000  Uiso   1.00
C666   C     0.83651   0.57609   0.73998   0.00000  Uiso   1.00
C667   C     0.81302   0.56064   0.66161   0.00000  Uiso   1.00
H668   H     0.87934   0.59371   0.16720   0.00000  Uiso   1.00
H669   H     0.92930   0.56559   0.15029   0.00000  Uiso   1.00
H670   H     0.87780   0.65011   0.10063   0.00000  Uiso   1.00
H671   H     0.83029   0.56428   0.19660   0.00000  Uiso   1.00
H672   H     0.98567   0.53628   0.21679   0.00000  Uiso   1.00
H673   H     0.87708   0.71448   0.11207   0.00000  Uiso   1.00
H674   H     0.77689   0.53350   0.31444   0.00000  Uiso   1.00
H675   H     0.88687   0.60800   0.82413   0.00000  Uiso   1.00
H676   H     0.93724   0.58066   0.84327   0.00000  Uiso   1.00
H677   H     0.88575   0.66517   0.79360   0.00000  Uiso   1.00
H678   H     0.83823   0.57935   0.88957   0.00000  Uiso   1.00
H679   H     0.99212   0.54851   0.77924   0.00000  Uiso   1.00
H680   H     0.88352   0.72671   0.67451   0.00000  Uiso   1.00
H681   H     0.78333   0.54573   0.87688   0.00000  Uiso   1.00
O682   O     0.02190   0.52417   0.49875   0.00000  Uiso   1.00
O683   O     0.87943   0.75795   0.36135   0.00000  Uiso   1.00
O684   O     0.74798   0.52052   0.62685   0.00000  Uiso   1.00
N685   N     0.98027   0.54291   0.34654   0.00000  Uiso   1.00
N686   N     0.87875   0.70951   0.24863   0.00000  Uiso   1.00
N687   N     0.78507   0.54032   0.43782   0.00000  Uiso   1.00
N688   N     0.98374   0.54949   0.64919   0.00000  Uiso   1.00
N689   N     0.88222   0.71609   0.55128   0.00000  Uiso   1.00
N690   N     0.78854   0.54690   0.74047   0.00000  Uiso   1.00
C691   C     0.38107   0.09698   0.81771   0.00000  Uiso   1.00
C692   C     0.40925   0.08368   0.89962   0.00000  Uiso   1.00
C693   C     0.43102   0.06884   0.79990   0.00000  Uiso   1.00
C694   C     0.45511   0.05834   0.90046   0.00000  Uiso   1.00
C695   C     0.49855   0.03706   0.99823   0.00000  Uiso   1.00
C696   C     0.38128   0.12960   0.87263   0.00000  Uiso   1.00
C697   C     0.37952   0.15337   0.75022   0.00000  Uiso   1.00
C698   C     0.38006   0.18152   0.82807   0.00000  Uiso   1.00
C699   C     0.38005   0.23153   0.88394   0.00000  Uiso   1.00
C700   C     0.35546   0.08297   0.92477   0.00000  Uiso   1.00
C701   C     0.33200   0.06753   0.84620   0.00000  Uiso   1.00
C702   C     0.31080   0.05642   0.96795   0.00000  Uiso   1.00
C703   C     0.27070   0.03403   0.10478   0.00000  Uiso   1.00
C704   C     0.38514   0.10472   0.17362   0.00000  Uiso   1.00
C705   C     0.41147   0.08789   0.09294   0.00000  Uiso   1.00
C706   C     0.43553   0.07740   0.19368   0.00000  Uiso   1.00
C707   C     0.45733   0.06255   0.09413   0.00000  Uiso   1.00
C708   C     0.38349   0.13381   0.06594   0.00000  Uiso   1.00
C709   C     0.38403   0.16193   0.14399   0.00000  Uiso   1.00
C710   C     0.38228   0.18573   0.02173   0.00000  Uiso   1.00
C711   C     0.35768   0.08717   0.11809   0.00000  Uiso   1.00
C712   C     0.33651   0.07609   0.23998   0.00000  Uiso   1.00
C713   C     0.31302   0.06064   0.16161   0.00000  Uiso   1.00
H714   H     0.37934   0.09371   0.66720   0.00000  Uiso   1.00
H715   H     0.42930   0.06559   0.65029   0.00000  Uiso   1.00
H716   H     0.37780   0.15011   0.60063   0.00000  Uiso   1.00
H717   H     0.33029   0.06428   0.69660   0.00000  Uiso   1.00
H718   H     0.48567   0.03628   0.71679   0.00000  Uiso   1.00
H719   H     0.37708   0.21448   0.61207   0.00000  Uiso   1.00
H720   H     0.27689   0.03350   0.81444   0.00000  Uiso   1.00
H721   H     0.38687   0.10800   0.32413   0.00000  Uiso   1.00
H722   H     0.43724   0.08066   0.34327   0.00000  Uiso   1.00
H723   H     0.38575   0.16517   0.29360   0.00000  Uiso   1.00
H724   H     0.33823   0.07935   0.38957   0.00000  Uiso   1.00
H725   H     0.49212   0.04851   0.27924   0.00000  Uiso   1.00
H726   H     0.38352   0.22671   0.17451   0.00000  Uiso   1.00
H727   H     0.28333   0.04573   0.37688   0.00000  Uiso   1.00
O728   O     0.52190   0.02417   0.99875   0.00000  Uiso   1.00
O729   O     0.37943   0.25795   0.86135   0.00000  Uiso   1.00
O730   O     0.24798   0.02052   0.12685   0.00000  Uiso   1.00
N731   N     0.48027   0.04291   0.84654   0.00000  Uiso   1.00
N732   N     0.37875   0.20951   0.74863   0.00000  Uiso   1.00
N733   N     0.28507   0.04032   0.93782   0.00000  Uiso   1.00
N734   N     0.48374   0.04949   0.14919   0.00000  Uiso   1.00
N735   N     0.38222   0.21609   0.05128   0.00000  Uiso   1.00
N736   N     0.28854   0.04690   0.24047   0.00000  Uiso   1.00
