data_job_02214
_audit_creation_date              2018-12-19
_audit_creation_method            'Materials Studio'
_symmetry_space_group_name_H-M    'P1'
_symmetry_Int_Tables_number       1
_symmetry_cell_setting            triclinic
loop_
_symmetry_equiv_pos_as_xyz
  x,y,z
_cell_length_a                    15.8902
_cell_length_b                    15.8902
_cell_length_c                    42.3548
_cell_angle_alpha                 90.0000
_cell_angle_beta                  90.0000
_cell_angle_gamma                 90.0000
loop_
_atom_site_label
_atom_site_type_symbol
_atom_site_fract_x
_atom_site_fract_y
_atom_site_fract_z
_atom_site_U_iso_or_equiv
_atom_site_adp_type
_atom_site_occupancy
C1     C     0.63078   0.41797   0.19137   0.00000  Uiso   1.00
C2     C     0.58299   0.39495   0.16137   0.00000  Uiso   1.00
C3     C     0.49682   0.40270   0.15689   0.00000  Uiso   1.00
C4     C     0.46520   0.37822   0.12774   0.00000  Uiso   1.00
C5     C     0.38296   0.34716   0.08478   0.00000  Uiso   1.00
C6     C     0.67785   0.33865   0.20132   0.00000  Uiso   1.00
C7     C     0.67145   0.29907   0.23043   0.00000  Uiso   1.00
C8     C     0.71969   0.22721   0.23491   0.00000  Uiso   1.00
C9     C     0.78477   0.10879   0.25398   0.00000  Uiso   1.00
C10    C     0.69803   0.48107   0.18142   0.00000  Uiso   1.00
C11    C     0.70862   0.56124   0.19380   0.00000  Uiso   1.00
C12    C     0.77387   0.60928   0.18153   0.00000  Uiso   1.00
C13    C     0.87029   0.71199   0.16970   0.00000  Uiso   1.00
C14    C     0.72785   0.36073   0.14758   0.00000  Uiso   1.00
C15    C     0.63571   0.36385   0.13758   0.00000  Uiso   1.00
C16    C     0.60422   0.33936   0.10843   0.00000  Uiso   1.00
C17    C     0.51802   0.34707   0.10391   0.00000  Uiso   1.00
C18    C     0.73057   0.30756   0.17753   0.00000  Uiso   1.00
C19    C     0.77884   0.23574   0.18197   0.00000  Uiso   1.00
C20    C     0.77251   0.19606   0.21108   0.00000  Uiso   1.00
C21    C     0.75076   0.44998   0.15763   0.00000  Uiso   1.00
C22    C     0.81601   0.49790   0.14534   0.00000  Uiso   1.00
C23    C     0.82669   0.57813   0.15770   0.00000  Uiso   1.00
H24    H     0.58973   0.44217   0.20989   0.00000  Uiso   1.00
H25    H     0.45603   0.42675   0.17531   0.00000  Uiso   1.00
H26    H     0.63064   0.32315   0.24883   0.00000  Uiso   1.00
H27    H     0.66781   0.58528   0.21221   0.00000  Uiso   1.00
H28    H     0.33105   0.39592   0.12647   0.00000  Uiso   1.00
H29    H     0.69924   0.17749   0.28152   0.00000  Uiso   1.00
H30    H     0.77761   0.73023   0.20428   0.00000  Uiso   1.00
H31    H     0.76891   0.33652   0.12905   0.00000  Uiso   1.00
H32    H     0.64504   0.31530   0.09003   0.00000  Uiso   1.00
H33    H     0.81964   0.21170   0.16356   0.00000  Uiso   1.00
H34    H     0.85680   0.47382   0.12693   0.00000  Uiso   1.00
H35    H     0.48445   0.30546   0.05726   0.00000  Uiso   1.00
H36    H     0.85265   0.08703   0.21231   0.00000  Uiso   1.00
H37    H     0.93101   0.63977   0.13507   0.00000  Uiso   1.00
O38    O     0.32303   0.33861   0.06766   0.00000  Uiso   1.00
O39    O     0.80609   0.05205   0.27107   0.00000  Uiso   1.00
O40    O     0.90890   0.77723   0.16974   0.00000  Uiso   1.00
N41    N     0.38416   0.37755   0.11554   0.00000  Uiso   1.00
N42    N     0.72838   0.17333   0.26049   0.00000  Uiso   1.00
N43    N     0.80166   0.69008   0.18829   0.00000  Uiso   1.00
N44    N     0.46670   0.32888   0.07829   0.00000  Uiso   1.00
N45    N     0.81093   0.12465   0.22325   0.00000  Uiso   1.00
N46    N     0.88421   0.64141   0.15105   0.00000  Uiso   1.00
C47    C     0.13078   0.91797   0.69137   0.00000  Uiso   1.00
C48    C     0.08299   0.89495   0.66137   0.00000  Uiso   1.00
C49    C     0.99682   0.90270   0.65689   0.00000  Uiso   1.00
C50    C     0.96520   0.87822   0.62774   0.00000  Uiso   1.00
C51    C     0.88296   0.84716   0.58478   0.00000  Uiso   1.00
C52    C     0.17785   0.83865   0.70132   0.00000  Uiso   1.00
C53    C     0.17145   0.79907   0.73043   0.00000  Uiso   1.00
C54    C     0.21969   0.72721   0.73491   0.00000  Uiso   1.00
C55    C     0.28477   0.60879   0.75398   0.00000  Uiso   1.00
C56    C     0.19803   0.98107   0.68142   0.00000  Uiso   1.00
C57    C     0.20862   0.06124   0.69380   0.00000  Uiso   1.00
C58    C     0.27387   0.10928   0.68153   0.00000  Uiso   1.00
C59    C     0.37029   0.21199   0.66970   0.00000  Uiso   1.00
C60    C     0.22785   0.86073   0.64758   0.00000  Uiso   1.00
C61    C     0.13571   0.86385   0.63758   0.00000  Uiso   1.00
C62    C     0.10422   0.83936   0.60843   0.00000  Uiso   1.00
C63    C     0.01802   0.84707   0.60391   0.00000  Uiso   1.00
C64    C     0.23057   0.80756   0.67753   0.00000  Uiso   1.00
C65    C     0.27884   0.73574   0.68197   0.00000  Uiso   1.00
C66    C     0.27251   0.69606   0.71108   0.00000  Uiso   1.00
C67    C     0.25076   0.94998   0.65763   0.00000  Uiso   1.00
C68    C     0.31601   0.99790   0.64534   0.00000  Uiso   1.00
C69    C     0.32669   0.07813   0.65770   0.00000  Uiso   1.00
H70    H     0.08973   0.94217   0.70989   0.00000  Uiso   1.00
H71    H     0.95603   0.92675   0.67531   0.00000  Uiso   1.00
H72    H     0.13064   0.82315   0.74883   0.00000  Uiso   1.00
H73    H     0.16781   0.08528   0.71221   0.00000  Uiso   1.00
H74    H     0.83105   0.89592   0.62647   0.00000  Uiso   1.00
H75    H     0.19924   0.67749   0.78152   0.00000  Uiso   1.00
H76    H     0.27761   0.23023   0.70428   0.00000  Uiso   1.00
H77    H     0.26891   0.83652   0.62905   0.00000  Uiso   1.00
H78    H     0.14504   0.81530   0.59003   0.00000  Uiso   1.00
H79    H     0.31964   0.71170   0.66356   0.00000  Uiso   1.00
H80    H     0.35680   0.97382   0.62693   0.00000  Uiso   1.00
H81    H     0.98445   0.80546   0.55726   0.00000  Uiso   1.00
H82    H     0.35265   0.58703   0.71231   0.00000  Uiso   1.00
H83    H     0.43101   0.13977   0.63507   0.00000  Uiso   1.00
O84    O     0.82303   0.83861   0.56766   0.00000  Uiso   1.00
O85    O     0.30609   0.55205   0.77107   0.00000  Uiso   1.00
O86    O     0.40890   0.27723   0.66974   0.00000  Uiso   1.00
N87    N     0.88416   0.87755   0.61554   0.00000  Uiso   1.00
N88    N     0.22838   0.67333   0.76049   0.00000  Uiso   1.00
N89    N     0.30166   0.19008   0.68829   0.00000  Uiso   1.00
N90    N     0.96670   0.82888   0.57829   0.00000  Uiso   1.00
N91    N     0.31093   0.62465   0.72325   0.00000  Uiso   1.00
N92    N     0.38421   0.14141   0.65105   0.00000  Uiso   1.00
C93    C     0.36922   0.58203   0.19137   0.00000  Uiso   1.00
C94    C     0.41701   0.60505   0.16137   0.00000  Uiso   1.00
C95    C     0.50318   0.59730   0.15689   0.00000  Uiso   1.00
C96    C     0.53480   0.62178   0.12774   0.00000  Uiso   1.00
C97    C     0.61704   0.65284   0.08478   0.00000  Uiso   1.00
C98    C     0.32215   0.66135   0.20132   0.00000  Uiso   1.00
C99    C     0.32855   0.70093   0.23043   0.00000  Uiso   1.00
C100   C     0.28031   0.77279   0.23491   0.00000  Uiso   1.00
C101   C     0.21523   0.89121   0.25398   0.00000  Uiso   1.00
C102   C     0.30197   0.51893   0.18142   0.00000  Uiso   1.00
C103   C     0.29138   0.43876   0.19380   0.00000  Uiso   1.00
C104   C     0.22613   0.39072   0.18153   0.00000  Uiso   1.00
C105   C     0.12971   0.28801   0.16970   0.00000  Uiso   1.00
C106   C     0.27215   0.63927   0.14758   0.00000  Uiso   1.00
C107   C     0.36429   0.63615   0.13758   0.00000  Uiso   1.00
C108   C     0.39578   0.66064   0.10843   0.00000  Uiso   1.00
C109   C     0.48198   0.65293   0.10391   0.00000  Uiso   1.00
C110   C     0.26943   0.69244   0.17753   0.00000  Uiso   1.00
C111   C     0.22116   0.76426   0.18197   0.00000  Uiso   1.00
C112   C     0.22749   0.80394   0.21108   0.00000  Uiso   1.00
C113   C     0.24924   0.55002   0.15763   0.00000  Uiso   1.00
C114   C     0.18399   0.50210   0.14534   0.00000  Uiso   1.00
C115   C     0.17331   0.42187   0.15770   0.00000  Uiso   1.00
H116   H     0.41027   0.55783   0.20989   0.00000  Uiso   1.00
H117   H     0.54397   0.57325   0.17531   0.00000  Uiso   1.00
H118   H     0.36936   0.67685   0.24883   0.00000  Uiso   1.00
H119   H     0.33219   0.41472   0.21221   0.00000  Uiso   1.00
H120   H     0.66895   0.60408   0.12647   0.00000  Uiso   1.00
H121   H     0.30076   0.82251   0.28152   0.00000  Uiso   1.00
H122   H     0.22239   0.26977   0.20428   0.00000  Uiso   1.00
H123   H     0.23109   0.66348   0.12905   0.00000  Uiso   1.00
H124   H     0.35496   0.68470   0.09003   0.00000  Uiso   1.00
H125   H     0.18036   0.78830   0.16356   0.00000  Uiso   1.00
H126   H     0.14320   0.52618   0.12693   0.00000  Uiso   1.00
H127   H     0.51555   0.69454   0.05726   0.00000  Uiso   1.00
H128   H     0.14735   0.91297   0.21231   0.00000  Uiso   1.00
H129   H     0.06899   0.36023   0.13507   0.00000  Uiso   1.00
O130   O     0.67697   0.66139   0.06766   0.00000  Uiso   1.00
O131   O     0.19391   0.94795   0.27107   0.00000  Uiso   1.00
O132   O     0.09110   0.22277   0.16974   0.00000  Uiso   1.00
N133   N     0.61584   0.62245   0.11554   0.00000  Uiso   1.00
N134   N     0.27162   0.82667   0.26049   0.00000  Uiso   1.00
N135   N     0.19834   0.30992   0.18829   0.00000  Uiso   1.00
N136   N     0.53330   0.67112   0.07829   0.00000  Uiso   1.00
N137   N     0.18907   0.87535   0.22325   0.00000  Uiso   1.00
N138   N     0.11579   0.35859   0.15105   0.00000  Uiso   1.00
C139   C     0.86922   0.08203   0.69137   0.00000  Uiso   1.00
C140   C     0.91701   0.10505   0.66137   0.00000  Uiso   1.00
C141   C     0.00318   0.09730   0.65689   0.00000  Uiso   1.00
C142   C     0.03480   0.12178   0.62774   0.00000  Uiso   1.00
C143   C     0.11704   0.15284   0.58478   0.00000  Uiso   1.00
C144   C     0.82215   0.16135   0.70132   0.00000  Uiso   1.00
C145   C     0.82855   0.20093   0.73043   0.00000  Uiso   1.00
C146   C     0.78031   0.27279   0.73491   0.00000  Uiso   1.00
C147   C     0.71523   0.39121   0.75398   0.00000  Uiso   1.00
C148   C     0.80197   0.01893   0.68142   0.00000  Uiso   1.00
C149   C     0.79138   0.93876   0.69380   0.00000  Uiso   1.00
C150   C     0.72613   0.89072   0.68153   0.00000  Uiso   1.00
C151   C     0.62971   0.78801   0.66970   0.00000  Uiso   1.00
C152   C     0.77215   0.13927   0.64758   0.00000  Uiso   1.00
C153   C     0.86429   0.13615   0.63758   0.00000  Uiso   1.00
C154   C     0.89578   0.16064   0.60843   0.00000  Uiso   1.00
C155   C     0.98198   0.15293   0.60391   0.00000  Uiso   1.00
C156   C     0.76943   0.19244   0.67753   0.00000  Uiso   1.00
C157   C     0.72116   0.26426   0.68197   0.00000  Uiso   1.00
C158   C     0.72749   0.30394   0.71108   0.00000  Uiso   1.00
C159   C     0.74924   0.05002   0.65763   0.00000  Uiso   1.00
C160   C     0.68399   0.00210   0.64534   0.00000  Uiso   1.00
C161   C     0.67331   0.92187   0.65770   0.00000  Uiso   1.00
H162   H     0.91027   0.05783   0.70989   0.00000  Uiso   1.00
H163   H     0.04397   0.07325   0.67531   0.00000  Uiso   1.00
H164   H     0.86936   0.17685   0.74883   0.00000  Uiso   1.00
H165   H     0.83219   0.91472   0.71221   0.00000  Uiso   1.00
H166   H     0.16895   0.10408   0.62647   0.00000  Uiso   1.00
H167   H     0.80076   0.32251   0.78152   0.00000  Uiso   1.00
H168   H     0.72239   0.76977   0.70428   0.00000  Uiso   1.00
H169   H     0.73109   0.16348   0.62905   0.00000  Uiso   1.00
H170   H     0.85496   0.18470   0.59003   0.00000  Uiso   1.00
H171   H     0.68036   0.28830   0.66356   0.00000  Uiso   1.00
H172   H     0.64320   0.02618   0.62693   0.00000  Uiso   1.00
H173   H     0.01555   0.19454   0.55726   0.00000  Uiso   1.00
H174   H     0.64735   0.41297   0.71231   0.00000  Uiso   1.00
H175   H     0.56899   0.86023   0.63507   0.00000  Uiso   1.00
O176   O     0.17697   0.16139   0.56766   0.00000  Uiso   1.00
O177   O     0.69391   0.44795   0.77107   0.00000  Uiso   1.00
O178   O     0.59110   0.72277   0.66974   0.00000  Uiso   1.00
N179   N     0.11584   0.12245   0.61554   0.00000  Uiso   1.00
N180   N     0.77162   0.32667   0.76049   0.00000  Uiso   1.00
N181   N     0.69834   0.80992   0.68829   0.00000  Uiso   1.00
N182   N     0.03330   0.17112   0.57829   0.00000  Uiso   1.00
N183   N     0.68907   0.37535   0.72325   0.00000  Uiso   1.00
N184   N     0.61579   0.85859   0.65105   0.00000  Uiso   1.00
C185   C     0.41797   0.36922   0.80863   0.00000  Uiso   1.00
C186   C     0.39495   0.41701   0.83863   0.00000  Uiso   1.00
C187   C     0.40270   0.50318   0.84311   0.00000  Uiso   1.00
C188   C     0.37822   0.53480   0.87226   0.00000  Uiso   1.00
C189   C     0.34716   0.61704   0.91522   0.00000  Uiso   1.00
C190   C     0.33865   0.32215   0.79868   0.00000  Uiso   1.00
C191   C     0.29907   0.32855   0.76957   0.00000  Uiso   1.00
C192   C     0.22721   0.28031   0.76509   0.00000  Uiso   1.00
C193   C     0.10879   0.21523   0.74602   0.00000  Uiso   1.00
C194   C     0.48107   0.30197   0.81858   0.00000  Uiso   1.00
C195   C     0.56124   0.29138   0.80620   0.00000  Uiso   1.00
C196   C     0.60928   0.22613   0.81847   0.00000  Uiso   1.00
C197   C     0.71199   0.12971   0.83030   0.00000  Uiso   1.00
C198   C     0.36073   0.27215   0.85242   0.00000  Uiso   1.00
C199   C     0.36385   0.36429   0.86242   0.00000  Uiso   1.00
C200   C     0.33936   0.39578   0.89157   0.00000  Uiso   1.00
C201   C     0.34707   0.48198   0.89609   0.00000  Uiso   1.00
C202   C     0.30756   0.26943   0.82247   0.00000  Uiso   1.00
C203   C     0.23574   0.22116   0.81803   0.00000  Uiso   1.00
C204   C     0.19606   0.22749   0.78892   0.00000  Uiso   1.00
C205   C     0.44998   0.24924   0.84237   0.00000  Uiso   1.00
C206   C     0.49790   0.18399   0.85466   0.00000  Uiso   1.00
C207   C     0.57813   0.17331   0.84230   0.00000  Uiso   1.00
H208   H     0.44217   0.41027   0.79011   0.00000  Uiso   1.00
H209   H     0.42675   0.54397   0.82469   0.00000  Uiso   1.00
H210   H     0.32315   0.36936   0.75117   0.00000  Uiso   1.00
H211   H     0.58528   0.33219   0.78779   0.00000  Uiso   1.00
H212   H     0.39592   0.66895   0.87353   0.00000  Uiso   1.00
H213   H     0.17749   0.30076   0.71848   0.00000  Uiso   1.00
H214   H     0.73023   0.22239   0.79572   0.00000  Uiso   1.00
H215   H     0.33652   0.23109   0.87095   0.00000  Uiso   1.00
H216   H     0.31530   0.35496   0.90997   0.00000  Uiso   1.00
H217   H     0.21170   0.18036   0.83644   0.00000  Uiso   1.00
H218   H     0.47382   0.14320   0.87307   0.00000  Uiso   1.00
H219   H     0.30546   0.51555   0.94274   0.00000  Uiso   1.00
H220   H     0.08703   0.14735   0.78769   0.00000  Uiso   1.00
H221   H     0.63977   0.06899   0.86493   0.00000  Uiso   1.00
O222   O     0.33861   0.67697   0.93234   0.00000  Uiso   1.00
O223   O     0.05205   0.19391   0.72893   0.00000  Uiso   1.00
O224   O     0.77723   0.09110   0.83026   0.00000  Uiso   1.00
N225   N     0.37755   0.61584   0.88446   0.00000  Uiso   1.00
N226   N     0.17333   0.27162   0.73951   0.00000  Uiso   1.00
N227   N     0.69008   0.19834   0.81171   0.00000  Uiso   1.00
N228   N     0.32888   0.53330   0.92171   0.00000  Uiso   1.00
N229   N     0.12465   0.18907   0.77675   0.00000  Uiso   1.00
N230   N     0.64141   0.11579   0.84895   0.00000  Uiso   1.00
C231   C     0.91797   0.86922   0.30863   0.00000  Uiso   1.00
C232   C     0.89495   0.91701   0.33863   0.00000  Uiso   1.00
C233   C     0.90270   0.00318   0.34311   0.00000  Uiso   1.00
C234   C     0.87822   0.03480   0.37226   0.00000  Uiso   1.00
C235   C     0.84716   0.11704   0.41522   0.00000  Uiso   1.00
C236   C     0.83865   0.82215   0.29868   0.00000  Uiso   1.00
C237   C     0.79907   0.82855   0.26957   0.00000  Uiso   1.00
C238   C     0.72721   0.78031   0.26509   0.00000  Uiso   1.00
C239   C     0.60879   0.71523   0.24602   0.00000  Uiso   1.00
C240   C     0.98107   0.80197   0.31858   0.00000  Uiso   1.00
C241   C     0.06124   0.79138   0.30620   0.00000  Uiso   1.00
C242   C     0.10928   0.72613   0.31847   0.00000  Uiso   1.00
C243   C     0.21199   0.62971   0.33030   0.00000  Uiso   1.00
C244   C     0.86073   0.77215   0.35242   0.00000  Uiso   1.00
C245   C     0.86385   0.86429   0.36242   0.00000  Uiso   1.00
C246   C     0.83936   0.89578   0.39157   0.00000  Uiso   1.00
C247   C     0.84707   0.98198   0.39609   0.00000  Uiso   1.00
C248   C     0.80756   0.76943   0.32247   0.00000  Uiso   1.00
C249   C     0.73574   0.72116   0.31803   0.00000  Uiso   1.00
C250   C     0.69606   0.72749   0.28892   0.00000  Uiso   1.00
C251   C     0.94998   0.74924   0.34237   0.00000  Uiso   1.00
C252   C     0.99790   0.68399   0.35466   0.00000  Uiso   1.00
C253   C     0.07813   0.67331   0.34230   0.00000  Uiso   1.00
H254   H     0.94217   0.91027   0.29011   0.00000  Uiso   1.00
H255   H     0.92675   0.04397   0.32469   0.00000  Uiso   1.00
H256   H     0.82315   0.86936   0.25117   0.00000  Uiso   1.00
H257   H     0.08528   0.83219   0.28779   0.00000  Uiso   1.00
H258   H     0.89592   0.16895   0.37353   0.00000  Uiso   1.00
H259   H     0.67749   0.80076   0.21848   0.00000  Uiso   1.00
H260   H     0.23023   0.72239   0.29572   0.00000  Uiso   1.00
H261   H     0.83652   0.73109   0.37095   0.00000  Uiso   1.00
H262   H     0.81530   0.85496   0.40997   0.00000  Uiso   1.00
H263   H     0.71170   0.68036   0.33644   0.00000  Uiso   1.00
H264   H     0.97382   0.64320   0.37307   0.00000  Uiso   1.00
H265   H     0.80546   0.01555   0.44274   0.00000  Uiso   1.00
H266   H     0.58703   0.64735   0.28769   0.00000  Uiso   1.00
H267   H     0.13977   0.56899   0.36493   0.00000  Uiso   1.00
O268   O     0.83861   0.17697   0.43234   0.00000  Uiso   1.00
O269   O     0.55205   0.69391   0.22893   0.00000  Uiso   1.00
O270   O     0.27723   0.59110   0.33026   0.00000  Uiso   1.00
N271   N     0.87755   0.11584   0.38446   0.00000  Uiso   1.00
N272   N     0.67333   0.77162   0.23951   0.00000  Uiso   1.00
N273   N     0.19008   0.69834   0.31171   0.00000  Uiso   1.00
N274   N     0.82888   0.03330   0.42171   0.00000  Uiso   1.00
N275   N     0.62465   0.68907   0.27675   0.00000  Uiso   1.00
N276   N     0.14141   0.61579   0.34895   0.00000  Uiso   1.00
C277   C     0.58203   0.63078   0.80863   0.00000  Uiso   1.00
C278   C     0.60505   0.58299   0.83863   0.00000  Uiso   1.00
C279   C     0.59730   0.49682   0.84311   0.00000  Uiso   1.00
C280   C     0.62178   0.46520   0.87226   0.00000  Uiso   1.00
C281   C     0.65284   0.38296   0.91522   0.00000  Uiso   1.00
C282   C     0.66135   0.67785   0.79868   0.00000  Uiso   1.00
C283   C     0.70093   0.67145   0.76957   0.00000  Uiso   1.00
C284   C     0.77279   0.71969   0.76509   0.00000  Uiso   1.00
C285   C     0.89121   0.78477   0.74602   0.00000  Uiso   1.00
C286   C     0.51893   0.69803   0.81858   0.00000  Uiso   1.00
C287   C     0.43876   0.70862   0.80620   0.00000  Uiso   1.00
C288   C     0.39072   0.77387   0.81847   0.00000  Uiso   1.00
C289   C     0.28801   0.87029   0.83030   0.00000  Uiso   1.00
C290   C     0.63927   0.72785   0.85242   0.00000  Uiso   1.00
C291   C     0.63615   0.63571   0.86242   0.00000  Uiso   1.00
C292   C     0.66064   0.60422   0.89157   0.00000  Uiso   1.00
C293   C     0.65293   0.51802   0.89609   0.00000  Uiso   1.00
C294   C     0.69244   0.73057   0.82247   0.00000  Uiso   1.00
C295   C     0.76426   0.77884   0.81803   0.00000  Uiso   1.00
C296   C     0.80394   0.77251   0.78892   0.00000  Uiso   1.00
C297   C     0.55002   0.75076   0.84237   0.00000  Uiso   1.00
C298   C     0.50210   0.81601   0.85466   0.00000  Uiso   1.00
C299   C     0.42187   0.82669   0.84230   0.00000  Uiso   1.00
H300   H     0.55783   0.58973   0.79011   0.00000  Uiso   1.00
H301   H     0.57325   0.45603   0.82469   0.00000  Uiso   1.00
H302   H     0.67685   0.63064   0.75117   0.00000  Uiso   1.00
H303   H     0.41472   0.66781   0.78779   0.00000  Uiso   1.00
H304   H     0.60408   0.33105   0.87353   0.00000  Uiso   1.00
H305   H     0.82251   0.69924   0.71848   0.00000  Uiso   1.00
H306   H     0.26977   0.77761   0.79572   0.00000  Uiso   1.00
H307   H     0.66348   0.76891   0.87095   0.00000  Uiso   1.00
H308   H     0.68470   0.64504   0.90997   0.00000  Uiso   1.00
H309   H     0.78830   0.81964   0.83644   0.00000  Uiso   1.00
H310   H     0.52618   0.85680   0.87307   0.00000  Uiso   1.00
H311   H     0.69454   0.48445   0.94274   0.00000  Uiso   1.00
H312   H     0.91297   0.85265   0.78769   0.00000  Uiso   1.00
H313   H     0.36023   0.93101   0.86493   0.00000  Uiso   1.00
O314   O     0.66139   0.32303   0.93234   0.00000  Uiso   1.00
O315   O     0.94795   0.80609   0.72893   0.00000  Uiso   1.00
O316   O     0.22277   0.90890   0.83026   0.00000  Uiso   1.00
N317   N     0.62245   0.38416   0.88446   0.00000  Uiso   1.00
N318   N     0.82667   0.72838   0.73951   0.00000  Uiso   1.00
N319   N     0.30992   0.80166   0.81171   0.00000  Uiso   1.00
N320   N     0.67112   0.46670   0.92171   0.00000  Uiso   1.00
N321   N     0.87535   0.81093   0.77675   0.00000  Uiso   1.00
N322   N     0.35859   0.88421   0.84895   0.00000  Uiso   1.00
C323   C     0.08203   0.13078   0.30863   0.00000  Uiso   1.00
C324   C     0.10505   0.08299   0.33863   0.00000  Uiso   1.00
C325   C     0.09730   0.99682   0.34311   0.00000  Uiso   1.00
C326   C     0.12178   0.96520   0.37226   0.00000  Uiso   1.00
C327   C     0.15284   0.88296   0.41522   0.00000  Uiso   1.00
C328   C     0.16135   0.17785   0.29868   0.00000  Uiso   1.00
C329   C     0.20093   0.17145   0.26957   0.00000  Uiso   1.00
C330   C     0.27279   0.21969   0.26509   0.00000  Uiso   1.00
C331   C     0.39121   0.28477   0.24602   0.00000  Uiso   1.00
C332   C     0.01893   0.19803   0.31858   0.00000  Uiso   1.00
C333   C     0.93876   0.20862   0.30620   0.00000  Uiso   1.00
C334   C     0.89072   0.27387   0.31847   0.00000  Uiso   1.00
C335   C     0.78801   0.37029   0.33030   0.00000  Uiso   1.00
C336   C     0.13927   0.22785   0.35242   0.00000  Uiso   1.00
C337   C     0.13615   0.13571   0.36242   0.00000  Uiso   1.00
C338   C     0.16064   0.10422   0.39157   0.00000  Uiso   1.00
C339   C     0.15293   0.01802   0.39609   0.00000  Uiso   1.00
C340   C     0.19244   0.23057   0.32247   0.00000  Uiso   1.00
C341   C     0.26426   0.27884   0.31803   0.00000  Uiso   1.00
C342   C     0.30394   0.27251   0.28892   0.00000  Uiso   1.00
C343   C     0.05002   0.25076   0.34237   0.00000  Uiso   1.00
C344   C     0.00210   0.31601   0.35466   0.00000  Uiso   1.00
C345   C     0.92187   0.32669   0.34230   0.00000  Uiso   1.00
H346   H     0.05783   0.08973   0.29011   0.00000  Uiso   1.00
H347   H     0.07325   0.95603   0.32469   0.00000  Uiso   1.00
H348   H     0.17685   0.13064   0.25117   0.00000  Uiso   1.00
H349   H     0.91472   0.16781   0.28779   0.00000  Uiso   1.00
H350   H     0.10408   0.83105   0.37353   0.00000  Uiso   1.00
H351   H     0.32251   0.19924   0.21848   0.00000  Uiso   1.00
H352   H     0.76977   0.27761   0.29572   0.00000  Uiso   1.00
H353   H     0.16348   0.26891   0.37095   0.00000  Uiso   1.00
H354   H     0.18470   0.14504   0.40997   0.00000  Uiso   1.00
H355   H     0.28830   0.31964   0.33644   0.00000  Uiso   1.00
H356   H     0.02618   0.35680   0.37307   0.00000  Uiso   1.00
H357   H     0.19454   0.98445   0.44274   0.00000  Uiso   1.00
H358   H     0.41297   0.35265   0.28769   0.00000  Uiso   1.00
H359   H     0.86023   0.43101   0.36493   0.00000  Uiso   1.00
O360   O     0.16139   0.82303   0.43234   0.00000  Uiso   1.00
O361   O     0.44795   0.30609   0.22893   0.00000  Uiso   1.00
O362   O     0.72277   0.40890   0.33026   0.00000  Uiso   1.00
N363   N     0.12245   0.88416   0.38446   0.00000  Uiso   1.00
N364   N     0.32667   0.22838   0.23951   0.00000  Uiso   1.00
N365   N     0.80992   0.30166   0.31171   0.00000  Uiso   1.00
N366   N     0.17112   0.96670   0.42171   0.00000  Uiso   1.00
N367   N     0.37535   0.31093   0.27675   0.00000  Uiso   1.00
N368   N     0.85859   0.38421   0.34895   0.00000  Uiso   1.00
C369   C     0.86922   0.41797   0.55863   0.00000  Uiso   1.00
C370   C     0.91701   0.39495   0.58863   0.00000  Uiso   1.00
C371   C     0.00318   0.40270   0.59311   0.00000  Uiso   1.00
C372   C     0.03480   0.37822   0.62226   0.00000  Uiso   1.00
C373   C     0.11704   0.34716   0.66522   0.00000  Uiso   1.00
C374   C     0.82215   0.33865   0.54868   0.00000  Uiso   1.00
C375   C     0.82855   0.29907   0.51957   0.00000  Uiso   1.00
C376   C     0.78031   0.22721   0.51509   0.00000  Uiso   1.00
C377   C     0.71523   0.10879   0.49602   0.00000  Uiso   1.00
C378   C     0.80197   0.48107   0.56858   0.00000  Uiso   1.00
C379   C     0.79138   0.56124   0.55620   0.00000  Uiso   1.00
C380   C     0.72613   0.60928   0.56847   0.00000  Uiso   1.00
C381   C     0.62971   0.71199   0.58030   0.00000  Uiso   1.00
C382   C     0.77215   0.36073   0.60242   0.00000  Uiso   1.00
C383   C     0.86429   0.36385   0.61242   0.00000  Uiso   1.00
C384   C     0.89578   0.33936   0.64157   0.00000  Uiso   1.00
C385   C     0.98198   0.34707   0.64609   0.00000  Uiso   1.00
C386   C     0.76943   0.30756   0.57247   0.00000  Uiso   1.00
C387   C     0.72116   0.23574   0.56803   0.00000  Uiso   1.00
C388   C     0.72749   0.19606   0.53892   0.00000  Uiso   1.00
C389   C     0.74924   0.44998   0.59237   0.00000  Uiso   1.00
C390   C     0.68399   0.49790   0.60466   0.00000  Uiso   1.00
C391   C     0.67331   0.57813   0.59230   0.00000  Uiso   1.00
H392   H     0.91027   0.44217   0.54011   0.00000  Uiso   1.00
H393   H     0.04397   0.42675   0.57469   0.00000  Uiso   1.00
H394   H     0.86936   0.32315   0.50117   0.00000  Uiso   1.00
H395   H     0.83219   0.58528   0.53779   0.00000  Uiso   1.00
H396   H     0.16895   0.39592   0.62353   0.00000  Uiso   1.00
H397   H     0.80076   0.17749   0.46848   0.00000  Uiso   1.00
H398   H     0.72239   0.73023   0.54572   0.00000  Uiso   1.00
H399   H     0.73109   0.33652   0.62095   0.00000  Uiso   1.00
H400   H     0.85496   0.31530   0.65997   0.00000  Uiso   1.00
H401   H     0.68036   0.21170   0.58644   0.00000  Uiso   1.00
H402   H     0.64320   0.47382   0.62307   0.00000  Uiso   1.00
H403   H     0.01555   0.30546   0.69274   0.00000  Uiso   1.00
H404   H     0.64735   0.08703   0.53769   0.00000  Uiso   1.00
H405   H     0.56899   0.63977   0.61493   0.00000  Uiso   1.00
O406   O     0.17697   0.33861   0.68234   0.00000  Uiso   1.00
O407   O     0.69391   0.05205   0.47893   0.00000  Uiso   1.00
O408   O     0.59110   0.77723   0.58026   0.00000  Uiso   1.00
N409   N     0.11584   0.37755   0.63446   0.00000  Uiso   1.00
N410   N     0.77162   0.17333   0.48951   0.00000  Uiso   1.00
N411   N     0.69834   0.69008   0.56171   0.00000  Uiso   1.00
N412   N     0.03330   0.32888   0.67171   0.00000  Uiso   1.00
N413   N     0.68907   0.12465   0.52675   0.00000  Uiso   1.00
N414   N     0.61579   0.64141   0.59895   0.00000  Uiso   1.00
C415   C     0.36922   0.91797   0.05863   0.00000  Uiso   1.00
C416   C     0.41701   0.89495   0.08863   0.00000  Uiso   1.00
C417   C     0.50318   0.90270   0.09311   0.00000  Uiso   1.00
C418   C     0.53480   0.87822   0.12226   0.00000  Uiso   1.00
C419   C     0.61704   0.84716   0.16522   0.00000  Uiso   1.00
C420   C     0.32215   0.83865   0.04868   0.00000  Uiso   1.00
C421   C     0.32855   0.79907   0.01957   0.00000  Uiso   1.00
C422   C     0.28031   0.72721   0.01509   0.00000  Uiso   1.00
C423   C     0.21523   0.60879   0.99602   0.00000  Uiso   1.00
C424   C     0.30197   0.98107   0.06858   0.00000  Uiso   1.00
C425   C     0.29138   0.06124   0.05620   0.00000  Uiso   1.00
C426   C     0.22613   0.10928   0.06847   0.00000  Uiso   1.00
C427   C     0.12971   0.21199   0.08030   0.00000  Uiso   1.00
C428   C     0.27215   0.86073   0.10242   0.00000  Uiso   1.00
C429   C     0.36429   0.86385   0.11242   0.00000  Uiso   1.00
C430   C     0.39578   0.83936   0.14157   0.00000  Uiso   1.00
C431   C     0.48198   0.84707   0.14609   0.00000  Uiso   1.00
C432   C     0.26943   0.80756   0.07247   0.00000  Uiso   1.00
C433   C     0.22116   0.73574   0.06803   0.00000  Uiso   1.00
C434   C     0.22749   0.69606   0.03892   0.00000  Uiso   1.00
C435   C     0.24924   0.94998   0.09237   0.00000  Uiso   1.00
C436   C     0.18399   0.99790   0.10466   0.00000  Uiso   1.00
C437   C     0.17331   0.07813   0.09230   0.00000  Uiso   1.00
H438   H     0.41027   0.94217   0.04011   0.00000  Uiso   1.00
H439   H     0.54397   0.92675   0.07469   0.00000  Uiso   1.00
H440   H     0.36936   0.82315   0.00117   0.00000  Uiso   1.00
H441   H     0.33219   0.08528   0.03779   0.00000  Uiso   1.00
H442   H     0.66895   0.89592   0.12353   0.00000  Uiso   1.00
H443   H     0.30076   0.67749   0.96848   0.00000  Uiso   1.00
H444   H     0.22239   0.23023   0.04572   0.00000  Uiso   1.00
H445   H     0.23109   0.83652   0.12095   0.00000  Uiso   1.00
H446   H     0.35496   0.81530   0.15997   0.00000  Uiso   1.00
H447   H     0.18036   0.71170   0.08644   0.00000  Uiso   1.00
H448   H     0.14320   0.97382   0.12307   0.00000  Uiso   1.00
H449   H     0.51555   0.80546   0.19274   0.00000  Uiso   1.00
H450   H     0.14735   0.58703   0.03769   0.00000  Uiso   1.00
H451   H     0.06899   0.13977   0.11493   0.00000  Uiso   1.00
O452   O     0.67697   0.83861   0.18234   0.00000  Uiso   1.00
O453   O     0.19391   0.55205   0.97893   0.00000  Uiso   1.00
O454   O     0.09110   0.27723   0.08026   0.00000  Uiso   1.00
N455   N     0.61584   0.87755   0.13446   0.00000  Uiso   1.00
N456   N     0.27162   0.67333   0.98951   0.00000  Uiso   1.00
N457   N     0.19834   0.19008   0.06171   0.00000  Uiso   1.00
N458   N     0.53330   0.82888   0.17171   0.00000  Uiso   1.00
N459   N     0.18907   0.62465   0.02675   0.00000  Uiso   1.00
N460   N     0.11579   0.14141   0.09895   0.00000  Uiso   1.00
C461   C     0.13078   0.58203   0.55863   0.00000  Uiso   1.00
C462   C     0.08299   0.60505   0.58863   0.00000  Uiso   1.00
C463   C     0.99682   0.59730   0.59311   0.00000  Uiso   1.00
C464   C     0.96520   0.62178   0.62226   0.00000  Uiso   1.00
C465   C     0.88296   0.65284   0.66522   0.00000  Uiso   1.00
C466   C     0.17785   0.66135   0.54868   0.00000  Uiso   1.00
C467   C     0.17145   0.70093   0.51957   0.00000  Uiso   1.00
C468   C     0.21969   0.77279   0.51509   0.00000  Uiso   1.00
C469   C     0.28477   0.89121   0.49602   0.00000  Uiso   1.00
C470   C     0.19803   0.51893   0.56858   0.00000  Uiso   1.00
C471   C     0.20862   0.43876   0.55620   0.00000  Uiso   1.00
C472   C     0.27387   0.39072   0.56847   0.00000  Uiso   1.00
C473   C     0.37029   0.28801   0.58030   0.00000  Uiso   1.00
C474   C     0.22785   0.63927   0.60242   0.00000  Uiso   1.00
C475   C     0.13571   0.63615   0.61242   0.00000  Uiso   1.00
C476   C     0.10422   0.66064   0.64157   0.00000  Uiso   1.00
C477   C     0.01802   0.65293   0.64609   0.00000  Uiso   1.00
C478   C     0.23057   0.69244   0.57247   0.00000  Uiso   1.00
C479   C     0.27884   0.76426   0.56803   0.00000  Uiso   1.00
C480   C     0.27251   0.80394   0.53892   0.00000  Uiso   1.00
C481   C     0.25076   0.55002   0.59237   0.00000  Uiso   1.00
C482   C     0.31601   0.50210   0.60466   0.00000  Uiso   1.00
C483   C     0.32669   0.42187   0.59230   0.00000  Uiso   1.00
H484   H     0.08973   0.55783   0.54011   0.00000  Uiso   1.00
H485   H     0.95603   0.57325   0.57469   0.00000  Uiso   1.00
H486   H     0.13064   0.67685   0.50117   0.00000  Uiso   1.00
H487   H     0.16781   0.41472   0.53779   0.00000  Uiso   1.00
H488   H     0.83105   0.60408   0.62353   0.00000  Uiso   1.00
H489   H     0.19924   0.82251   0.46848   0.00000  Uiso   1.00
H490   H     0.27761   0.26977   0.54572   0.00000  Uiso   1.00
H491   H     0.26891   0.66348   0.62095   0.00000  Uiso   1.00
H492   H     0.14504   0.68470   0.65997   0.00000  Uiso   1.00
H493   H     0.31964   0.78830   0.58644   0.00000  Uiso   1.00
H494   H     0.35680   0.52618   0.62307   0.00000  Uiso   1.00
H495   H     0.98445   0.69454   0.69274   0.00000  Uiso   1.00
H496   H     0.35265   0.91297   0.53769   0.00000  Uiso   1.00
H497   H     0.43101   0.36023   0.61493   0.00000  Uiso   1.00
O498   O     0.82303   0.66139   0.68234   0.00000  Uiso   1.00
O499   O     0.30609   0.94795   0.47893   0.00000  Uiso   1.00
O500   O     0.40890   0.22277   0.58026   0.00000  Uiso   1.00
N501   N     0.88416   0.62245   0.63446   0.00000  Uiso   1.00
N502   N     0.22838   0.82667   0.48951   0.00000  Uiso   1.00
N503   N     0.30166   0.30992   0.56171   0.00000  Uiso   1.00
N504   N     0.96670   0.67112   0.67171   0.00000  Uiso   1.00
N505   N     0.31093   0.87535   0.52675   0.00000  Uiso   1.00
N506   N     0.38421   0.35859   0.59895   0.00000  Uiso   1.00
C507   C     0.63078   0.08203   0.05863   0.00000  Uiso   1.00
C508   C     0.58299   0.10505   0.08863   0.00000  Uiso   1.00
C509   C     0.49682   0.09730   0.09311   0.00000  Uiso   1.00
C510   C     0.46520   0.12178   0.12226   0.00000  Uiso   1.00
C511   C     0.38296   0.15284   0.16522   0.00000  Uiso   1.00
C512   C     0.67785   0.16135   0.04868   0.00000  Uiso   1.00
C513   C     0.67145   0.20093   0.01957   0.00000  Uiso   1.00
C514   C     0.71969   0.27279   0.01509   0.00000  Uiso   1.00
C515   C     0.78477   0.39121   0.99602   0.00000  Uiso   1.00
C516   C     0.69803   0.01893   0.06858   0.00000  Uiso   1.00
C517   C     0.70862   0.93876   0.05620   0.00000  Uiso   1.00
C518   C     0.77387   0.89072   0.06847   0.00000  Uiso   1.00
C519   C     0.87029   0.78801   0.08030   0.00000  Uiso   1.00
C520   C     0.72785   0.13927   0.10242   0.00000  Uiso   1.00
C521   C     0.63571   0.13615   0.11242   0.00000  Uiso   1.00
C522   C     0.60422   0.16064   0.14157   0.00000  Uiso   1.00
C523   C     0.51802   0.15293   0.14609   0.00000  Uiso   1.00
C524   C     0.73057   0.19244   0.07247   0.00000  Uiso   1.00
C525   C     0.77884   0.26426   0.06803   0.00000  Uiso   1.00
C526   C     0.77251   0.30394   0.03892   0.00000  Uiso   1.00
C527   C     0.75076   0.05002   0.09237   0.00000  Uiso   1.00
C528   C     0.81601   0.00210   0.10466   0.00000  Uiso   1.00
C529   C     0.82669   0.92187   0.09230   0.00000  Uiso   1.00
H530   H     0.58973   0.05783   0.04011   0.00000  Uiso   1.00
H531   H     0.45603   0.07325   0.07469   0.00000  Uiso   1.00
H532   H     0.63064   0.17685   0.00117   0.00000  Uiso   1.00
H533   H     0.66781   0.91472   0.03779   0.00000  Uiso   1.00
H534   H     0.33105   0.10408   0.12353   0.00000  Uiso   1.00
H535   H     0.69924   0.32251   0.96848   0.00000  Uiso   1.00
H536   H     0.77761   0.76977   0.04572   0.00000  Uiso   1.00
H537   H     0.76891   0.16348   0.12095   0.00000  Uiso   1.00
H538   H     0.64504   0.18470   0.15997   0.00000  Uiso   1.00
H539   H     0.81964   0.28830   0.08644   0.00000  Uiso   1.00
H540   H     0.85680   0.02618   0.12307   0.00000  Uiso   1.00
H541   H     0.48445   0.19454   0.19274   0.00000  Uiso   1.00
H542   H     0.85265   0.41297   0.03769   0.00000  Uiso   1.00
H543   H     0.93101   0.86023   0.11493   0.00000  Uiso   1.00
O544   O     0.32303   0.16139   0.18234   0.00000  Uiso   1.00
O545   O     0.80609   0.44795   0.97893   0.00000  Uiso   1.00
O546   O     0.90890   0.72277   0.08026   0.00000  Uiso   1.00
N547   N     0.38416   0.12245   0.13446   0.00000  Uiso   1.00
N548   N     0.72838   0.32667   0.98951   0.00000  Uiso   1.00
N549   N     0.80166   0.80992   0.06171   0.00000  Uiso   1.00
N550   N     0.46670   0.17112   0.17171   0.00000  Uiso   1.00
N551   N     0.81093   0.37535   0.02675   0.00000  Uiso   1.00
N552   N     0.88421   0.85859   0.09895   0.00000  Uiso   1.00
C553   C     0.08203   0.36922   0.94137   0.00000  Uiso   1.00
C554   C     0.10505   0.41701   0.91137   0.00000  Uiso   1.00
C555   C     0.09730   0.50318   0.90689   0.00000  Uiso   1.00
C556   C     0.12178   0.53480   0.87774   0.00000  Uiso   1.00
C557   C     0.15284   0.61704   0.83478   0.00000  Uiso   1.00
C558   C     0.16135   0.32215   0.95132   0.00000  Uiso   1.00
C559   C     0.20093   0.32855   0.98043   0.00000  Uiso   1.00
C560   C     0.27279   0.28031   0.98491   0.00000  Uiso   1.00
C561   C     0.39121   0.21523   0.00398   0.00000  Uiso   1.00
C562   C     0.01893   0.30197   0.93142   0.00000  Uiso   1.00
C563   C     0.93876   0.29138   0.94380   0.00000  Uiso   1.00
C564   C     0.89072   0.22613   0.93153   0.00000  Uiso   1.00
C565   C     0.78801   0.12971   0.91970   0.00000  Uiso   1.00
C566   C     0.13927   0.27215   0.89758   0.00000  Uiso   1.00
C567   C     0.13615   0.36429   0.88758   0.00000  Uiso   1.00
C568   C     0.16064   0.39578   0.85843   0.00000  Uiso   1.00
C569   C     0.15293   0.48198   0.85391   0.00000  Uiso   1.00
C570   C     0.19244   0.26943   0.92753   0.00000  Uiso   1.00
C571   C     0.26426   0.22116   0.93197   0.00000  Uiso   1.00
C572   C     0.30394   0.22749   0.96108   0.00000  Uiso   1.00
C573   C     0.05002   0.24924   0.90763   0.00000  Uiso   1.00
C574   C     0.00210   0.18399   0.89534   0.00000  Uiso   1.00
C575   C     0.92187   0.17331   0.90770   0.00000  Uiso   1.00
H576   H     0.05783   0.41027   0.95989   0.00000  Uiso   1.00
H577   H     0.07325   0.54397   0.92531   0.00000  Uiso   1.00
H578   H     0.17685   0.36936   0.99883   0.00000  Uiso   1.00
H579   H     0.91472   0.33219   0.96221   0.00000  Uiso   1.00
H580   H     0.10408   0.66895   0.87647   0.00000  Uiso   1.00
H581   H     0.32251   0.30076   0.03152   0.00000  Uiso   1.00
H582   H     0.76977   0.22239   0.95428   0.00000  Uiso   1.00
H583   H     0.16348   0.23109   0.87905   0.00000  Uiso   1.00
H584   H     0.18470   0.35496   0.84003   0.00000  Uiso   1.00
H585   H     0.28830   0.18036   0.91356   0.00000  Uiso   1.00
H586   H     0.02618   0.14320   0.87693   0.00000  Uiso   1.00
H587   H     0.19454   0.51555   0.80726   0.00000  Uiso   1.00
H588   H     0.41297   0.14735   0.96231   0.00000  Uiso   1.00
H589   H     0.86023   0.06899   0.88507   0.00000  Uiso   1.00
O590   O     0.16139   0.67697   0.81766   0.00000  Uiso   1.00
O591   O     0.44795   0.19391   0.02107   0.00000  Uiso   1.00
O592   O     0.72277   0.09110   0.91974   0.00000  Uiso   1.00
N593   N     0.12245   0.61584   0.86554   0.00000  Uiso   1.00
N594   N     0.32667   0.27162   0.01049   0.00000  Uiso   1.00
N595   N     0.80992   0.19834   0.93829   0.00000  Uiso   1.00
N596   N     0.17112   0.53330   0.82829   0.00000  Uiso   1.00
N597   N     0.37535   0.18907   0.97325   0.00000  Uiso   1.00
N598   N     0.85859   0.11579   0.90105   0.00000  Uiso   1.00
C599   C     0.58203   0.86922   0.44137   0.00000  Uiso   1.00
C600   C     0.60505   0.91701   0.41137   0.00000  Uiso   1.00
C601   C     0.59730   0.00318   0.40689   0.00000  Uiso   1.00
C602   C     0.62178   0.03480   0.37774   0.00000  Uiso   1.00
C603   C     0.65284   0.11704   0.33478   0.00000  Uiso   1.00
C604   C     0.66135   0.82215   0.45132   0.00000  Uiso   1.00
C605   C     0.70093   0.82855   0.48043   0.00000  Uiso   1.00
C606   C     0.77279   0.78031   0.48491   0.00000  Uiso   1.00
C607   C     0.89121   0.71523   0.50398   0.00000  Uiso   1.00
C608   C     0.51893   0.80197   0.43142   0.00000  Uiso   1.00
C609   C     0.43876   0.79138   0.44380   0.00000  Uiso   1.00
C610   C     0.39072   0.72613   0.43153   0.00000  Uiso   1.00
C611   C     0.28801   0.62971   0.41970   0.00000  Uiso   1.00
C612   C     0.63927   0.77215   0.39758   0.00000  Uiso   1.00
C613   C     0.63615   0.86429   0.38758   0.00000  Uiso   1.00
C614   C     0.66064   0.89578   0.35843   0.00000  Uiso   1.00
C615   C     0.65293   0.98198   0.35391   0.00000  Uiso   1.00
C616   C     0.69244   0.76943   0.42753   0.00000  Uiso   1.00
C617   C     0.76426   0.72116   0.43197   0.00000  Uiso   1.00
C618   C     0.80394   0.72749   0.46108   0.00000  Uiso   1.00
C619   C     0.55002   0.74924   0.40763   0.00000  Uiso   1.00
C620   C     0.50210   0.68399   0.39534   0.00000  Uiso   1.00
C621   C     0.42187   0.67331   0.40770   0.00000  Uiso   1.00
H622   H     0.55783   0.91027   0.45989   0.00000  Uiso   1.00
H623   H     0.57325   0.04397   0.42531   0.00000  Uiso   1.00
H624   H     0.67685   0.86936   0.49883   0.00000  Uiso   1.00
H625   H     0.41472   0.83219   0.46221   0.00000  Uiso   1.00
H626   H     0.60408   0.16895   0.37647   0.00000  Uiso   1.00
H627   H     0.82251   0.80076   0.53152   0.00000  Uiso   1.00
H628   H     0.26977   0.72239   0.45428   0.00000  Uiso   1.00
H629   H     0.66348   0.73109   0.37905   0.00000  Uiso   1.00
H630   H     0.68470   0.85496   0.34003   0.00000  Uiso   1.00
H631   H     0.78830   0.68036   0.41356   0.00000  Uiso   1.00
H632   H     0.52618   0.64320   0.37693   0.00000  Uiso   1.00
H633   H     0.69454   0.01555   0.30726   0.00000  Uiso   1.00
H634   H     0.91297   0.64735   0.46231   0.00000  Uiso   1.00
H635   H     0.36023   0.56899   0.38507   0.00000  Uiso   1.00
O636   O     0.66139   0.17697   0.31766   0.00000  Uiso   1.00
O637   O     0.94795   0.69391   0.52107   0.00000  Uiso   1.00
O638   O     0.22277   0.59110   0.41974   0.00000  Uiso   1.00
N639   N     0.62245   0.11584   0.36554   0.00000  Uiso   1.00
N640   N     0.82667   0.77162   0.51049   0.00000  Uiso   1.00
N641   N     0.30992   0.69834   0.43829   0.00000  Uiso   1.00
N642   N     0.67112   0.03330   0.32829   0.00000  Uiso   1.00
N643   N     0.87535   0.68907   0.47325   0.00000  Uiso   1.00
N644   N     0.35859   0.61579   0.40105   0.00000  Uiso   1.00
C645   C     0.91797   0.63078   0.94137   0.00000  Uiso   1.00
C646   C     0.89495   0.58299   0.91137   0.00000  Uiso   1.00
C647   C     0.90270   0.49682   0.90689   0.00000  Uiso   1.00
C648   C     0.87822   0.46520   0.87774   0.00000  Uiso   1.00
C649   C     0.84716   0.38296   0.83478   0.00000  Uiso   1.00
C650   C     0.83865   0.67785   0.95132   0.00000  Uiso   1.00
C651   C     0.79907   0.67145   0.98043   0.00000  Uiso   1.00
C652   C     0.72721   0.71969   0.98491   0.00000  Uiso   1.00
C653   C     0.60879   0.78477   0.00398   0.00000  Uiso   1.00
C654   C     0.98107   0.69803   0.93142   0.00000  Uiso   1.00
C655   C     0.06124   0.70862   0.94380   0.00000  Uiso   1.00
C656   C     0.10928   0.77387   0.93153   0.00000  Uiso   1.00
C657   C     0.21199   0.87029   0.91970   0.00000  Uiso   1.00
C658   C     0.86073   0.72785   0.89758   0.00000  Uiso   1.00
C659   C     0.86385   0.63571   0.88758   0.00000  Uiso   1.00
C660   C     0.83936   0.60422   0.85843   0.00000  Uiso   1.00
C661   C     0.84707   0.51802   0.85391   0.00000  Uiso   1.00
C662   C     0.80756   0.73057   0.92753   0.00000  Uiso   1.00
C663   C     0.73574   0.77884   0.93197   0.00000  Uiso   1.00
C664   C     0.69606   0.77251   0.96108   0.00000  Uiso   1.00
C665   C     0.94998   0.75076   0.90763   0.00000  Uiso   1.00
C666   C     0.99790   0.81601   0.89534   0.00000  Uiso   1.00
C667   C     0.07813   0.82669   0.90770   0.00000  Uiso   1.00
H668   H     0.94217   0.58973   0.95989   0.00000  Uiso   1.00
H669   H     0.92675   0.45603   0.92531   0.00000  Uiso   1.00
H670   H     0.82315   0.63064   0.99883   0.00000  Uiso   1.00
H671   H     0.08528   0.66781   0.96221   0.00000  Uiso   1.00
H672   H     0.89592   0.33105   0.87647   0.00000  Uiso   1.00
H673   H     0.67749   0.69924   0.03152   0.00000  Uiso   1.00
H674   H     0.23023   0.77761   0.95428   0.00000  Uiso   1.00
H675   H     0.83652   0.76891   0.87905   0.00000  Uiso   1.00
H676   H     0.81530   0.64504   0.84003   0.00000  Uiso   1.00
H677   H     0.71170   0.81964   0.91356   0.00000  Uiso   1.00
H678   H     0.97382   0.85680   0.87693   0.00000  Uiso   1.00
H679   H     0.80546   0.48445   0.80726   0.00000  Uiso   1.00
H680   H     0.58703   0.85265   0.96231   0.00000  Uiso   1.00
H681   H     0.13977   0.93101   0.88507   0.00000  Uiso   1.00
O682   O     0.83861   0.32303   0.81766   0.00000  Uiso   1.00
O683   O     0.55205   0.80609   0.02107   0.00000  Uiso   1.00
O684   O     0.27723   0.90890   0.91974   0.00000  Uiso   1.00
N685   N     0.87755   0.38416   0.86554   0.00000  Uiso   1.00
N686   N     0.67333   0.72838   0.01049   0.00000  Uiso   1.00
N687   N     0.19008   0.80166   0.93829   0.00000  Uiso   1.00
N688   N     0.82888   0.46670   0.82829   0.00000  Uiso   1.00
N689   N     0.62465   0.81093   0.97325   0.00000  Uiso   1.00
N690   N     0.14141   0.88421   0.90105   0.00000  Uiso   1.00
C691   C     0.41797   0.13078   0.44137   0.00000  Uiso   1.00
C692   C     0.39495   0.08299   0.41137   0.00000  Uiso   1.00
C693   C     0.40270   0.99682   0.40689   0.00000  Uiso   1.00
C694   C     0.37822   0.96520   0.37774   0.00000  Uiso   1.00
C695   C     0.34716   0.88296   0.33478   0.00000  Uiso   1.00
C696   C     0.33865   0.17785   0.45132   0.00000  Uiso   1.00
C697   C     0.29907   0.17145   0.48043   0.00000  Uiso   1.00
C698   C     0.22721   0.21969   0.48491   0.00000  Uiso   1.00
C699   C     0.10879   0.28477   0.50398   0.00000  Uiso   1.00
C700   C     0.48107   0.19803   0.43142   0.00000  Uiso   1.00
C701   C     0.56124   0.20862   0.44380   0.00000  Uiso   1.00
C702   C     0.60928   0.27387   0.43153   0.00000  Uiso   1.00
C703   C     0.71199   0.37029   0.41970   0.00000  Uiso   1.00
C704   C     0.36073   0.22785   0.39758   0.00000  Uiso   1.00
C705   C     0.36385   0.13571   0.38758   0.00000  Uiso   1.00
C706   C     0.33936   0.10422   0.35843   0.00000  Uiso   1.00
C707   C     0.34707   0.01802   0.35391   0.00000  Uiso   1.00
C708   C     0.30756   0.23057   0.42753   0.00000  Uiso   1.00
C709   C     0.23574   0.27884   0.43197   0.00000  Uiso   1.00
C710   C     0.19606   0.27251   0.46108   0.00000  Uiso   1.00
C711   C     0.44998   0.25076   0.40763   0.00000  Uiso   1.00
C712   C     0.49790   0.31601   0.39534   0.00000  Uiso   1.00
C713   C     0.57813   0.32669   0.40770   0.00000  Uiso   1.00
H714   H     0.44217   0.08973   0.45989   0.00000  Uiso   1.00
H715   H     0.42675   0.95603   0.42531   0.00000  Uiso   1.00
H716   H     0.32315   0.13064   0.49883   0.00000  Uiso   1.00
H717   H     0.58528   0.16781   0.46221   0.00000  Uiso   1.00
H718   H     0.39592   0.83105   0.37647   0.00000  Uiso   1.00
H719   H     0.17749   0.19924   0.53152   0.00000  Uiso   1.00
H720   H     0.73023   0.27761   0.45428   0.00000  Uiso   1.00
H721   H     0.33652   0.26891   0.37905   0.00000  Uiso   1.00
H722   H     0.31530   0.14504   0.34003   0.00000  Uiso   1.00
H723   H     0.21170   0.31964   0.41356   0.00000  Uiso   1.00
H724   H     0.47382   0.35680   0.37693   0.00000  Uiso   1.00
H725   H     0.30546   0.98445   0.30726   0.00000  Uiso   1.00
H726   H     0.08703   0.35265   0.46231   0.00000  Uiso   1.00
H727   H     0.63977   0.43101   0.38507   0.00000  Uiso   1.00
O728   O     0.33861   0.82303   0.31766   0.00000  Uiso   1.00
O729   O     0.05205   0.30609   0.52107   0.00000  Uiso   1.00
O730   O     0.77723   0.40890   0.41974   0.00000  Uiso   1.00
N731   N     0.37755   0.88416   0.36554   0.00000  Uiso   1.00
N732   N     0.17333   0.22838   0.51049   0.00000  Uiso   1.00
N733   N     0.69008   0.30166   0.43829   0.00000  Uiso   1.00
N734   N     0.32888   0.96670   0.32829   0.00000  Uiso   1.00
N735   N     0.12465   0.31093   0.47325   0.00000  Uiso   1.00
N736   N     0.64141   0.38421   0.40105   0.00000  Uiso   1.00
