data_job_02036
_audit_creation_date              2018-12-19
_audit_creation_method            'Materials Studio'
_symmetry_space_group_name_H-M    'P1'
_symmetry_Int_Tables_number       1
_symmetry_cell_setting            triclinic
loop_
_symmetry_equiv_pos_as_xyz
  x,y,z
_cell_length_a                    20.0206
_cell_length_b                    20.0206
_cell_length_c                    39.5462
_cell_angle_alpha                 90.0000
_cell_angle_beta                  90.0000
_cell_angle_gamma                 90.0000
loop_
_atom_site_label
_atom_site_type_symbol
_atom_site_fract_x
_atom_site_fract_y
_atom_site_fract_z
_atom_site_U_iso_or_equiv
_atom_site_adp_type
_atom_site_occupancy
C1     C     0.41304   0.83806   0.20167   0.00000  Uiso   1.00
C2     C     0.35644   0.86489   0.17972   0.00000  Uiso   1.00
C3     C     0.35637   0.92558   0.16278   0.00000  Uiso   1.00
C4     C     0.29981   0.94103   0.14403   0.00000  Uiso   1.00
C5     C     0.22021   0.98935   0.11023   0.00000  Uiso   1.00
C6     C     0.38237   0.82392   0.23623   0.00000  Uiso   1.00
C7     C     0.40410   0.85016   0.26679   0.00000  Uiso   1.00
C8     C     0.36936   0.83111   0.29561   0.00000  Uiso   1.00
C9     C     0.33003   0.81579   0.34954   0.00000  Uiso   1.00
C10    C     0.43156   0.77020   0.18688   0.00000  Uiso   1.00
C11    C     0.49466   0.75126   0.17596   0.00000  Uiso   1.00
C12    C     0.50135   0.68697   0.16324   0.00000  Uiso   1.00
C13    C     0.53841   0.58824   0.14055   0.00000  Uiso   1.00
C14    C     0.31273   0.75754   0.19850   0.00000  Uiso   1.00
C15    C     0.30196   0.82115   0.17801   0.00000  Uiso   1.00
C16    C     0.24538   0.83650   0.15928   0.00000  Uiso   1.00
C17    C     0.24523   0.89721   0.14230   0.00000  Uiso   1.00
C18    C     0.32788   0.78019   0.23451   0.00000  Uiso   1.00
C19    C     0.29311   0.76108   0.26329   0.00000  Uiso   1.00
C20    C     0.31478   0.78730   0.29389   0.00000  Uiso   1.00
C21    C     0.37708   0.72646   0.18516   0.00000  Uiso   1.00
C22    C     0.38367   0.66218   0.17246   0.00000  Uiso   1.00
C23    C     0.44677   0.64316   0.16152   0.00000  Uiso   1.00
H24    H     0.45546   0.87210   0.20301   0.00000  Uiso   1.00
H25    H     0.39855   0.95942   0.16412   0.00000  Uiso   1.00
H26    H     0.44627   0.88400   0.26811   0.00000  Uiso   1.00
H27    H     0.53681   0.78512   0.17730   0.00000  Uiso   1.00
H28    H     0.31140   0.03695   0.12025   0.00000  Uiso   1.00
H29    H     0.41204   0.87791   0.33954   0.00000  Uiso   1.00
H30    H     0.60298   0.66939   0.14803   0.00000  Uiso   1.00
H31    H     0.27030   0.72349   0.19716   0.00000  Uiso   1.00
H32    H     0.20323   0.80265   0.15795   0.00000  Uiso   1.00
H33    H     0.25095   0.72724   0.26195   0.00000  Uiso   1.00
H34    H     0.34150   0.62836   0.17113   0.00000  Uiso   1.00
H35    H     0.15288   0.90971   0.11525   0.00000  Uiso   1.00
H36    H     0.25352   0.75067   0.33453   0.00000  Uiso   1.00
H37    H     0.44445   0.54216   0.14303   0.00000  Uiso   1.00
O38    O     0.19135   0.02809   0.09207   0.00000  Uiso   1.00
O39    O     0.32339   0.81943   0.37976   0.00000  Uiso   1.00
O40    O     0.57390   0.54587   0.12851   0.00000  Uiso   1.00
N41    N     0.28331   0.99613   0.12445   0.00000  Uiso   1.00
N42    N     0.37739   0.84745   0.32947   0.00000  Uiso   1.00
N43    N     0.55591   0.65250   0.15043   0.00000  Uiso   1.00
N44    N     0.19800   0.92767   0.12176   0.00000  Uiso   1.00
N45    N     0.29209   0.77898   0.32677   0.00000  Uiso   1.00
N46    N     0.47060   0.58404   0.14774   0.00000  Uiso   1.00
C47    C     0.91304   0.33806   0.70167   0.00000  Uiso   1.00
C48    C     0.85644   0.36489   0.67972   0.00000  Uiso   1.00
C49    C     0.85637   0.42558   0.66278   0.00000  Uiso   1.00
C50    C     0.79981   0.44103   0.64403   0.00000  Uiso   1.00
C51    C     0.72021   0.48935   0.61023   0.00000  Uiso   1.00
C52    C     0.88237   0.32392   0.73623   0.00000  Uiso   1.00
C53    C     0.90410   0.35016   0.76679   0.00000  Uiso   1.00
C54    C     0.86936   0.33111   0.79561   0.00000  Uiso   1.00
C55    C     0.83003   0.31579   0.84954   0.00000  Uiso   1.00
C56    C     0.93156   0.27020   0.68688   0.00000  Uiso   1.00
C57    C     0.99466   0.25126   0.67596   0.00000  Uiso   1.00
C58    C     0.00135   0.18697   0.66324   0.00000  Uiso   1.00
C59    C     0.03841   0.08824   0.64055   0.00000  Uiso   1.00
C60    C     0.81273   0.25754   0.69850   0.00000  Uiso   1.00
C61    C     0.80196   0.32115   0.67801   0.00000  Uiso   1.00
C62    C     0.74538   0.33650   0.65928   0.00000  Uiso   1.00
C63    C     0.74523   0.39721   0.64230   0.00000  Uiso   1.00
C64    C     0.82788   0.28019   0.73451   0.00000  Uiso   1.00
C65    C     0.79311   0.26108   0.76329   0.00000  Uiso   1.00
C66    C     0.81478   0.28730   0.79389   0.00000  Uiso   1.00
C67    C     0.87708   0.22646   0.68516   0.00000  Uiso   1.00
C68    C     0.88367   0.16218   0.67246   0.00000  Uiso   1.00
C69    C     0.94677   0.14316   0.66152   0.00000  Uiso   1.00
H70    H     0.95546   0.37210   0.70301   0.00000  Uiso   1.00
H71    H     0.89855   0.45942   0.66412   0.00000  Uiso   1.00
H72    H     0.94627   0.38400   0.76811   0.00000  Uiso   1.00
H73    H     0.03681   0.28512   0.67730   0.00000  Uiso   1.00
H74    H     0.81140   0.53695   0.62025   0.00000  Uiso   1.00
H75    H     0.91204   0.37791   0.83954   0.00000  Uiso   1.00
H76    H     0.10298   0.16939   0.64803   0.00000  Uiso   1.00
H77    H     0.77030   0.22349   0.69716   0.00000  Uiso   1.00
H78    H     0.70323   0.30265   0.65795   0.00000  Uiso   1.00
H79    H     0.75095   0.22724   0.76195   0.00000  Uiso   1.00
H80    H     0.84150   0.12836   0.67113   0.00000  Uiso   1.00
H81    H     0.65288   0.40971   0.61525   0.00000  Uiso   1.00
H82    H     0.75352   0.25067   0.83453   0.00000  Uiso   1.00
H83    H     0.94445   0.04216   0.64303   0.00000  Uiso   1.00
O84    O     0.69135   0.52809   0.59207   0.00000  Uiso   1.00
O85    O     0.82339   0.31943   0.87976   0.00000  Uiso   1.00
O86    O     0.07390   0.04587   0.62851   0.00000  Uiso   1.00
N87    N     0.78331   0.49613   0.62445   0.00000  Uiso   1.00
N88    N     0.87739   0.34745   0.82947   0.00000  Uiso   1.00
N89    N     0.05591   0.15250   0.65043   0.00000  Uiso   1.00
N90    N     0.69800   0.42767   0.62176   0.00000  Uiso   1.00
N91    N     0.79209   0.27898   0.82677   0.00000  Uiso   1.00
N92    N     0.97060   0.08404   0.64774   0.00000  Uiso   1.00
C93    C     0.58696   0.16194   0.20167   0.00000  Uiso   1.00
C94    C     0.64356   0.13511   0.17972   0.00000  Uiso   1.00
C95    C     0.64363   0.07442   0.16278   0.00000  Uiso   1.00
C96    C     0.70019   0.05897   0.14403   0.00000  Uiso   1.00
C97    C     0.77979   0.01065   0.11023   0.00000  Uiso   1.00
C98    C     0.61763   0.17608   0.23623   0.00000  Uiso   1.00
C99    C     0.59590   0.14984   0.26679   0.00000  Uiso   1.00
C100   C     0.63064   0.16889   0.29561   0.00000  Uiso   1.00
C101   C     0.66997   0.18421   0.34954   0.00000  Uiso   1.00
C102   C     0.56844   0.22980   0.18688   0.00000  Uiso   1.00
C103   C     0.50534   0.24874   0.17596   0.00000  Uiso   1.00
C104   C     0.49865   0.31303   0.16324   0.00000  Uiso   1.00
C105   C     0.46159   0.41176   0.14055   0.00000  Uiso   1.00
C106   C     0.68727   0.24246   0.19850   0.00000  Uiso   1.00
C107   C     0.69804   0.17885   0.17801   0.00000  Uiso   1.00
C108   C     0.75462   0.16350   0.15928   0.00000  Uiso   1.00
C109   C     0.75477   0.10279   0.14230   0.00000  Uiso   1.00
C110   C     0.67212   0.21981   0.23451   0.00000  Uiso   1.00
C111   C     0.70689   0.23892   0.26329   0.00000  Uiso   1.00
C112   C     0.68522   0.21270   0.29389   0.00000  Uiso   1.00
C113   C     0.62292   0.27354   0.18516   0.00000  Uiso   1.00
C114   C     0.61633   0.33782   0.17246   0.00000  Uiso   1.00
C115   C     0.55323   0.35684   0.16152   0.00000  Uiso   1.00
H116   H     0.54454   0.12790   0.20301   0.00000  Uiso   1.00
H117   H     0.60145   0.04058   0.16412   0.00000  Uiso   1.00
H118   H     0.55373   0.11600   0.26811   0.00000  Uiso   1.00
H119   H     0.46319   0.21488   0.17730   0.00000  Uiso   1.00
H120   H     0.68860   0.96305   0.12025   0.00000  Uiso   1.00
H121   H     0.58796   0.12209   0.33954   0.00000  Uiso   1.00
H122   H     0.39702   0.33061   0.14803   0.00000  Uiso   1.00
H123   H     0.72970   0.27651   0.19716   0.00000  Uiso   1.00
H124   H     0.79677   0.19735   0.15795   0.00000  Uiso   1.00
H125   H     0.74905   0.27276   0.26195   0.00000  Uiso   1.00
H126   H     0.65850   0.37164   0.17113   0.00000  Uiso   1.00
H127   H     0.84712   0.09029   0.11525   0.00000  Uiso   1.00
H128   H     0.74648   0.24933   0.33453   0.00000  Uiso   1.00
H129   H     0.55555   0.45784   0.14303   0.00000  Uiso   1.00
O130   O     0.80865   0.97191   0.09207   0.00000  Uiso   1.00
O131   O     0.67661   0.18057   0.37976   0.00000  Uiso   1.00
O132   O     0.42610   0.45413   0.12851   0.00000  Uiso   1.00
N133   N     0.71669   0.00387   0.12445   0.00000  Uiso   1.00
N134   N     0.62261   0.15255   0.32947   0.00000  Uiso   1.00
N135   N     0.44409   0.34750   0.15043   0.00000  Uiso   1.00
N136   N     0.80200   0.07233   0.12176   0.00000  Uiso   1.00
N137   N     0.70791   0.22102   0.32677   0.00000  Uiso   1.00
N138   N     0.52940   0.41596   0.14774   0.00000  Uiso   1.00
C139   C     0.08696   0.66194   0.70167   0.00000  Uiso   1.00
C140   C     0.14356   0.63511   0.67972   0.00000  Uiso   1.00
C141   C     0.14363   0.57442   0.66278   0.00000  Uiso   1.00
C142   C     0.20019   0.55897   0.64403   0.00000  Uiso   1.00
C143   C     0.27979   0.51065   0.61023   0.00000  Uiso   1.00
C144   C     0.11763   0.67608   0.73623   0.00000  Uiso   1.00
C145   C     0.09590   0.64984   0.76679   0.00000  Uiso   1.00
C146   C     0.13064   0.66889   0.79561   0.00000  Uiso   1.00
C147   C     0.16997   0.68421   0.84954   0.00000  Uiso   1.00
C148   C     0.06844   0.72980   0.68688   0.00000  Uiso   1.00
C149   C     0.00534   0.74874   0.67596   0.00000  Uiso   1.00
C150   C     0.99865   0.81303   0.66324   0.00000  Uiso   1.00
C151   C     0.96159   0.91176   0.64055   0.00000  Uiso   1.00
C152   C     0.18727   0.74246   0.69850   0.00000  Uiso   1.00
C153   C     0.19804   0.67885   0.67801   0.00000  Uiso   1.00
C154   C     0.25462   0.66350   0.65928   0.00000  Uiso   1.00
C155   C     0.25477   0.60279   0.64230   0.00000  Uiso   1.00
C156   C     0.17212   0.71981   0.73451   0.00000  Uiso   1.00
C157   C     0.20689   0.73892   0.76329   0.00000  Uiso   1.00
C158   C     0.18522   0.71270   0.79389   0.00000  Uiso   1.00
C159   C     0.12292   0.77354   0.68516   0.00000  Uiso   1.00
C160   C     0.11633   0.83782   0.67246   0.00000  Uiso   1.00
C161   C     0.05323   0.85684   0.66152   0.00000  Uiso   1.00
H162   H     0.04454   0.62790   0.70301   0.00000  Uiso   1.00
H163   H     0.10145   0.54058   0.66412   0.00000  Uiso   1.00
H164   H     0.05373   0.61600   0.76811   0.00000  Uiso   1.00
H165   H     0.96319   0.71488   0.67730   0.00000  Uiso   1.00
H166   H     0.18860   0.46305   0.62025   0.00000  Uiso   1.00
H167   H     0.08796   0.62209   0.83954   0.00000  Uiso   1.00
H168   H     0.89702   0.83061   0.64803   0.00000  Uiso   1.00
H169   H     0.22970   0.77651   0.69716   0.00000  Uiso   1.00
H170   H     0.29677   0.69735   0.65795   0.00000  Uiso   1.00
H171   H     0.24905   0.77276   0.76195   0.00000  Uiso   1.00
H172   H     0.15850   0.87164   0.67113   0.00000  Uiso   1.00
H173   H     0.34712   0.59029   0.61525   0.00000  Uiso   1.00
H174   H     0.24648   0.74933   0.83453   0.00000  Uiso   1.00
H175   H     0.05555   0.95784   0.64303   0.00000  Uiso   1.00
O176   O     0.30865   0.47191   0.59207   0.00000  Uiso   1.00
O177   O     0.17661   0.68057   0.87976   0.00000  Uiso   1.00
O178   O     0.92610   0.95413   0.62851   0.00000  Uiso   1.00
N179   N     0.21669   0.50387   0.62445   0.00000  Uiso   1.00
N180   N     0.12261   0.65255   0.82947   0.00000  Uiso   1.00
N181   N     0.94409   0.84750   0.65043   0.00000  Uiso   1.00
N182   N     0.30200   0.57233   0.62176   0.00000  Uiso   1.00
N183   N     0.20791   0.72102   0.82677   0.00000  Uiso   1.00
N184   N     0.02940   0.91596   0.64774   0.00000  Uiso   1.00
C185   C     0.83806   0.58696   0.79833   0.00000  Uiso   1.00
C186   C     0.86489   0.64356   0.82028   0.00000  Uiso   1.00
C187   C     0.92558   0.64363   0.83722   0.00000  Uiso   1.00
C188   C     0.94103   0.70019   0.85597   0.00000  Uiso   1.00
C189   C     0.98935   0.77979   0.88977   0.00000  Uiso   1.00
C190   C     0.82392   0.61763   0.76377   0.00000  Uiso   1.00
C191   C     0.85016   0.59590   0.73321   0.00000  Uiso   1.00
C192   C     0.83111   0.63064   0.70439   0.00000  Uiso   1.00
C193   C     0.81579   0.66997   0.65046   0.00000  Uiso   1.00
C194   C     0.77020   0.56844   0.81312   0.00000  Uiso   1.00
C195   C     0.75126   0.50534   0.82404   0.00000  Uiso   1.00
C196   C     0.68697   0.49865   0.83676   0.00000  Uiso   1.00
C197   C     0.58824   0.46159   0.85945   0.00000  Uiso   1.00
C198   C     0.75754   0.68727   0.80150   0.00000  Uiso   1.00
C199   C     0.82115   0.69804   0.82199   0.00000  Uiso   1.00
C200   C     0.83650   0.75462   0.84072   0.00000  Uiso   1.00
C201   C     0.89721   0.75477   0.85770   0.00000  Uiso   1.00
C202   C     0.78019   0.67212   0.76549   0.00000  Uiso   1.00
C203   C     0.76108   0.70689   0.73671   0.00000  Uiso   1.00
C204   C     0.78730   0.68522   0.70611   0.00000  Uiso   1.00
C205   C     0.72646   0.62292   0.81484   0.00000  Uiso   1.00
C206   C     0.66218   0.61633   0.82754   0.00000  Uiso   1.00
C207   C     0.64316   0.55323   0.83848   0.00000  Uiso   1.00
H208   H     0.87210   0.54454   0.79699   0.00000  Uiso   1.00
H209   H     0.95942   0.60145   0.83588   0.00000  Uiso   1.00
H210   H     0.88400   0.55373   0.73189   0.00000  Uiso   1.00
H211   H     0.78512   0.46319   0.82270   0.00000  Uiso   1.00
H212   H     0.03695   0.68860   0.87975   0.00000  Uiso   1.00
H213   H     0.87791   0.58796   0.66046   0.00000  Uiso   1.00
H214   H     0.66939   0.39702   0.85197   0.00000  Uiso   1.00
H215   H     0.72349   0.72970   0.80284   0.00000  Uiso   1.00
H216   H     0.80265   0.79677   0.84205   0.00000  Uiso   1.00
H217   H     0.72724   0.74905   0.73805   0.00000  Uiso   1.00
H218   H     0.62836   0.65850   0.82887   0.00000  Uiso   1.00
H219   H     0.90971   0.84712   0.88475   0.00000  Uiso   1.00
H220   H     0.75067   0.74648   0.66547   0.00000  Uiso   1.00
H221   H     0.54216   0.55555   0.85697   0.00000  Uiso   1.00
O222   O     0.02809   0.80865   0.90793   0.00000  Uiso   1.00
O223   O     0.81943   0.67661   0.62024   0.00000  Uiso   1.00
O224   O     0.54587   0.42610   0.87149   0.00000  Uiso   1.00
N225   N     0.99613   0.71669   0.87555   0.00000  Uiso   1.00
N226   N     0.84745   0.62261   0.67053   0.00000  Uiso   1.00
N227   N     0.65250   0.44409   0.84957   0.00000  Uiso   1.00
N228   N     0.92767   0.80200   0.87824   0.00000  Uiso   1.00
N229   N     0.77898   0.70791   0.67323   0.00000  Uiso   1.00
N230   N     0.58404   0.52940   0.85226   0.00000  Uiso   1.00
C231   C     0.33806   0.08696   0.29833   0.00000  Uiso   1.00
C232   C     0.36489   0.14356   0.32028   0.00000  Uiso   1.00
C233   C     0.42558   0.14363   0.33722   0.00000  Uiso   1.00
C234   C     0.44103   0.20019   0.35597   0.00000  Uiso   1.00
C235   C     0.48935   0.27979   0.38977   0.00000  Uiso   1.00
C236   C     0.32392   0.11763   0.26377   0.00000  Uiso   1.00
C237   C     0.35016   0.09590   0.23321   0.00000  Uiso   1.00
C238   C     0.33111   0.13064   0.20439   0.00000  Uiso   1.00
C239   C     0.31579   0.16997   0.15046   0.00000  Uiso   1.00
C240   C     0.27020   0.06844   0.31312   0.00000  Uiso   1.00
C241   C     0.25126   0.00534   0.32404   0.00000  Uiso   1.00
C242   C     0.18697   0.99865   0.33676   0.00000  Uiso   1.00
C243   C     0.08824   0.96159   0.35945   0.00000  Uiso   1.00
C244   C     0.25754   0.18727   0.30150   0.00000  Uiso   1.00
C245   C     0.32115   0.19804   0.32199   0.00000  Uiso   1.00
C246   C     0.33650   0.25462   0.34072   0.00000  Uiso   1.00
C247   C     0.39721   0.25477   0.35770   0.00000  Uiso   1.00
C248   C     0.28019   0.17212   0.26549   0.00000  Uiso   1.00
C249   C     0.26108   0.20689   0.23671   0.00000  Uiso   1.00
C250   C     0.28730   0.18522   0.20611   0.00000  Uiso   1.00
C251   C     0.22646   0.12292   0.31484   0.00000  Uiso   1.00
C252   C     0.16218   0.11633   0.32754   0.00000  Uiso   1.00
C253   C     0.14316   0.05323   0.33848   0.00000  Uiso   1.00
H254   H     0.37210   0.04454   0.29699   0.00000  Uiso   1.00
H255   H     0.45942   0.10145   0.33588   0.00000  Uiso   1.00
H256   H     0.38400   0.05373   0.23189   0.00000  Uiso   1.00
H257   H     0.28512   0.96319   0.32270   0.00000  Uiso   1.00
H258   H     0.53695   0.18860   0.37975   0.00000  Uiso   1.00
H259   H     0.37791   0.08796   0.16046   0.00000  Uiso   1.00
H260   H     0.16939   0.89702   0.35197   0.00000  Uiso   1.00
H261   H     0.22349   0.22970   0.30284   0.00000  Uiso   1.00
H262   H     0.30265   0.29677   0.34205   0.00000  Uiso   1.00
H263   H     0.22724   0.24905   0.23805   0.00000  Uiso   1.00
H264   H     0.12836   0.15850   0.32887   0.00000  Uiso   1.00
H265   H     0.40971   0.34712   0.38475   0.00000  Uiso   1.00
H266   H     0.25067   0.24648   0.16547   0.00000  Uiso   1.00
H267   H     0.04216   0.05555   0.35697   0.00000  Uiso   1.00
O268   O     0.52809   0.30865   0.40793   0.00000  Uiso   1.00
O269   O     0.31943   0.17661   0.12024   0.00000  Uiso   1.00
O270   O     0.04587   0.92610   0.37149   0.00000  Uiso   1.00
N271   N     0.49613   0.21669   0.37555   0.00000  Uiso   1.00
N272   N     0.34745   0.12261   0.17053   0.00000  Uiso   1.00
N273   N     0.15250   0.94409   0.34957   0.00000  Uiso   1.00
N274   N     0.42767   0.30200   0.37824   0.00000  Uiso   1.00
N275   N     0.27898   0.20791   0.17323   0.00000  Uiso   1.00
N276   N     0.08404   0.02940   0.35226   0.00000  Uiso   1.00
C277   C     0.16194   0.41304   0.79833   0.00000  Uiso   1.00
C278   C     0.13511   0.35644   0.82028   0.00000  Uiso   1.00
C279   C     0.07442   0.35637   0.83722   0.00000  Uiso   1.00
C280   C     0.05897   0.29981   0.85597   0.00000  Uiso   1.00
C281   C     0.01065   0.22021   0.88977   0.00000  Uiso   1.00
C282   C     0.17608   0.38237   0.76377   0.00000  Uiso   1.00
C283   C     0.14984   0.40410   0.73321   0.00000  Uiso   1.00
C284   C     0.16889   0.36936   0.70439   0.00000  Uiso   1.00
C285   C     0.18421   0.33003   0.65046   0.00000  Uiso   1.00
C286   C     0.22980   0.43156   0.81312   0.00000  Uiso   1.00
C287   C     0.24874   0.49466   0.82404   0.00000  Uiso   1.00
C288   C     0.31303   0.50135   0.83676   0.00000  Uiso   1.00
C289   C     0.41176   0.53841   0.85945   0.00000  Uiso   1.00
C290   C     0.24246   0.31273   0.80150   0.00000  Uiso   1.00
C291   C     0.17885   0.30196   0.82199   0.00000  Uiso   1.00
C292   C     0.16350   0.24538   0.84072   0.00000  Uiso   1.00
C293   C     0.10279   0.24523   0.85770   0.00000  Uiso   1.00
C294   C     0.21981   0.32788   0.76549   0.00000  Uiso   1.00
C295   C     0.23892   0.29311   0.73671   0.00000  Uiso   1.00
C296   C     0.21270   0.31478   0.70611   0.00000  Uiso   1.00
C297   C     0.27354   0.37708   0.81484   0.00000  Uiso   1.00
C298   C     0.33782   0.38367   0.82754   0.00000  Uiso   1.00
C299   C     0.35684   0.44677   0.83848   0.00000  Uiso   1.00
H300   H     0.12790   0.45546   0.79699   0.00000  Uiso   1.00
H301   H     0.04058   0.39855   0.83588   0.00000  Uiso   1.00
H302   H     0.11600   0.44627   0.73189   0.00000  Uiso   1.00
H303   H     0.21488   0.53681   0.82270   0.00000  Uiso   1.00
H304   H     0.96305   0.31140   0.87975   0.00000  Uiso   1.00
H305   H     0.12209   0.41204   0.66046   0.00000  Uiso   1.00
H306   H     0.33061   0.60298   0.85197   0.00000  Uiso   1.00
H307   H     0.27651   0.27030   0.80284   0.00000  Uiso   1.00
H308   H     0.19735   0.20323   0.84205   0.00000  Uiso   1.00
H309   H     0.27276   0.25095   0.73805   0.00000  Uiso   1.00
H310   H     0.37164   0.34150   0.82887   0.00000  Uiso   1.00
H311   H     0.09029   0.15288   0.88475   0.00000  Uiso   1.00
H312   H     0.24933   0.25352   0.66547   0.00000  Uiso   1.00
H313   H     0.45784   0.44445   0.85697   0.00000  Uiso   1.00
O314   O     0.97191   0.19135   0.90793   0.00000  Uiso   1.00
O315   O     0.18057   0.32339   0.62024   0.00000  Uiso   1.00
O316   O     0.45413   0.57390   0.87149   0.00000  Uiso   1.00
N317   N     0.00387   0.28331   0.87555   0.00000  Uiso   1.00
N318   N     0.15255   0.37739   0.67053   0.00000  Uiso   1.00
N319   N     0.34750   0.55591   0.84957   0.00000  Uiso   1.00
N320   N     0.07233   0.19800   0.87824   0.00000  Uiso   1.00
N321   N     0.22102   0.29209   0.67323   0.00000  Uiso   1.00
N322   N     0.41596   0.47060   0.85226   0.00000  Uiso   1.00
C323   C     0.66194   0.91304   0.29833   0.00000  Uiso   1.00
C324   C     0.63511   0.85644   0.32028   0.00000  Uiso   1.00
C325   C     0.57442   0.85637   0.33722   0.00000  Uiso   1.00
C326   C     0.55897   0.79981   0.35597   0.00000  Uiso   1.00
C327   C     0.51065   0.72021   0.38977   0.00000  Uiso   1.00
C328   C     0.67608   0.88237   0.26377   0.00000  Uiso   1.00
C329   C     0.64984   0.90410   0.23321   0.00000  Uiso   1.00
C330   C     0.66889   0.86936   0.20439   0.00000  Uiso   1.00
C331   C     0.68421   0.83003   0.15046   0.00000  Uiso   1.00
C332   C     0.72980   0.93156   0.31312   0.00000  Uiso   1.00
C333   C     0.74874   0.99466   0.32404   0.00000  Uiso   1.00
C334   C     0.81303   0.00135   0.33676   0.00000  Uiso   1.00
C335   C     0.91176   0.03841   0.35945   0.00000  Uiso   1.00
C336   C     0.74246   0.81273   0.30150   0.00000  Uiso   1.00
C337   C     0.67885   0.80196   0.32199   0.00000  Uiso   1.00
C338   C     0.66350   0.74538   0.34072   0.00000  Uiso   1.00
C339   C     0.60279   0.74523   0.35770   0.00000  Uiso   1.00
C340   C     0.71981   0.82788   0.26549   0.00000  Uiso   1.00
C341   C     0.73892   0.79311   0.23671   0.00000  Uiso   1.00
C342   C     0.71270   0.81478   0.20611   0.00000  Uiso   1.00
C343   C     0.77354   0.87708   0.31484   0.00000  Uiso   1.00
C344   C     0.83782   0.88367   0.32754   0.00000  Uiso   1.00
C345   C     0.85684   0.94677   0.33848   0.00000  Uiso   1.00
H346   H     0.62790   0.95546   0.29699   0.00000  Uiso   1.00
H347   H     0.54058   0.89855   0.33588   0.00000  Uiso   1.00
H348   H     0.61600   0.94627   0.23189   0.00000  Uiso   1.00
H349   H     0.71488   0.03681   0.32270   0.00000  Uiso   1.00
H350   H     0.46305   0.81140   0.37975   0.00000  Uiso   1.00
H351   H     0.62209   0.91204   0.16046   0.00000  Uiso   1.00
H352   H     0.83061   0.10298   0.35197   0.00000  Uiso   1.00
H353   H     0.77651   0.77030   0.30284   0.00000  Uiso   1.00
H354   H     0.69735   0.70323   0.34205   0.00000  Uiso   1.00
H355   H     0.77276   0.75095   0.23805   0.00000  Uiso   1.00
H356   H     0.87164   0.84150   0.32887   0.00000  Uiso   1.00
H357   H     0.59029   0.65288   0.38475   0.00000  Uiso   1.00
H358   H     0.74933   0.75352   0.16547   0.00000  Uiso   1.00
H359   H     0.95784   0.94445   0.35697   0.00000  Uiso   1.00
O360   O     0.47191   0.69135   0.40793   0.00000  Uiso   1.00
O361   O     0.68057   0.82339   0.12024   0.00000  Uiso   1.00
O362   O     0.95413   0.07390   0.37149   0.00000  Uiso   1.00
N363   N     0.50387   0.78331   0.37555   0.00000  Uiso   1.00
N364   N     0.65255   0.87739   0.17053   0.00000  Uiso   1.00
N365   N     0.84750   0.05591   0.34957   0.00000  Uiso   1.00
N366   N     0.57233   0.69800   0.37824   0.00000  Uiso   1.00
N367   N     0.72102   0.79209   0.17323   0.00000  Uiso   1.00
N368   N     0.91596   0.97060   0.35226   0.00000  Uiso   1.00
C369   C     0.08696   0.83806   0.54833   0.00000  Uiso   1.00
C370   C     0.14356   0.86489   0.57028   0.00000  Uiso   1.00
C371   C     0.14363   0.92558   0.58722   0.00000  Uiso   1.00
C372   C     0.20019   0.94103   0.60597   0.00000  Uiso   1.00
C373   C     0.27979   0.98935   0.63977   0.00000  Uiso   1.00
C374   C     0.11763   0.82392   0.51377   0.00000  Uiso   1.00
C375   C     0.09590   0.85016   0.48321   0.00000  Uiso   1.00
C376   C     0.13064   0.83111   0.45439   0.00000  Uiso   1.00
C377   C     0.16997   0.81579   0.40046   0.00000  Uiso   1.00
C378   C     0.06844   0.77020   0.56312   0.00000  Uiso   1.00
C379   C     0.00534   0.75126   0.57404   0.00000  Uiso   1.00
C380   C     0.99865   0.68697   0.58676   0.00000  Uiso   1.00
C381   C     0.96159   0.58824   0.60945   0.00000  Uiso   1.00
C382   C     0.18727   0.75754   0.55150   0.00000  Uiso   1.00
C383   C     0.19804   0.82115   0.57199   0.00000  Uiso   1.00
C384   C     0.25462   0.83650   0.59072   0.00000  Uiso   1.00
C385   C     0.25477   0.89721   0.60770   0.00000  Uiso   1.00
C386   C     0.17212   0.78019   0.51549   0.00000  Uiso   1.00
C387   C     0.20689   0.76108   0.48671   0.00000  Uiso   1.00
C388   C     0.18522   0.78730   0.45611   0.00000  Uiso   1.00
C389   C     0.12292   0.72646   0.56484   0.00000  Uiso   1.00
C390   C     0.11633   0.66218   0.57754   0.00000  Uiso   1.00
C391   C     0.05323   0.64316   0.58848   0.00000  Uiso   1.00
H392   H     0.04454   0.87210   0.54699   0.00000  Uiso   1.00
H393   H     0.10145   0.95942   0.58588   0.00000  Uiso   1.00
H394   H     0.05373   0.88400   0.48189   0.00000  Uiso   1.00
H395   H     0.96319   0.78512   0.57270   0.00000  Uiso   1.00
H396   H     0.18860   0.03695   0.62975   0.00000  Uiso   1.00
H397   H     0.08796   0.87791   0.41046   0.00000  Uiso   1.00
H398   H     0.89702   0.66939   0.60197   0.00000  Uiso   1.00
H399   H     0.22970   0.72349   0.55284   0.00000  Uiso   1.00
H400   H     0.29677   0.80265   0.59205   0.00000  Uiso   1.00
H401   H     0.24905   0.72724   0.48805   0.00000  Uiso   1.00
H402   H     0.15850   0.62836   0.57887   0.00000  Uiso   1.00
H403   H     0.34712   0.90971   0.63475   0.00000  Uiso   1.00
H404   H     0.24648   0.75067   0.41547   0.00000  Uiso   1.00
H405   H     0.05555   0.54216   0.60697   0.00000  Uiso   1.00
O406   O     0.30865   0.02809   0.65793   0.00000  Uiso   1.00
O407   O     0.17661   0.81943   0.37024   0.00000  Uiso   1.00
O408   O     0.92610   0.54587   0.62149   0.00000  Uiso   1.00
N409   N     0.21669   0.99613   0.62555   0.00000  Uiso   1.00
N410   N     0.12261   0.84745   0.42053   0.00000  Uiso   1.00
N411   N     0.94409   0.65250   0.59957   0.00000  Uiso   1.00
N412   N     0.30200   0.92767   0.62824   0.00000  Uiso   1.00
N413   N     0.20791   0.77898   0.42323   0.00000  Uiso   1.00
N414   N     0.02940   0.58404   0.60226   0.00000  Uiso   1.00
C415   C     0.58696   0.33806   0.04833   0.00000  Uiso   1.00
C416   C     0.64356   0.36489   0.07028   0.00000  Uiso   1.00
C417   C     0.64363   0.42558   0.08722   0.00000  Uiso   1.00
C418   C     0.70019   0.44103   0.10597   0.00000  Uiso   1.00
C419   C     0.77979   0.48935   0.13977   0.00000  Uiso   1.00
C420   C     0.61763   0.32392   0.01377   0.00000  Uiso   1.00
C421   C     0.59590   0.35016   0.98321   0.00000  Uiso   1.00
C422   C     0.63064   0.33111   0.95439   0.00000  Uiso   1.00
C423   C     0.66997   0.31579   0.90046   0.00000  Uiso   1.00
C424   C     0.56844   0.27020   0.06312   0.00000  Uiso   1.00
C425   C     0.50534   0.25126   0.07404   0.00000  Uiso   1.00
C426   C     0.49865   0.18697   0.08676   0.00000  Uiso   1.00
C427   C     0.46159   0.08824   0.10945   0.00000  Uiso   1.00
C428   C     0.68727   0.25754   0.05150   0.00000  Uiso   1.00
C429   C     0.69804   0.32115   0.07199   0.00000  Uiso   1.00
C430   C     0.75462   0.33650   0.09072   0.00000  Uiso   1.00
C431   C     0.75477   0.39721   0.10770   0.00000  Uiso   1.00
C432   C     0.67212   0.28019   0.01549   0.00000  Uiso   1.00
C433   C     0.70689   0.26108   0.98671   0.00000  Uiso   1.00
C434   C     0.68522   0.28730   0.95611   0.00000  Uiso   1.00
C435   C     0.62292   0.22646   0.06484   0.00000  Uiso   1.00
C436   C     0.61633   0.16218   0.07754   0.00000  Uiso   1.00
C437   C     0.55323   0.14316   0.08848   0.00000  Uiso   1.00
H438   H     0.54454   0.37210   0.04699   0.00000  Uiso   1.00
H439   H     0.60145   0.45942   0.08588   0.00000  Uiso   1.00
H440   H     0.55373   0.38400   0.98189   0.00000  Uiso   1.00
H441   H     0.46319   0.28512   0.07270   0.00000  Uiso   1.00
H442   H     0.68860   0.53695   0.12975   0.00000  Uiso   1.00
H443   H     0.58796   0.37791   0.91046   0.00000  Uiso   1.00
H444   H     0.39702   0.16939   0.10197   0.00000  Uiso   1.00
H445   H     0.72970   0.22349   0.05284   0.00000  Uiso   1.00
H446   H     0.79677   0.30265   0.09205   0.00000  Uiso   1.00
H447   H     0.74905   0.22724   0.98805   0.00000  Uiso   1.00
H448   H     0.65850   0.12836   0.07887   0.00000  Uiso   1.00
H449   H     0.84712   0.40971   0.13475   0.00000  Uiso   1.00
H450   H     0.74648   0.25067   0.91547   0.00000  Uiso   1.00
H451   H     0.55555   0.04216   0.10697   0.00000  Uiso   1.00
O452   O     0.80865   0.52809   0.15793   0.00000  Uiso   1.00
O453   O     0.67661   0.31943   0.87024   0.00000  Uiso   1.00
O454   O     0.42610   0.04587   0.12149   0.00000  Uiso   1.00
N455   N     0.71669   0.49613   0.12555   0.00000  Uiso   1.00
N456   N     0.62261   0.34745   0.92053   0.00000  Uiso   1.00
N457   N     0.44409   0.15250   0.09957   0.00000  Uiso   1.00
N458   N     0.80200   0.42767   0.12824   0.00000  Uiso   1.00
N459   N     0.70791   0.27898   0.92323   0.00000  Uiso   1.00
N460   N     0.52940   0.08404   0.10226   0.00000  Uiso   1.00
C461   C     0.91304   0.16194   0.54833   0.00000  Uiso   1.00
C462   C     0.85644   0.13511   0.57028   0.00000  Uiso   1.00
C463   C     0.85637   0.07442   0.58722   0.00000  Uiso   1.00
C464   C     0.79981   0.05897   0.60597   0.00000  Uiso   1.00
C465   C     0.72021   0.01065   0.63977   0.00000  Uiso   1.00
C466   C     0.88237   0.17608   0.51377   0.00000  Uiso   1.00
C467   C     0.90410   0.14984   0.48321   0.00000  Uiso   1.00
C468   C     0.86936   0.16889   0.45439   0.00000  Uiso   1.00
C469   C     0.83003   0.18421   0.40046   0.00000  Uiso   1.00
C470   C     0.93156   0.22980   0.56312   0.00000  Uiso   1.00
C471   C     0.99466   0.24874   0.57404   0.00000  Uiso   1.00
C472   C     0.00135   0.31303   0.58676   0.00000  Uiso   1.00
C473   C     0.03841   0.41176   0.60945   0.00000  Uiso   1.00
C474   C     0.81273   0.24246   0.55150   0.00000  Uiso   1.00
C475   C     0.80196   0.17885   0.57199   0.00000  Uiso   1.00
C476   C     0.74538   0.16350   0.59072   0.00000  Uiso   1.00
C477   C     0.74523   0.10279   0.60770   0.00000  Uiso   1.00
C478   C     0.82788   0.21981   0.51549   0.00000  Uiso   1.00
C479   C     0.79311   0.23892   0.48671   0.00000  Uiso   1.00
C480   C     0.81478   0.21270   0.45611   0.00000  Uiso   1.00
C481   C     0.87708   0.27354   0.56484   0.00000  Uiso   1.00
C482   C     0.88367   0.33782   0.57754   0.00000  Uiso   1.00
C483   C     0.94677   0.35684   0.58848   0.00000  Uiso   1.00
H484   H     0.95546   0.12790   0.54699   0.00000  Uiso   1.00
H485   H     0.89855   0.04058   0.58588   0.00000  Uiso   1.00
H486   H     0.94627   0.11600   0.48189   0.00000  Uiso   1.00
H487   H     0.03681   0.21488   0.57270   0.00000  Uiso   1.00
H488   H     0.81140   0.96305   0.62975   0.00000  Uiso   1.00
H489   H     0.91204   0.12209   0.41046   0.00000  Uiso   1.00
H490   H     0.10298   0.33061   0.60197   0.00000  Uiso   1.00
H491   H     0.77030   0.27651   0.55284   0.00000  Uiso   1.00
H492   H     0.70323   0.19735   0.59205   0.00000  Uiso   1.00
H493   H     0.75095   0.27276   0.48805   0.00000  Uiso   1.00
H494   H     0.84150   0.37164   0.57887   0.00000  Uiso   1.00
H495   H     0.65288   0.09029   0.63475   0.00000  Uiso   1.00
H496   H     0.75352   0.24933   0.41547   0.00000  Uiso   1.00
H497   H     0.94445   0.45784   0.60697   0.00000  Uiso   1.00
O498   O     0.69135   0.97191   0.65793   0.00000  Uiso   1.00
O499   O     0.82339   0.18057   0.37024   0.00000  Uiso   1.00
O500   O     0.07390   0.45413   0.62149   0.00000  Uiso   1.00
N501   N     0.78331   0.00387   0.62555   0.00000  Uiso   1.00
N502   N     0.87739   0.15255   0.42053   0.00000  Uiso   1.00
N503   N     0.05591   0.34750   0.59957   0.00000  Uiso   1.00
N504   N     0.69800   0.07233   0.62824   0.00000  Uiso   1.00
N505   N     0.79209   0.22102   0.42323   0.00000  Uiso   1.00
N506   N     0.97060   0.41596   0.60226   0.00000  Uiso   1.00
C507   C     0.41304   0.66194   0.04833   0.00000  Uiso   1.00
C508   C     0.35644   0.63511   0.07028   0.00000  Uiso   1.00
C509   C     0.35637   0.57442   0.08722   0.00000  Uiso   1.00
C510   C     0.29981   0.55897   0.10597   0.00000  Uiso   1.00
C511   C     0.22021   0.51065   0.13977   0.00000  Uiso   1.00
C512   C     0.38237   0.67608   0.01377   0.00000  Uiso   1.00
C513   C     0.40410   0.64984   0.98321   0.00000  Uiso   1.00
C514   C     0.36936   0.66889   0.95439   0.00000  Uiso   1.00
C515   C     0.33003   0.68421   0.90046   0.00000  Uiso   1.00
C516   C     0.43156   0.72980   0.06312   0.00000  Uiso   1.00
C517   C     0.49466   0.74874   0.07404   0.00000  Uiso   1.00
C518   C     0.50135   0.81303   0.08676   0.00000  Uiso   1.00
C519   C     0.53841   0.91176   0.10945   0.00000  Uiso   1.00
C520   C     0.31273   0.74246   0.05150   0.00000  Uiso   1.00
C521   C     0.30196   0.67885   0.07199   0.00000  Uiso   1.00
C522   C     0.24538   0.66350   0.09072   0.00000  Uiso   1.00
C523   C     0.24523   0.60279   0.10770   0.00000  Uiso   1.00
C524   C     0.32788   0.71981   0.01549   0.00000  Uiso   1.00
C525   C     0.29311   0.73892   0.98671   0.00000  Uiso   1.00
C526   C     0.31478   0.71270   0.95611   0.00000  Uiso   1.00
C527   C     0.37708   0.77354   0.06484   0.00000  Uiso   1.00
C528   C     0.38367   0.83782   0.07754   0.00000  Uiso   1.00
C529   C     0.44677   0.85684   0.08848   0.00000  Uiso   1.00
H530   H     0.45546   0.62790   0.04699   0.00000  Uiso   1.00
H531   H     0.39855   0.54058   0.08588   0.00000  Uiso   1.00
H532   H     0.44627   0.61600   0.98189   0.00000  Uiso   1.00
H533   H     0.53681   0.71488   0.07270   0.00000  Uiso   1.00
H534   H     0.31140   0.46305   0.12975   0.00000  Uiso   1.00
H535   H     0.41204   0.62209   0.91046   0.00000  Uiso   1.00
H536   H     0.60298   0.83061   0.10197   0.00000  Uiso   1.00
H537   H     0.27030   0.77651   0.05284   0.00000  Uiso   1.00
H538   H     0.20323   0.69735   0.09205   0.00000  Uiso   1.00
H539   H     0.25095   0.77276   0.98805   0.00000  Uiso   1.00
H540   H     0.34150   0.87164   0.07887   0.00000  Uiso   1.00
H541   H     0.15288   0.59029   0.13475   0.00000  Uiso   1.00
H542   H     0.25352   0.74933   0.91547   0.00000  Uiso   1.00
H543   H     0.44445   0.95784   0.10697   0.00000  Uiso   1.00
O544   O     0.19135   0.47191   0.15793   0.00000  Uiso   1.00
O545   O     0.32339   0.68057   0.87024   0.00000  Uiso   1.00
O546   O     0.57390   0.95413   0.12149   0.00000  Uiso   1.00
N547   N     0.28331   0.50387   0.12555   0.00000  Uiso   1.00
N548   N     0.37739   0.65255   0.92053   0.00000  Uiso   1.00
N549   N     0.55591   0.84750   0.09957   0.00000  Uiso   1.00
N550   N     0.19800   0.57233   0.12824   0.00000  Uiso   1.00
N551   N     0.29209   0.72102   0.92323   0.00000  Uiso   1.00
N552   N     0.47060   0.91596   0.10226   0.00000  Uiso   1.00
C553   C     0.66194   0.58696   0.95167   0.00000  Uiso   1.00
C554   C     0.63511   0.64356   0.92972   0.00000  Uiso   1.00
C555   C     0.57442   0.64363   0.91278   0.00000  Uiso   1.00
C556   C     0.55897   0.70019   0.89403   0.00000  Uiso   1.00
C557   C     0.51065   0.77979   0.86023   0.00000  Uiso   1.00
C558   C     0.67608   0.61763   0.98623   0.00000  Uiso   1.00
C559   C     0.64984   0.59590   0.01679   0.00000  Uiso   1.00
C560   C     0.66889   0.63064   0.04561   0.00000  Uiso   1.00
C561   C     0.68421   0.66997   0.09954   0.00000  Uiso   1.00
C562   C     0.72980   0.56844   0.93688   0.00000  Uiso   1.00
C563   C     0.74874   0.50534   0.92596   0.00000  Uiso   1.00
C564   C     0.81303   0.49865   0.91324   0.00000  Uiso   1.00
C565   C     0.91176   0.46159   0.89055   0.00000  Uiso   1.00
C566   C     0.74246   0.68727   0.94850   0.00000  Uiso   1.00
C567   C     0.67885   0.69804   0.92801   0.00000  Uiso   1.00
C568   C     0.66350   0.75462   0.90928   0.00000  Uiso   1.00
C569   C     0.60279   0.75477   0.89230   0.00000  Uiso   1.00
C570   C     0.71981   0.67212   0.98451   0.00000  Uiso   1.00
C571   C     0.73892   0.70689   0.01329   0.00000  Uiso   1.00
C572   C     0.71270   0.68522   0.04389   0.00000  Uiso   1.00
C573   C     0.77354   0.62292   0.93516   0.00000  Uiso   1.00
C574   C     0.83782   0.61633   0.92246   0.00000  Uiso   1.00
C575   C     0.85684   0.55323   0.91152   0.00000  Uiso   1.00
H576   H     0.62790   0.54454   0.95301   0.00000  Uiso   1.00
H577   H     0.54058   0.60145   0.91412   0.00000  Uiso   1.00
H578   H     0.61600   0.55373   0.01811   0.00000  Uiso   1.00
H579   H     0.71488   0.46319   0.92730   0.00000  Uiso   1.00
H580   H     0.46305   0.68860   0.87025   0.00000  Uiso   1.00
H581   H     0.62209   0.58796   0.08954   0.00000  Uiso   1.00
H582   H     0.83061   0.39702   0.89803   0.00000  Uiso   1.00
H583   H     0.77651   0.72970   0.94716   0.00000  Uiso   1.00
H584   H     0.69735   0.79677   0.90795   0.00000  Uiso   1.00
H585   H     0.77276   0.74905   0.01195   0.00000  Uiso   1.00
H586   H     0.87164   0.65850   0.92113   0.00000  Uiso   1.00
H587   H     0.59029   0.84712   0.86525   0.00000  Uiso   1.00
H588   H     0.74933   0.74648   0.08453   0.00000  Uiso   1.00
H589   H     0.95784   0.55555   0.89303   0.00000  Uiso   1.00
O590   O     0.47191   0.80865   0.84207   0.00000  Uiso   1.00
O591   O     0.68057   0.67661   0.12976   0.00000  Uiso   1.00
O592   O     0.95413   0.42610   0.87851   0.00000  Uiso   1.00
N593   N     0.50387   0.71669   0.87445   0.00000  Uiso   1.00
N594   N     0.65255   0.62261   0.07947   0.00000  Uiso   1.00
N595   N     0.84750   0.44409   0.90043   0.00000  Uiso   1.00
N596   N     0.57233   0.80200   0.87176   0.00000  Uiso   1.00
N597   N     0.72102   0.70791   0.07677   0.00000  Uiso   1.00
N598   N     0.91596   0.52940   0.89774   0.00000  Uiso   1.00
C599   C     0.16194   0.08696   0.45167   0.00000  Uiso   1.00
C600   C     0.13511   0.14356   0.42972   0.00000  Uiso   1.00
C601   C     0.07442   0.14363   0.41278   0.00000  Uiso   1.00
C602   C     0.05897   0.20019   0.39403   0.00000  Uiso   1.00
C603   C     0.01065   0.27979   0.36023   0.00000  Uiso   1.00
C604   C     0.17608   0.11763   0.48623   0.00000  Uiso   1.00
C605   C     0.14984   0.09590   0.51679   0.00000  Uiso   1.00
C606   C     0.16889   0.13064   0.54561   0.00000  Uiso   1.00
C607   C     0.18421   0.16997   0.59954   0.00000  Uiso   1.00
C608   C     0.22980   0.06844   0.43688   0.00000  Uiso   1.00
C609   C     0.24874   0.00534   0.42596   0.00000  Uiso   1.00
C610   C     0.31303   0.99865   0.41324   0.00000  Uiso   1.00
C611   C     0.41176   0.96159   0.39055   0.00000  Uiso   1.00
C612   C     0.24246   0.18727   0.44850   0.00000  Uiso   1.00
C613   C     0.17885   0.19804   0.42801   0.00000  Uiso   1.00
C614   C     0.16350   0.25462   0.40928   0.00000  Uiso   1.00
C615   C     0.10279   0.25477   0.39230   0.00000  Uiso   1.00
C616   C     0.21981   0.17212   0.48451   0.00000  Uiso   1.00
C617   C     0.23892   0.20689   0.51329   0.00000  Uiso   1.00
C618   C     0.21270   0.18522   0.54389   0.00000  Uiso   1.00
C619   C     0.27354   0.12292   0.43516   0.00000  Uiso   1.00
C620   C     0.33782   0.11633   0.42246   0.00000  Uiso   1.00
C621   C     0.35684   0.05323   0.41152   0.00000  Uiso   1.00
H622   H     0.12790   0.04454   0.45301   0.00000  Uiso   1.00
H623   H     0.04058   0.10145   0.41412   0.00000  Uiso   1.00
H624   H     0.11600   0.05373   0.51811   0.00000  Uiso   1.00
H625   H     0.21488   0.96319   0.42730   0.00000  Uiso   1.00
H626   H     0.96305   0.18860   0.37025   0.00000  Uiso   1.00
H627   H     0.12209   0.08796   0.58954   0.00000  Uiso   1.00
H628   H     0.33061   0.89702   0.39803   0.00000  Uiso   1.00
H629   H     0.27651   0.22970   0.44716   0.00000  Uiso   1.00
H630   H     0.19735   0.29677   0.40795   0.00000  Uiso   1.00
H631   H     0.27276   0.24905   0.51195   0.00000  Uiso   1.00
H632   H     0.37164   0.15850   0.42113   0.00000  Uiso   1.00
H633   H     0.09029   0.34712   0.36525   0.00000  Uiso   1.00
H634   H     0.24933   0.24648   0.58453   0.00000  Uiso   1.00
H635   H     0.45784   0.05555   0.39303   0.00000  Uiso   1.00
O636   O     0.97191   0.30865   0.34207   0.00000  Uiso   1.00
O637   O     0.18057   0.17661   0.62976   0.00000  Uiso   1.00
O638   O     0.45413   0.92610   0.37851   0.00000  Uiso   1.00
N639   N     0.00387   0.21669   0.37445   0.00000  Uiso   1.00
N640   N     0.15255   0.12261   0.57947   0.00000  Uiso   1.00
N641   N     0.34750   0.94409   0.40043   0.00000  Uiso   1.00
N642   N     0.07233   0.30200   0.37176   0.00000  Uiso   1.00
N643   N     0.22102   0.20791   0.57677   0.00000  Uiso   1.00
N644   N     0.41596   0.02940   0.39774   0.00000  Uiso   1.00
C645   C     0.33806   0.41304   0.95167   0.00000  Uiso   1.00
C646   C     0.36489   0.35644   0.92972   0.00000  Uiso   1.00
C647   C     0.42558   0.35637   0.91278   0.00000  Uiso   1.00
C648   C     0.44103   0.29981   0.89403   0.00000  Uiso   1.00
C649   C     0.48935   0.22021   0.86023   0.00000  Uiso   1.00
C650   C     0.32392   0.38237   0.98623   0.00000  Uiso   1.00
C651   C     0.35016   0.40410   0.01679   0.00000  Uiso   1.00
C652   C     0.33111   0.36936   0.04561   0.00000  Uiso   1.00
C653   C     0.31579   0.33003   0.09954   0.00000  Uiso   1.00
C654   C     0.27020   0.43156   0.93688   0.00000  Uiso   1.00
C655   C     0.25126   0.49466   0.92596   0.00000  Uiso   1.00
C656   C     0.18697   0.50135   0.91324   0.00000  Uiso   1.00
C657   C     0.08824   0.53841   0.89055   0.00000  Uiso   1.00
C658   C     0.25754   0.31273   0.94850   0.00000  Uiso   1.00
C659   C     0.32115   0.30196   0.92801   0.00000  Uiso   1.00
C660   C     0.33650   0.24538   0.90928   0.00000  Uiso   1.00
C661   C     0.39721   0.24523   0.89230   0.00000  Uiso   1.00
C662   C     0.28019   0.32788   0.98451   0.00000  Uiso   1.00
C663   C     0.26108   0.29311   0.01329   0.00000  Uiso   1.00
C664   C     0.28730   0.31478   0.04389   0.00000  Uiso   1.00
C665   C     0.22646   0.37708   0.93516   0.00000  Uiso   1.00
C666   C     0.16218   0.38367   0.92246   0.00000  Uiso   1.00
C667   C     0.14316   0.44677   0.91152   0.00000  Uiso   1.00
H668   H     0.37210   0.45546   0.95301   0.00000  Uiso   1.00
H669   H     0.45942   0.39855   0.91412   0.00000  Uiso   1.00
H670   H     0.38400   0.44627   0.01811   0.00000  Uiso   1.00
H671   H     0.28512   0.53681   0.92730   0.00000  Uiso   1.00
H672   H     0.53695   0.31140   0.87025   0.00000  Uiso   1.00
H673   H     0.37791   0.41204   0.08954   0.00000  Uiso   1.00
H674   H     0.16939   0.60298   0.89803   0.00000  Uiso   1.00
H675   H     0.22349   0.27030   0.94716   0.00000  Uiso   1.00
H676   H     0.30265   0.20323   0.90795   0.00000  Uiso   1.00
H677   H     0.22724   0.25095   0.01195   0.00000  Uiso   1.00
H678   H     0.12836   0.34150   0.92113   0.00000  Uiso   1.00
H679   H     0.40971   0.15288   0.86525   0.00000  Uiso   1.00
H680   H     0.25067   0.25352   0.08453   0.00000  Uiso   1.00
H681   H     0.04216   0.44445   0.89303   0.00000  Uiso   1.00
O682   O     0.52809   0.19135   0.84207   0.00000  Uiso   1.00
O683   O     0.31943   0.32339   0.12976   0.00000  Uiso   1.00
O684   O     0.04587   0.57390   0.87851   0.00000  Uiso   1.00
N685   N     0.49613   0.28331   0.87445   0.00000  Uiso   1.00
N686   N     0.34745   0.37739   0.07947   0.00000  Uiso   1.00
N687   N     0.15250   0.55591   0.90043   0.00000  Uiso   1.00
N688   N     0.42767   0.19800   0.87176   0.00000  Uiso   1.00
N689   N     0.27898   0.29209   0.07677   0.00000  Uiso   1.00
N690   N     0.08404   0.47060   0.89774   0.00000  Uiso   1.00
C691   C     0.83806   0.91304   0.45167   0.00000  Uiso   1.00
C692   C     0.86489   0.85644   0.42972   0.00000  Uiso   1.00
C693   C     0.92558   0.85637   0.41278   0.00000  Uiso   1.00
C694   C     0.94103   0.79981   0.39403   0.00000  Uiso   1.00
C695   C     0.98935   0.72021   0.36023   0.00000  Uiso   1.00
C696   C     0.82392   0.88237   0.48623   0.00000  Uiso   1.00
C697   C     0.85016   0.90410   0.51679   0.00000  Uiso   1.00
C698   C     0.83111   0.86936   0.54561   0.00000  Uiso   1.00
C699   C     0.81579   0.83003   0.59954   0.00000  Uiso   1.00
C700   C     0.77020   0.93156   0.43688   0.00000  Uiso   1.00
C701   C     0.75126   0.99466   0.42596   0.00000  Uiso   1.00
C702   C     0.68697   0.00135   0.41324   0.00000  Uiso   1.00
C703   C     0.58824   0.03841   0.39055   0.00000  Uiso   1.00
C704   C     0.75754   0.81273   0.44850   0.00000  Uiso   1.00
C705   C     0.82115   0.80196   0.42801   0.00000  Uiso   1.00
C706   C     0.83650   0.74538   0.40928   0.00000  Uiso   1.00
C707   C     0.89721   0.74523   0.39230   0.00000  Uiso   1.00
C708   C     0.78019   0.82788   0.48451   0.00000  Uiso   1.00
C709   C     0.76108   0.79311   0.51329   0.00000  Uiso   1.00
C710   C     0.78730   0.81478   0.54389   0.00000  Uiso   1.00
C711   C     0.72646   0.87708   0.43516   0.00000  Uiso   1.00
C712   C     0.66218   0.88367   0.42246   0.00000  Uiso   1.00
C713   C     0.64316   0.94677   0.41152   0.00000  Uiso   1.00
H714   H     0.87210   0.95546   0.45301   0.00000  Uiso   1.00
H715   H     0.95942   0.89855   0.41412   0.00000  Uiso   1.00
H716   H     0.88400   0.94627   0.51811   0.00000  Uiso   1.00
H717   H     0.78512   0.03681   0.42730   0.00000  Uiso   1.00
H718   H     0.03695   0.81140   0.37025   0.00000  Uiso   1.00
H719   H     0.87791   0.91204   0.58954   0.00000  Uiso   1.00
H720   H     0.66939   0.10298   0.39803   0.00000  Uiso   1.00
H721   H     0.72349   0.77030   0.44716   0.00000  Uiso   1.00
H722   H     0.80265   0.70323   0.40795   0.00000  Uiso   1.00
H723   H     0.72724   0.75095   0.51195   0.00000  Uiso   1.00
H724   H     0.62836   0.84150   0.42113   0.00000  Uiso   1.00
H725   H     0.90971   0.65288   0.36525   0.00000  Uiso   1.00
H726   H     0.75067   0.75352   0.58453   0.00000  Uiso   1.00
H727   H     0.54216   0.94445   0.39303   0.00000  Uiso   1.00
O728   O     0.02809   0.69135   0.34207   0.00000  Uiso   1.00
O729   O     0.81943   0.82339   0.62976   0.00000  Uiso   1.00
O730   O     0.54587   0.07390   0.37851   0.00000  Uiso   1.00
N731   N     0.99613   0.78331   0.37445   0.00000  Uiso   1.00
N732   N     0.84745   0.87739   0.57947   0.00000  Uiso   1.00
N733   N     0.65250   0.05591   0.40043   0.00000  Uiso   1.00
N734   N     0.92767   0.69800   0.37176   0.00000  Uiso   1.00
N735   N     0.77898   0.79209   0.57677   0.00000  Uiso   1.00
N736   N     0.58404   0.97060   0.39774   0.00000  Uiso   1.00
