data_job_04752
_audit_creation_date              2018-12-19
_audit_creation_method            'Materials Studio'
_symmetry_space_group_name_H-M    'P1'
_symmetry_Int_Tables_number       1
_symmetry_cell_setting            triclinic
loop_
_symmetry_equiv_pos_as_xyz
  x,y,z
_cell_length_a                    14.8725
_cell_length_b                    63.0306
_cell_length_c                    12.4878
_cell_angle_alpha                 90.0000
_cell_angle_beta                  90.0000
_cell_angle_gamma                 90.0000
loop_
_atom_site_label
_atom_site_type_symbol
_atom_site_fract_x
_atom_site_fract_y
_atom_site_fract_z
_atom_site_U_iso_or_equiv
_atom_site_adp_type
_atom_site_occupancy
C1     C     0.57932   0.56277   0.68665   0.00000  Uiso   1.00
C2     C     0.60207   0.58035   0.76604   0.00000  Uiso   1.00
C3     C     0.55545   0.58482   0.85962   0.00000  Uiso   1.00
C4     C     0.58691   0.60155   0.92142   0.00000  Uiso   1.00
C5     C     0.61074   0.62706   0.04934   0.00000  Uiso   1.00
C6     C     0.56705   0.57362   0.57850   0.00000  Uiso   1.00
C7     C     0.49098   0.57243   0.51441   0.00000  Uiso   1.00
C8     C     0.49298   0.58351   0.41833   0.00000  Uiso   1.00
C9     C     0.46246   0.59856   0.25507   0.00000  Uiso   1.00
C10    C     0.66396   0.54926   0.67656   0.00000  Uiso   1.00
C11    C     0.66937   0.52758   0.69488   0.00000  Uiso   1.00
C12    C     0.75296   0.51814   0.68134   0.00000  Uiso   1.00
C13    C     0.87290   0.49536   0.67033   0.00000  Uiso   1.00
C14    C     0.71812   0.58455   0.62997   0.00000  Uiso   1.00
C15    C     0.67746   0.59218   0.73525   0.00000  Uiso   1.00
C16    C     0.70901   0.60892   0.79692   0.00000  Uiso   1.00
C17    C     0.66244   0.61341   0.89058   0.00000  Uiso   1.00
C18    C     0.64244   0.58546   0.54772   0.00000  Uiso   1.00
C19    C     0.64455   0.59653   0.45170   0.00000  Uiso   1.00
C20    C     0.56850   0.59536   0.38748   0.00000  Uiso   1.00
C21    C     0.73935   0.56109   0.64578   0.00000  Uiso   1.00
C22    C     0.82294   0.55168   0.63219   0.00000  Uiso   1.00
C23    C     0.82848   0.53000   0.65050   0.00000  Uiso   1.00
H24    H     0.52063   0.55356   0.71061   0.00000  Uiso   1.00
H25    H     0.49710   0.57566   0.88341   0.00000  Uiso   1.00
H26    H     0.43266   0.56327   0.53825   0.00000  Uiso   1.00
H27    H     0.61102   0.51843   0.71871   0.00000  Uiso   1.00
H28    H     0.50424   0.60538   0.06140   0.00000  Uiso   1.00
H29    H     0.36837   0.57926   0.33359   0.00000  Uiso   1.00
H30    H     0.74448   0.48470   0.71411   0.00000  Uiso   1.00
H31    H     0.77682   0.59377   0.60600   0.00000  Uiso   1.00
H32    H     0.76735   0.61807   0.77307   0.00000  Uiso   1.00
H33    H     0.70290   0.60569   0.42791   0.00000  Uiso   1.00
H34    H     0.88127   0.56085   0.60837   0.00000  Uiso   1.00
H35    H     0.72359   0.63981   0.97185   0.00000  Uiso   1.00
H36    H     0.58771   0.61369   0.24402   0.00000  Uiso   1.00
H37    H     0.96383   0.51913   0.62456   0.00000  Uiso   1.00
O38    O     0.60305   0.63786   0.12840   0.00000  Uiso   1.00
O39    O     0.42479   0.60360   0.17352   0.00000  Uiso   1.00
O40    O     0.91824   0.47953   0.67277   0.00000  Uiso   1.00
N41    N     0.55718   0.61015   0.01741   0.00000  Uiso   1.00
N42    N     0.43013   0.58573   0.33695   0.00000  Uiso   1.00
N43    N     0.78176   0.49732   0.69268   0.00000  Uiso   1.00
N44    N     0.67521   0.62867   0.96922   0.00000  Uiso   1.00
N45    N     0.54816   0.60425   0.28876   0.00000  Uiso   1.00
N46    N     0.89979   0.51585   0.64450   0.00000  Uiso   1.00
C47    C     0.57932   0.06277   0.18665   0.00000  Uiso   1.00
C48    C     0.60207   0.08035   0.26604   0.00000  Uiso   1.00
C49    C     0.55545   0.08482   0.35962   0.00000  Uiso   1.00
C50    C     0.58691   0.10155   0.42142   0.00000  Uiso   1.00
C51    C     0.61074   0.12706   0.54934   0.00000  Uiso   1.00
C52    C     0.56705   0.07362   0.07850   0.00000  Uiso   1.00
C53    C     0.49098   0.07243   0.01441   0.00000  Uiso   1.00
C54    C     0.49298   0.08351   0.91833   0.00000  Uiso   1.00
C55    C     0.46246   0.09856   0.75507   0.00000  Uiso   1.00
C56    C     0.66396   0.04926   0.17656   0.00000  Uiso   1.00
C57    C     0.66937   0.02758   0.19488   0.00000  Uiso   1.00
C58    C     0.75296   0.01814   0.18134   0.00000  Uiso   1.00
C59    C     0.87290   0.99536   0.17033   0.00000  Uiso   1.00
C60    C     0.71812   0.08455   0.12997   0.00000  Uiso   1.00
C61    C     0.67746   0.09218   0.23525   0.00000  Uiso   1.00
C62    C     0.70901   0.10892   0.29692   0.00000  Uiso   1.00
C63    C     0.66244   0.11341   0.39058   0.00000  Uiso   1.00
C64    C     0.64244   0.08546   0.04772   0.00000  Uiso   1.00
C65    C     0.64455   0.09653   0.95170   0.00000  Uiso   1.00
C66    C     0.56850   0.09536   0.88748   0.00000  Uiso   1.00
C67    C     0.73935   0.06109   0.14578   0.00000  Uiso   1.00
C68    C     0.82294   0.05168   0.13219   0.00000  Uiso   1.00
C69    C     0.82848   0.03000   0.15050   0.00000  Uiso   1.00
H70    H     0.52063   0.05356   0.21061   0.00000  Uiso   1.00
H71    H     0.49710   0.07566   0.38341   0.00000  Uiso   1.00
H72    H     0.43266   0.06327   0.03825   0.00000  Uiso   1.00
H73    H     0.61102   0.01843   0.21871   0.00000  Uiso   1.00
H74    H     0.50424   0.10538   0.56140   0.00000  Uiso   1.00
H75    H     0.36837   0.07926   0.83359   0.00000  Uiso   1.00
H76    H     0.74448   0.98470   0.21411   0.00000  Uiso   1.00
H77    H     0.77682   0.09377   0.10600   0.00000  Uiso   1.00
H78    H     0.76735   0.11807   0.27307   0.00000  Uiso   1.00
H79    H     0.70290   0.10569   0.92791   0.00000  Uiso   1.00
H80    H     0.88127   0.06085   0.10837   0.00000  Uiso   1.00
H81    H     0.72359   0.13981   0.47185   0.00000  Uiso   1.00
H82    H     0.58771   0.11369   0.74402   0.00000  Uiso   1.00
H83    H     0.96383   0.01913   0.12456   0.00000  Uiso   1.00
O84    O     0.60305   0.13786   0.62840   0.00000  Uiso   1.00
O85    O     0.42479   0.10360   0.67352   0.00000  Uiso   1.00
O86    O     0.91824   0.97953   0.17277   0.00000  Uiso   1.00
N87    N     0.55718   0.11015   0.51741   0.00000  Uiso   1.00
N88    N     0.43013   0.08573   0.83695   0.00000  Uiso   1.00
N89    N     0.78176   0.99732   0.19268   0.00000  Uiso   1.00
N90    N     0.67521   0.12867   0.46922   0.00000  Uiso   1.00
N91    N     0.54816   0.10425   0.78876   0.00000  Uiso   1.00
N92    N     0.89979   0.01585   0.14450   0.00000  Uiso   1.00
C93    C     0.07932   0.56277   0.18665   0.00000  Uiso   1.00
C94    C     0.10207   0.58035   0.26604   0.00000  Uiso   1.00
C95    C     0.05545   0.58482   0.35962   0.00000  Uiso   1.00
C96    C     0.08691   0.60155   0.42142   0.00000  Uiso   1.00
C97    C     0.11074   0.62706   0.54934   0.00000  Uiso   1.00
C98    C     0.06705   0.57362   0.07850   0.00000  Uiso   1.00
C99    C     0.99098   0.57243   0.01441   0.00000  Uiso   1.00
C100   C     0.99298   0.58351   0.91833   0.00000  Uiso   1.00
C101   C     0.96246   0.59856   0.75507   0.00000  Uiso   1.00
C102   C     0.16396   0.54926   0.17656   0.00000  Uiso   1.00
C103   C     0.16937   0.52758   0.19488   0.00000  Uiso   1.00
C104   C     0.25296   0.51814   0.18134   0.00000  Uiso   1.00
C105   C     0.37290   0.49536   0.17033   0.00000  Uiso   1.00
C106   C     0.21812   0.58455   0.12997   0.00000  Uiso   1.00
C107   C     0.17746   0.59218   0.23525   0.00000  Uiso   1.00
C108   C     0.20901   0.60892   0.29692   0.00000  Uiso   1.00
C109   C     0.16244   0.61341   0.39058   0.00000  Uiso   1.00
C110   C     0.14244   0.58546   0.04772   0.00000  Uiso   1.00
C111   C     0.14455   0.59653   0.95170   0.00000  Uiso   1.00
C112   C     0.06850   0.59536   0.88748   0.00000  Uiso   1.00
C113   C     0.23935   0.56109   0.14578   0.00000  Uiso   1.00
C114   C     0.32294   0.55168   0.13219   0.00000  Uiso   1.00
C115   C     0.32848   0.53000   0.15050   0.00000  Uiso   1.00
H116   H     0.02063   0.55356   0.21061   0.00000  Uiso   1.00
H117   H     0.99710   0.57566   0.38341   0.00000  Uiso   1.00
H118   H     0.93266   0.56327   0.03825   0.00000  Uiso   1.00
H119   H     0.11102   0.51843   0.21871   0.00000  Uiso   1.00
H120   H     0.00424   0.60538   0.56140   0.00000  Uiso   1.00
H121   H     0.86837   0.57926   0.83359   0.00000  Uiso   1.00
H122   H     0.24448   0.48470   0.21411   0.00000  Uiso   1.00
H123   H     0.27682   0.59377   0.10600   0.00000  Uiso   1.00
H124   H     0.26735   0.61807   0.27307   0.00000  Uiso   1.00
H125   H     0.20290   0.60569   0.92791   0.00000  Uiso   1.00
H126   H     0.38127   0.56085   0.10837   0.00000  Uiso   1.00
H127   H     0.22359   0.63981   0.47185   0.00000  Uiso   1.00
H128   H     0.08771   0.61369   0.74402   0.00000  Uiso   1.00
H129   H     0.46383   0.51913   0.12456   0.00000  Uiso   1.00
O130   O     0.10305   0.63786   0.62840   0.00000  Uiso   1.00
O131   O     0.92479   0.60360   0.67352   0.00000  Uiso   1.00
O132   O     0.41824   0.47953   0.17277   0.00000  Uiso   1.00
N133   N     0.05718   0.61015   0.51741   0.00000  Uiso   1.00
N134   N     0.93013   0.58573   0.83695   0.00000  Uiso   1.00
N135   N     0.28176   0.49732   0.19268   0.00000  Uiso   1.00
N136   N     0.17521   0.62867   0.46922   0.00000  Uiso   1.00
N137   N     0.04816   0.60425   0.78876   0.00000  Uiso   1.00
N138   N     0.39979   0.51585   0.14450   0.00000  Uiso   1.00
C139   C     0.07932   0.06277   0.68665   0.00000  Uiso   1.00
C140   C     0.10207   0.08035   0.76604   0.00000  Uiso   1.00
C141   C     0.05545   0.08482   0.85962   0.00000  Uiso   1.00
C142   C     0.08691   0.10155   0.92142   0.00000  Uiso   1.00
C143   C     0.11074   0.12706   0.04934   0.00000  Uiso   1.00
C144   C     0.06705   0.07362   0.57850   0.00000  Uiso   1.00
C145   C     0.99098   0.07243   0.51441   0.00000  Uiso   1.00
C146   C     0.99298   0.08351   0.41833   0.00000  Uiso   1.00
C147   C     0.96246   0.09856   0.25507   0.00000  Uiso   1.00
C148   C     0.16396   0.04926   0.67656   0.00000  Uiso   1.00
C149   C     0.16937   0.02758   0.69488   0.00000  Uiso   1.00
C150   C     0.25296   0.01814   0.68134   0.00000  Uiso   1.00
C151   C     0.37290   0.99536   0.67033   0.00000  Uiso   1.00
C152   C     0.21812   0.08455   0.62997   0.00000  Uiso   1.00
C153   C     0.17746   0.09218   0.73525   0.00000  Uiso   1.00
C154   C     0.20901   0.10892   0.79692   0.00000  Uiso   1.00
C155   C     0.16244   0.11341   0.89058   0.00000  Uiso   1.00
C156   C     0.14244   0.08546   0.54772   0.00000  Uiso   1.00
C157   C     0.14455   0.09653   0.45170   0.00000  Uiso   1.00
C158   C     0.06850   0.09536   0.38748   0.00000  Uiso   1.00
C159   C     0.23935   0.06109   0.64578   0.00000  Uiso   1.00
C160   C     0.32294   0.05168   0.63219   0.00000  Uiso   1.00
C161   C     0.32848   0.03000   0.65050   0.00000  Uiso   1.00
H162   H     0.02063   0.05356   0.71061   0.00000  Uiso   1.00
H163   H     0.99710   0.07566   0.88341   0.00000  Uiso   1.00
H164   H     0.93266   0.06327   0.53825   0.00000  Uiso   1.00
H165   H     0.11102   0.01843   0.71871   0.00000  Uiso   1.00
H166   H     0.00424   0.10538   0.06140   0.00000  Uiso   1.00
H167   H     0.86837   0.07926   0.33359   0.00000  Uiso   1.00
H168   H     0.24448   0.98470   0.71411   0.00000  Uiso   1.00
H169   H     0.27682   0.09377   0.60600   0.00000  Uiso   1.00
H170   H     0.26735   0.11807   0.77307   0.00000  Uiso   1.00
H171   H     0.20290   0.10569   0.42791   0.00000  Uiso   1.00
H172   H     0.38127   0.06085   0.60837   0.00000  Uiso   1.00
H173   H     0.22359   0.13981   0.97185   0.00000  Uiso   1.00
H174   H     0.08771   0.11369   0.24402   0.00000  Uiso   1.00
H175   H     0.46383   0.01913   0.62456   0.00000  Uiso   1.00
O176   O     0.10305   0.13786   0.12840   0.00000  Uiso   1.00
O177   O     0.92479   0.10360   0.17352   0.00000  Uiso   1.00
O178   O     0.41824   0.97953   0.67277   0.00000  Uiso   1.00
N179   N     0.05718   0.11015   0.01741   0.00000  Uiso   1.00
N180   N     0.93013   0.08573   0.33695   0.00000  Uiso   1.00
N181   N     0.28176   0.99732   0.69268   0.00000  Uiso   1.00
N182   N     0.17521   0.12867   0.96922   0.00000  Uiso   1.00
N183   N     0.04816   0.10425   0.28876   0.00000  Uiso   1.00
N184   N     0.39979   0.01585   0.64450   0.00000  Uiso   1.00
C185   C     0.42068   0.43723   0.68665   0.00000  Uiso   1.00
C186   C     0.39793   0.41965   0.76604   0.00000  Uiso   1.00
C187   C     0.44455   0.41518   0.85962   0.00000  Uiso   1.00
C188   C     0.41309   0.39845   0.92142   0.00000  Uiso   1.00
C189   C     0.38926   0.37294   0.04934   0.00000  Uiso   1.00
C190   C     0.43295   0.42638   0.57850   0.00000  Uiso   1.00
C191   C     0.50902   0.42757   0.51441   0.00000  Uiso   1.00
C192   C     0.50702   0.41649   0.41833   0.00000  Uiso   1.00
C193   C     0.53754   0.40144   0.25507   0.00000  Uiso   1.00
C194   C     0.33604   0.45074   0.67656   0.00000  Uiso   1.00
C195   C     0.33063   0.47242   0.69488   0.00000  Uiso   1.00
C196   C     0.24704   0.48186   0.68134   0.00000  Uiso   1.00
C197   C     0.12710   0.50464   0.67033   0.00000  Uiso   1.00
C198   C     0.28188   0.41545   0.62997   0.00000  Uiso   1.00
C199   C     0.32254   0.40782   0.73525   0.00000  Uiso   1.00
C200   C     0.29099   0.39108   0.79692   0.00000  Uiso   1.00
C201   C     0.33756   0.38659   0.89058   0.00000  Uiso   1.00
C202   C     0.35756   0.41454   0.54772   0.00000  Uiso   1.00
C203   C     0.35545   0.40347   0.45170   0.00000  Uiso   1.00
C204   C     0.43150   0.40464   0.38748   0.00000  Uiso   1.00
C205   C     0.26065   0.43891   0.64578   0.00000  Uiso   1.00
C206   C     0.17706   0.44832   0.63219   0.00000  Uiso   1.00
C207   C     0.17152   0.47000   0.65050   0.00000  Uiso   1.00
H208   H     0.47937   0.44644   0.71061   0.00000  Uiso   1.00
H209   H     0.50290   0.42434   0.88341   0.00000  Uiso   1.00
H210   H     0.56734   0.43673   0.53825   0.00000  Uiso   1.00
H211   H     0.38898   0.48157   0.71871   0.00000  Uiso   1.00
H212   H     0.49576   0.39462   0.06140   0.00000  Uiso   1.00
H213   H     0.63163   0.42074   0.33359   0.00000  Uiso   1.00
H214   H     0.25552   0.51530   0.71411   0.00000  Uiso   1.00
H215   H     0.22318   0.40623   0.60600   0.00000  Uiso   1.00
H216   H     0.23265   0.38193   0.77307   0.00000  Uiso   1.00
H217   H     0.29710   0.39431   0.42791   0.00000  Uiso   1.00
H218   H     0.11873   0.43915   0.60837   0.00000  Uiso   1.00
H219   H     0.27641   0.36019   0.97185   0.00000  Uiso   1.00
H220   H     0.41229   0.38631   0.24402   0.00000  Uiso   1.00
H221   H     0.03617   0.48087   0.62456   0.00000  Uiso   1.00
O222   O     0.39695   0.36214   0.12840   0.00000  Uiso   1.00
O223   O     0.57521   0.39640   0.17352   0.00000  Uiso   1.00
O224   O     0.08176   0.52047   0.67277   0.00000  Uiso   1.00
N225   N     0.44282   0.38985   0.01741   0.00000  Uiso   1.00
N226   N     0.56987   0.41427   0.33695   0.00000  Uiso   1.00
N227   N     0.21824   0.50268   0.69268   0.00000  Uiso   1.00
N228   N     0.32479   0.37133   0.96922   0.00000  Uiso   1.00
N229   N     0.45184   0.39575   0.28876   0.00000  Uiso   1.00
N230   N     0.10021   0.48415   0.64450   0.00000  Uiso   1.00
C231   C     0.42068   0.93723   0.18665   0.00000  Uiso   1.00
C232   C     0.39793   0.91965   0.26604   0.00000  Uiso   1.00
C233   C     0.44455   0.91518   0.35962   0.00000  Uiso   1.00
C234   C     0.41309   0.89845   0.42142   0.00000  Uiso   1.00
C235   C     0.38926   0.87294   0.54934   0.00000  Uiso   1.00
C236   C     0.43295   0.92638   0.07850   0.00000  Uiso   1.00
C237   C     0.50902   0.92757   0.01441   0.00000  Uiso   1.00
C238   C     0.50702   0.91649   0.91833   0.00000  Uiso   1.00
C239   C     0.53754   0.90144   0.75507   0.00000  Uiso   1.00
C240   C     0.33604   0.95074   0.17656   0.00000  Uiso   1.00
C241   C     0.33063   0.97242   0.19488   0.00000  Uiso   1.00
C242   C     0.24704   0.98186   0.18134   0.00000  Uiso   1.00
C243   C     0.12710   0.00464   0.17033   0.00000  Uiso   1.00
C244   C     0.28188   0.91545   0.12997   0.00000  Uiso   1.00
C245   C     0.32254   0.90782   0.23525   0.00000  Uiso   1.00
C246   C     0.29099   0.89108   0.29692   0.00000  Uiso   1.00
C247   C     0.33756   0.88659   0.39058   0.00000  Uiso   1.00
C248   C     0.35756   0.91454   0.04772   0.00000  Uiso   1.00
C249   C     0.35545   0.90347   0.95170   0.00000  Uiso   1.00
C250   C     0.43150   0.90464   0.88748   0.00000  Uiso   1.00
C251   C     0.26065   0.93891   0.14578   0.00000  Uiso   1.00
C252   C     0.17706   0.94832   0.13219   0.00000  Uiso   1.00
C253   C     0.17152   0.97000   0.15050   0.00000  Uiso   1.00
H254   H     0.47937   0.94644   0.21061   0.00000  Uiso   1.00
H255   H     0.50290   0.92434   0.38341   0.00000  Uiso   1.00
H256   H     0.56734   0.93673   0.03825   0.00000  Uiso   1.00
H257   H     0.38898   0.98157   0.21871   0.00000  Uiso   1.00
H258   H     0.49576   0.89462   0.56140   0.00000  Uiso   1.00
H259   H     0.63163   0.92074   0.83359   0.00000  Uiso   1.00
H260   H     0.25552   0.01530   0.21411   0.00000  Uiso   1.00
H261   H     0.22318   0.90623   0.10600   0.00000  Uiso   1.00
H262   H     0.23265   0.88193   0.27307   0.00000  Uiso   1.00
H263   H     0.29710   0.89431   0.92791   0.00000  Uiso   1.00
H264   H     0.11873   0.93915   0.10837   0.00000  Uiso   1.00
H265   H     0.27641   0.86019   0.47185   0.00000  Uiso   1.00
H266   H     0.41229   0.88631   0.74402   0.00000  Uiso   1.00
H267   H     0.03617   0.98087   0.12456   0.00000  Uiso   1.00
O268   O     0.39695   0.86214   0.62840   0.00000  Uiso   1.00
O269   O     0.57521   0.89640   0.67352   0.00000  Uiso   1.00
O270   O     0.08176   0.02047   0.17277   0.00000  Uiso   1.00
N271   N     0.44282   0.88985   0.51741   0.00000  Uiso   1.00
N272   N     0.56987   0.91427   0.83695   0.00000  Uiso   1.00
N273   N     0.21824   0.00268   0.19268   0.00000  Uiso   1.00
N274   N     0.32479   0.87133   0.46922   0.00000  Uiso   1.00
N275   N     0.45184   0.89575   0.78876   0.00000  Uiso   1.00
N276   N     0.10021   0.98415   0.14450   0.00000  Uiso   1.00
C277   C     0.92068   0.43723   0.18665   0.00000  Uiso   1.00
C278   C     0.89793   0.41965   0.26604   0.00000  Uiso   1.00
C279   C     0.94455   0.41518   0.35962   0.00000  Uiso   1.00
C280   C     0.91309   0.39845   0.42142   0.00000  Uiso   1.00
C281   C     0.88926   0.37294   0.54934   0.00000  Uiso   1.00
C282   C     0.93295   0.42638   0.07850   0.00000  Uiso   1.00
C283   C     0.00902   0.42757   0.01441   0.00000  Uiso   1.00
C284   C     0.00702   0.41649   0.91833   0.00000  Uiso   1.00
C285   C     0.03754   0.40144   0.75507   0.00000  Uiso   1.00
C286   C     0.83604   0.45074   0.17656   0.00000  Uiso   1.00
C287   C     0.83063   0.47242   0.19488   0.00000  Uiso   1.00
C288   C     0.74704   0.48186   0.18134   0.00000  Uiso   1.00
C289   C     0.62710   0.50464   0.17033   0.00000  Uiso   1.00
C290   C     0.78188   0.41545   0.12997   0.00000  Uiso   1.00
C291   C     0.82254   0.40782   0.23525   0.00000  Uiso   1.00
C292   C     0.79099   0.39108   0.29692   0.00000  Uiso   1.00
C293   C     0.83756   0.38659   0.39058   0.00000  Uiso   1.00
C294   C     0.85756   0.41454   0.04772   0.00000  Uiso   1.00
C295   C     0.85545   0.40347   0.95170   0.00000  Uiso   1.00
C296   C     0.93150   0.40464   0.88748   0.00000  Uiso   1.00
C297   C     0.76065   0.43891   0.14578   0.00000  Uiso   1.00
C298   C     0.67706   0.44832   0.13219   0.00000  Uiso   1.00
C299   C     0.67152   0.47000   0.15050   0.00000  Uiso   1.00
H300   H     0.97937   0.44644   0.21061   0.00000  Uiso   1.00
H301   H     0.00290   0.42434   0.38341   0.00000  Uiso   1.00
H302   H     0.06734   0.43673   0.03825   0.00000  Uiso   1.00
H303   H     0.88898   0.48157   0.21871   0.00000  Uiso   1.00
H304   H     0.99576   0.39462   0.56140   0.00000  Uiso   1.00
H305   H     0.13163   0.42074   0.83359   0.00000  Uiso   1.00
H306   H     0.75552   0.51530   0.21411   0.00000  Uiso   1.00
H307   H     0.72318   0.40623   0.10600   0.00000  Uiso   1.00
H308   H     0.73265   0.38193   0.27307   0.00000  Uiso   1.00
H309   H     0.79710   0.39431   0.92791   0.00000  Uiso   1.00
H310   H     0.61873   0.43915   0.10837   0.00000  Uiso   1.00
H311   H     0.77641   0.36019   0.47185   0.00000  Uiso   1.00
H312   H     0.91229   0.38631   0.74402   0.00000  Uiso   1.00
H313   H     0.53617   0.48087   0.12456   0.00000  Uiso   1.00
O314   O     0.89695   0.36214   0.62840   0.00000  Uiso   1.00
O315   O     0.07521   0.39640   0.67352   0.00000  Uiso   1.00
O316   O     0.58176   0.52047   0.17277   0.00000  Uiso   1.00
N317   N     0.94282   0.38985   0.51741   0.00000  Uiso   1.00
N318   N     0.06987   0.41427   0.83695   0.00000  Uiso   1.00
N319   N     0.71824   0.50268   0.19268   0.00000  Uiso   1.00
N320   N     0.82479   0.37133   0.46922   0.00000  Uiso   1.00
N321   N     0.95184   0.39575   0.78876   0.00000  Uiso   1.00
N322   N     0.60021   0.48415   0.14450   0.00000  Uiso   1.00
C323   C     0.92068   0.93723   0.68665   0.00000  Uiso   1.00
C324   C     0.89793   0.91965   0.76604   0.00000  Uiso   1.00
C325   C     0.94455   0.91518   0.85962   0.00000  Uiso   1.00
C326   C     0.91309   0.89845   0.92142   0.00000  Uiso   1.00
C327   C     0.88926   0.87294   0.04934   0.00000  Uiso   1.00
C328   C     0.93295   0.92638   0.57850   0.00000  Uiso   1.00
C329   C     0.00902   0.92757   0.51441   0.00000  Uiso   1.00
C330   C     0.00702   0.91649   0.41833   0.00000  Uiso   1.00
C331   C     0.03754   0.90144   0.25507   0.00000  Uiso   1.00
C332   C     0.83604   0.95074   0.67656   0.00000  Uiso   1.00
C333   C     0.83063   0.97242   0.69488   0.00000  Uiso   1.00
C334   C     0.74704   0.98186   0.68134   0.00000  Uiso   1.00
C335   C     0.62710   0.00464   0.67033   0.00000  Uiso   1.00
C336   C     0.78188   0.91545   0.62997   0.00000  Uiso   1.00
C337   C     0.82254   0.90782   0.73525   0.00000  Uiso   1.00
C338   C     0.79099   0.89108   0.79692   0.00000  Uiso   1.00
C339   C     0.83756   0.88659   0.89058   0.00000  Uiso   1.00
C340   C     0.85756   0.91454   0.54772   0.00000  Uiso   1.00
C341   C     0.85545   0.90347   0.45170   0.00000  Uiso   1.00
C342   C     0.93150   0.90464   0.38748   0.00000  Uiso   1.00
C343   C     0.76065   0.93891   0.64578   0.00000  Uiso   1.00
C344   C     0.67706   0.94832   0.63219   0.00000  Uiso   1.00
C345   C     0.67152   0.97000   0.65050   0.00000  Uiso   1.00
H346   H     0.97937   0.94644   0.71061   0.00000  Uiso   1.00
H347   H     0.00290   0.92434   0.88341   0.00000  Uiso   1.00
H348   H     0.06734   0.93673   0.53825   0.00000  Uiso   1.00
H349   H     0.88898   0.98157   0.71871   0.00000  Uiso   1.00
H350   H     0.99576   0.89462   0.06140   0.00000  Uiso   1.00
H351   H     0.13163   0.92074   0.33359   0.00000  Uiso   1.00
H352   H     0.75552   0.01530   0.71411   0.00000  Uiso   1.00
H353   H     0.72318   0.90623   0.60600   0.00000  Uiso   1.00
H354   H     0.73265   0.88193   0.77307   0.00000  Uiso   1.00
H355   H     0.79710   0.89431   0.42791   0.00000  Uiso   1.00
H356   H     0.61873   0.93915   0.60837   0.00000  Uiso   1.00
H357   H     0.77641   0.86019   0.97185   0.00000  Uiso   1.00
H358   H     0.91229   0.88631   0.24402   0.00000  Uiso   1.00
H359   H     0.53617   0.98087   0.62456   0.00000  Uiso   1.00
O360   O     0.89695   0.86214   0.12840   0.00000  Uiso   1.00
O361   O     0.07521   0.89640   0.17352   0.00000  Uiso   1.00
O362   O     0.58176   0.02047   0.67277   0.00000  Uiso   1.00
N363   N     0.94282   0.88985   0.01741   0.00000  Uiso   1.00
N364   N     0.06987   0.91427   0.33695   0.00000  Uiso   1.00
N365   N     0.71824   0.00268   0.69268   0.00000  Uiso   1.00
N366   N     0.82479   0.87133   0.96922   0.00000  Uiso   1.00
N367   N     0.95184   0.89575   0.28876   0.00000  Uiso   1.00
N368   N     0.60021   0.98415   0.64450   0.00000  Uiso   1.00
C369   C     0.82932   0.68723   0.93665   0.00000  Uiso   1.00
C370   C     0.85207   0.66965   0.01604   0.00000  Uiso   1.00
C371   C     0.80545   0.66518   0.10962   0.00000  Uiso   1.00
C372   C     0.83691   0.64845   0.17142   0.00000  Uiso   1.00
C373   C     0.86074   0.62294   0.29934   0.00000  Uiso   1.00
C374   C     0.81705   0.67638   0.82850   0.00000  Uiso   1.00
C375   C     0.74098   0.67757   0.76441   0.00000  Uiso   1.00
C376   C     0.74298   0.66649   0.66833   0.00000  Uiso   1.00
C377   C     0.71246   0.65144   0.50507   0.00000  Uiso   1.00
C378   C     0.91396   0.70074   0.92656   0.00000  Uiso   1.00
C379   C     0.91937   0.72242   0.94488   0.00000  Uiso   1.00
C380   C     0.00296   0.73186   0.93134   0.00000  Uiso   1.00
C381   C     0.12290   0.75464   0.92033   0.00000  Uiso   1.00
C382   C     0.96812   0.66545   0.87997   0.00000  Uiso   1.00
C383   C     0.92746   0.65782   0.98525   0.00000  Uiso   1.00
C384   C     0.95901   0.64108   0.04692   0.00000  Uiso   1.00
C385   C     0.91244   0.63659   0.14058   0.00000  Uiso   1.00
C386   C     0.89244   0.66454   0.79772   0.00000  Uiso   1.00
C387   C     0.89455   0.65347   0.70170   0.00000  Uiso   1.00
C388   C     0.81850   0.65464   0.63748   0.00000  Uiso   1.00
C389   C     0.98935   0.68891   0.89578   0.00000  Uiso   1.00
C390   C     0.07294   0.69832   0.88219   0.00000  Uiso   1.00
C391   C     0.07848   0.72000   0.90050   0.00000  Uiso   1.00
H392   H     0.77063   0.69644   0.96061   0.00000  Uiso   1.00
H393   H     0.74710   0.67434   0.13341   0.00000  Uiso   1.00
H394   H     0.68266   0.68673   0.78825   0.00000  Uiso   1.00
H395   H     0.86102   0.73157   0.96871   0.00000  Uiso   1.00
H396   H     0.75424   0.64462   0.31140   0.00000  Uiso   1.00
H397   H     0.61837   0.67074   0.58359   0.00000  Uiso   1.00
H398   H     0.99448   0.76530   0.96411   0.00000  Uiso   1.00
H399   H     0.02682   0.65623   0.85600   0.00000  Uiso   1.00
H400   H     0.01735   0.63193   0.02307   0.00000  Uiso   1.00
H401   H     0.95290   0.64431   0.67791   0.00000  Uiso   1.00
H402   H     0.13127   0.68915   0.85837   0.00000  Uiso   1.00
H403   H     0.97359   0.61019   0.22185   0.00000  Uiso   1.00
H404   H     0.83771   0.63631   0.49402   0.00000  Uiso   1.00
H405   H     0.21383   0.73087   0.87456   0.00000  Uiso   1.00
O406   O     0.85305   0.61214   0.37840   0.00000  Uiso   1.00
O407   O     0.67479   0.64640   0.42352   0.00000  Uiso   1.00
O408   O     0.16824   0.77047   0.92277   0.00000  Uiso   1.00
N409   N     0.80718   0.63985   0.26741   0.00000  Uiso   1.00
N410   N     0.68013   0.66427   0.58695   0.00000  Uiso   1.00
N411   N     0.03176   0.75268   0.94268   0.00000  Uiso   1.00
N412   N     0.92521   0.62133   0.21922   0.00000  Uiso   1.00
N413   N     0.79816   0.64575   0.53876   0.00000  Uiso   1.00
N414   N     0.14979   0.73415   0.89450   0.00000  Uiso   1.00
C415   C     0.82932   0.18723   0.43665   0.00000  Uiso   1.00
C416   C     0.85207   0.16965   0.51604   0.00000  Uiso   1.00
C417   C     0.80545   0.16518   0.60962   0.00000  Uiso   1.00
C418   C     0.83691   0.14845   0.67142   0.00000  Uiso   1.00
C419   C     0.86074   0.12294   0.79934   0.00000  Uiso   1.00
C420   C     0.81705   0.17638   0.32850   0.00000  Uiso   1.00
C421   C     0.74098   0.17757   0.26441   0.00000  Uiso   1.00
C422   C     0.74298   0.16649   0.16833   0.00000  Uiso   1.00
C423   C     0.71246   0.15144   0.00507   0.00000  Uiso   1.00
C424   C     0.91396   0.20074   0.42656   0.00000  Uiso   1.00
C425   C     0.91937   0.22242   0.44488   0.00000  Uiso   1.00
C426   C     0.00296   0.23186   0.43134   0.00000  Uiso   1.00
C427   C     0.12290   0.25464   0.42033   0.00000  Uiso   1.00
C428   C     0.96812   0.16545   0.37997   0.00000  Uiso   1.00
C429   C     0.92746   0.15782   0.48525   0.00000  Uiso   1.00
C430   C     0.95901   0.14108   0.54692   0.00000  Uiso   1.00
C431   C     0.91244   0.13659   0.64058   0.00000  Uiso   1.00
C432   C     0.89244   0.16454   0.29772   0.00000  Uiso   1.00
C433   C     0.89455   0.15347   0.20170   0.00000  Uiso   1.00
C434   C     0.81850   0.15464   0.13748   0.00000  Uiso   1.00
C435   C     0.98935   0.18891   0.39578   0.00000  Uiso   1.00
C436   C     0.07294   0.19832   0.38219   0.00000  Uiso   1.00
C437   C     0.07848   0.22000   0.40050   0.00000  Uiso   1.00
H438   H     0.77063   0.19644   0.46061   0.00000  Uiso   1.00
H439   H     0.74710   0.17434   0.63341   0.00000  Uiso   1.00
H440   H     0.68266   0.18673   0.28825   0.00000  Uiso   1.00
H441   H     0.86102   0.23157   0.46871   0.00000  Uiso   1.00
H442   H     0.75424   0.14462   0.81140   0.00000  Uiso   1.00
H443   H     0.61837   0.17074   0.08359   0.00000  Uiso   1.00
H444   H     0.99448   0.26530   0.46411   0.00000  Uiso   1.00
H445   H     0.02682   0.15623   0.35600   0.00000  Uiso   1.00
H446   H     0.01735   0.13193   0.52307   0.00000  Uiso   1.00
H447   H     0.95290   0.14431   0.17791   0.00000  Uiso   1.00
H448   H     0.13127   0.18915   0.35837   0.00000  Uiso   1.00
H449   H     0.97359   0.11019   0.72185   0.00000  Uiso   1.00
H450   H     0.83771   0.13631   0.99402   0.00000  Uiso   1.00
H451   H     0.21383   0.23087   0.37456   0.00000  Uiso   1.00
O452   O     0.85305   0.11214   0.87840   0.00000  Uiso   1.00
O453   O     0.67479   0.14640   0.92352   0.00000  Uiso   1.00
O454   O     0.16824   0.27047   0.42277   0.00000  Uiso   1.00
N455   N     0.80718   0.13985   0.76741   0.00000  Uiso   1.00
N456   N     0.68013   0.16427   0.08695   0.00000  Uiso   1.00
N457   N     0.03176   0.25268   0.44268   0.00000  Uiso   1.00
N458   N     0.92521   0.12133   0.71922   0.00000  Uiso   1.00
N459   N     0.79816   0.14575   0.03876   0.00000  Uiso   1.00
N460   N     0.14979   0.23415   0.39450   0.00000  Uiso   1.00
C461   C     0.32932   0.68723   0.43665   0.00000  Uiso   1.00
C462   C     0.35207   0.66965   0.51604   0.00000  Uiso   1.00
C463   C     0.30545   0.66518   0.60962   0.00000  Uiso   1.00
C464   C     0.33691   0.64845   0.67142   0.00000  Uiso   1.00
C465   C     0.36074   0.62294   0.79934   0.00000  Uiso   1.00
C466   C     0.31705   0.67638   0.32850   0.00000  Uiso   1.00
C467   C     0.24098   0.67757   0.26441   0.00000  Uiso   1.00
C468   C     0.24298   0.66649   0.16833   0.00000  Uiso   1.00
C469   C     0.21246   0.65144   0.00507   0.00000  Uiso   1.00
C470   C     0.41396   0.70074   0.42656   0.00000  Uiso   1.00
C471   C     0.41937   0.72242   0.44488   0.00000  Uiso   1.00
C472   C     0.50296   0.73186   0.43134   0.00000  Uiso   1.00
C473   C     0.62290   0.75464   0.42033   0.00000  Uiso   1.00
C474   C     0.46812   0.66545   0.37997   0.00000  Uiso   1.00
C475   C     0.42746   0.65782   0.48525   0.00000  Uiso   1.00
C476   C     0.45901   0.64108   0.54692   0.00000  Uiso   1.00
C477   C     0.41244   0.63659   0.64058   0.00000  Uiso   1.00
C478   C     0.39244   0.66454   0.29772   0.00000  Uiso   1.00
C479   C     0.39455   0.65347   0.20170   0.00000  Uiso   1.00
C480   C     0.31850   0.65464   0.13748   0.00000  Uiso   1.00
C481   C     0.48935   0.68891   0.39578   0.00000  Uiso   1.00
C482   C     0.57294   0.69832   0.38219   0.00000  Uiso   1.00
C483   C     0.57848   0.72000   0.40050   0.00000  Uiso   1.00
H484   H     0.27063   0.69644   0.46061   0.00000  Uiso   1.00
H485   H     0.24710   0.67434   0.63341   0.00000  Uiso   1.00
H486   H     0.18266   0.68673   0.28825   0.00000  Uiso   1.00
H487   H     0.36102   0.73157   0.46871   0.00000  Uiso   1.00
H488   H     0.25424   0.64462   0.81140   0.00000  Uiso   1.00
H489   H     0.11837   0.67074   0.08359   0.00000  Uiso   1.00
H490   H     0.49448   0.76530   0.46411   0.00000  Uiso   1.00
H491   H     0.52682   0.65623   0.35600   0.00000  Uiso   1.00
H492   H     0.51735   0.63193   0.52307   0.00000  Uiso   1.00
H493   H     0.45290   0.64431   0.17791   0.00000  Uiso   1.00
H494   H     0.63127   0.68915   0.35837   0.00000  Uiso   1.00
H495   H     0.47359   0.61019   0.72185   0.00000  Uiso   1.00
H496   H     0.33771   0.63631   0.99402   0.00000  Uiso   1.00
H497   H     0.71383   0.73087   0.37456   0.00000  Uiso   1.00
O498   O     0.35305   0.61214   0.87840   0.00000  Uiso   1.00
O499   O     0.17479   0.64640   0.92352   0.00000  Uiso   1.00
O500   O     0.66824   0.77047   0.42277   0.00000  Uiso   1.00
N501   N     0.30718   0.63985   0.76741   0.00000  Uiso   1.00
N502   N     0.18013   0.66427   0.08695   0.00000  Uiso   1.00
N503   N     0.53176   0.75268   0.44268   0.00000  Uiso   1.00
N504   N     0.42521   0.62133   0.71922   0.00000  Uiso   1.00
N505   N     0.29816   0.64575   0.03876   0.00000  Uiso   1.00
N506   N     0.64979   0.73415   0.39450   0.00000  Uiso   1.00
C507   C     0.32932   0.18723   0.93665   0.00000  Uiso   1.00
C508   C     0.35207   0.16965   0.01604   0.00000  Uiso   1.00
C509   C     0.30545   0.16518   0.10962   0.00000  Uiso   1.00
C510   C     0.33691   0.14845   0.17142   0.00000  Uiso   1.00
C511   C     0.36074   0.12294   0.29934   0.00000  Uiso   1.00
C512   C     0.31705   0.17638   0.82850   0.00000  Uiso   1.00
C513   C     0.24098   0.17757   0.76441   0.00000  Uiso   1.00
C514   C     0.24298   0.16649   0.66833   0.00000  Uiso   1.00
C515   C     0.21246   0.15144   0.50507   0.00000  Uiso   1.00
C516   C     0.41396   0.20074   0.92656   0.00000  Uiso   1.00
C517   C     0.41937   0.22242   0.94488   0.00000  Uiso   1.00
C518   C     0.50296   0.23186   0.93134   0.00000  Uiso   1.00
C519   C     0.62290   0.25464   0.92033   0.00000  Uiso   1.00
C520   C     0.46812   0.16545   0.87997   0.00000  Uiso   1.00
C521   C     0.42746   0.15782   0.98525   0.00000  Uiso   1.00
C522   C     0.45901   0.14108   0.04692   0.00000  Uiso   1.00
C523   C     0.41244   0.13659   0.14058   0.00000  Uiso   1.00
C524   C     0.39244   0.16454   0.79772   0.00000  Uiso   1.00
C525   C     0.39455   0.15347   0.70170   0.00000  Uiso   1.00
C526   C     0.31850   0.15464   0.63748   0.00000  Uiso   1.00
C527   C     0.48935   0.18891   0.89578   0.00000  Uiso   1.00
C528   C     0.57294   0.19832   0.88219   0.00000  Uiso   1.00
C529   C     0.57848   0.22000   0.90050   0.00000  Uiso   1.00
H530   H     0.27063   0.19644   0.96061   0.00000  Uiso   1.00
H531   H     0.24710   0.17434   0.13341   0.00000  Uiso   1.00
H532   H     0.18266   0.18673   0.78825   0.00000  Uiso   1.00
H533   H     0.36102   0.23157   0.96871   0.00000  Uiso   1.00
H534   H     0.25424   0.14462   0.31140   0.00000  Uiso   1.00
H535   H     0.11837   0.17074   0.58359   0.00000  Uiso   1.00
H536   H     0.49448   0.26530   0.96411   0.00000  Uiso   1.00
H537   H     0.52682   0.15623   0.85600   0.00000  Uiso   1.00
H538   H     0.51735   0.13193   0.02307   0.00000  Uiso   1.00
H539   H     0.45290   0.14431   0.67791   0.00000  Uiso   1.00
H540   H     0.63127   0.18915   0.85837   0.00000  Uiso   1.00
H541   H     0.47359   0.11019   0.22185   0.00000  Uiso   1.00
H542   H     0.33771   0.13631   0.49402   0.00000  Uiso   1.00
H543   H     0.71383   0.23087   0.87456   0.00000  Uiso   1.00
O544   O     0.35305   0.11214   0.37840   0.00000  Uiso   1.00
O545   O     0.17479   0.14640   0.42352   0.00000  Uiso   1.00
O546   O     0.66824   0.27047   0.92277   0.00000  Uiso   1.00
N547   N     0.30718   0.13985   0.26741   0.00000  Uiso   1.00
N548   N     0.18013   0.16427   0.58695   0.00000  Uiso   1.00
N549   N     0.53176   0.25268   0.94268   0.00000  Uiso   1.00
N550   N     0.42521   0.12133   0.21922   0.00000  Uiso   1.00
N551   N     0.29816   0.14575   0.53876   0.00000  Uiso   1.00
N552   N     0.64979   0.23415   0.89450   0.00000  Uiso   1.00
C553   C     0.67068   0.81277   0.93665   0.00000  Uiso   1.00
C554   C     0.64793   0.83035   0.01604   0.00000  Uiso   1.00
C555   C     0.69455   0.83482   0.10962   0.00000  Uiso   1.00
C556   C     0.66309   0.85155   0.17142   0.00000  Uiso   1.00
C557   C     0.63926   0.87706   0.29934   0.00000  Uiso   1.00
C558   C     0.68295   0.82362   0.82850   0.00000  Uiso   1.00
C559   C     0.75902   0.82243   0.76441   0.00000  Uiso   1.00
C560   C     0.75702   0.83351   0.66833   0.00000  Uiso   1.00
C561   C     0.78754   0.84856   0.50507   0.00000  Uiso   1.00
C562   C     0.58604   0.79926   0.92656   0.00000  Uiso   1.00
C563   C     0.58063   0.77758   0.94488   0.00000  Uiso   1.00
C564   C     0.49704   0.76814   0.93134   0.00000  Uiso   1.00
C565   C     0.37710   0.74536   0.92033   0.00000  Uiso   1.00
C566   C     0.53188   0.83455   0.87997   0.00000  Uiso   1.00
C567   C     0.57254   0.84218   0.98525   0.00000  Uiso   1.00
C568   C     0.54099   0.85892   0.04692   0.00000  Uiso   1.00
C569   C     0.58756   0.86341   0.14058   0.00000  Uiso   1.00
C570   C     0.60756   0.83546   0.79772   0.00000  Uiso   1.00
C571   C     0.60545   0.84653   0.70170   0.00000  Uiso   1.00
C572   C     0.68150   0.84536   0.63748   0.00000  Uiso   1.00
C573   C     0.51065   0.81109   0.89578   0.00000  Uiso   1.00
C574   C     0.42706   0.80168   0.88219   0.00000  Uiso   1.00
C575   C     0.42152   0.78000   0.90050   0.00000  Uiso   1.00
H576   H     0.72937   0.80356   0.96061   0.00000  Uiso   1.00
H577   H     0.75290   0.82566   0.13341   0.00000  Uiso   1.00
H578   H     0.81734   0.81327   0.78825   0.00000  Uiso   1.00
H579   H     0.63898   0.76843   0.96871   0.00000  Uiso   1.00
H580   H     0.74576   0.85538   0.31140   0.00000  Uiso   1.00
H581   H     0.88163   0.82926   0.58359   0.00000  Uiso   1.00
H582   H     0.50552   0.73470   0.96411   0.00000  Uiso   1.00
H583   H     0.47318   0.84377   0.85600   0.00000  Uiso   1.00
H584   H     0.48265   0.86807   0.02307   0.00000  Uiso   1.00
H585   H     0.54710   0.85569   0.67791   0.00000  Uiso   1.00
H586   H     0.36873   0.81085   0.85837   0.00000  Uiso   1.00
H587   H     0.52641   0.88981   0.22185   0.00000  Uiso   1.00
H588   H     0.66229   0.86369   0.49402   0.00000  Uiso   1.00
H589   H     0.28617   0.76913   0.87456   0.00000  Uiso   1.00
O590   O     0.64695   0.88786   0.37840   0.00000  Uiso   1.00
O591   O     0.82521   0.85360   0.42352   0.00000  Uiso   1.00
O592   O     0.33176   0.72953   0.92277   0.00000  Uiso   1.00
N593   N     0.69282   0.86015   0.26741   0.00000  Uiso   1.00
N594   N     0.81987   0.83573   0.58695   0.00000  Uiso   1.00
N595   N     0.46824   0.74732   0.94268   0.00000  Uiso   1.00
N596   N     0.57479   0.87867   0.21922   0.00000  Uiso   1.00
N597   N     0.70184   0.85425   0.53876   0.00000  Uiso   1.00
N598   N     0.35021   0.76585   0.89450   0.00000  Uiso   1.00
C599   C     0.67068   0.31277   0.43665   0.00000  Uiso   1.00
C600   C     0.64793   0.33035   0.51604   0.00000  Uiso   1.00
C601   C     0.69455   0.33482   0.60962   0.00000  Uiso   1.00
C602   C     0.66309   0.35155   0.67142   0.00000  Uiso   1.00
C603   C     0.63926   0.37706   0.79934   0.00000  Uiso   1.00
C604   C     0.68295   0.32362   0.32850   0.00000  Uiso   1.00
C605   C     0.75902   0.32243   0.26441   0.00000  Uiso   1.00
C606   C     0.75702   0.33351   0.16833   0.00000  Uiso   1.00
C607   C     0.78754   0.34856   0.00507   0.00000  Uiso   1.00
C608   C     0.58604   0.29926   0.42656   0.00000  Uiso   1.00
C609   C     0.58063   0.27758   0.44488   0.00000  Uiso   1.00
C610   C     0.49704   0.26814   0.43134   0.00000  Uiso   1.00
C611   C     0.37710   0.24536   0.42033   0.00000  Uiso   1.00
C612   C     0.53188   0.33455   0.37997   0.00000  Uiso   1.00
C613   C     0.57254   0.34218   0.48525   0.00000  Uiso   1.00
C614   C     0.54099   0.35892   0.54692   0.00000  Uiso   1.00
C615   C     0.58756   0.36341   0.64058   0.00000  Uiso   1.00
C616   C     0.60756   0.33546   0.29772   0.00000  Uiso   1.00
C617   C     0.60545   0.34653   0.20170   0.00000  Uiso   1.00
C618   C     0.68150   0.34536   0.13748   0.00000  Uiso   1.00
C619   C     0.51065   0.31109   0.39578   0.00000  Uiso   1.00
C620   C     0.42706   0.30168   0.38219   0.00000  Uiso   1.00
C621   C     0.42152   0.28000   0.40050   0.00000  Uiso   1.00
H622   H     0.72937   0.30356   0.46061   0.00000  Uiso   1.00
H623   H     0.75290   0.32566   0.63341   0.00000  Uiso   1.00
H624   H     0.81734   0.31327   0.28825   0.00000  Uiso   1.00
H625   H     0.63898   0.26843   0.46871   0.00000  Uiso   1.00
H626   H     0.74576   0.35538   0.81140   0.00000  Uiso   1.00
H627   H     0.88163   0.32926   0.08359   0.00000  Uiso   1.00
H628   H     0.50552   0.23470   0.46411   0.00000  Uiso   1.00
H629   H     0.47318   0.34377   0.35600   0.00000  Uiso   1.00
H630   H     0.48265   0.36807   0.52307   0.00000  Uiso   1.00
H631   H     0.54710   0.35569   0.17791   0.00000  Uiso   1.00
H632   H     0.36873   0.31085   0.35837   0.00000  Uiso   1.00
H633   H     0.52641   0.38981   0.72185   0.00000  Uiso   1.00
H634   H     0.66229   0.36369   0.99402   0.00000  Uiso   1.00
H635   H     0.28617   0.26913   0.37456   0.00000  Uiso   1.00
O636   O     0.64695   0.38786   0.87840   0.00000  Uiso   1.00
O637   O     0.82521   0.35360   0.92352   0.00000  Uiso   1.00
O638   O     0.33176   0.22953   0.42277   0.00000  Uiso   1.00
N639   N     0.69282   0.36015   0.76741   0.00000  Uiso   1.00
N640   N     0.81987   0.33573   0.08695   0.00000  Uiso   1.00
N641   N     0.46824   0.24732   0.44268   0.00000  Uiso   1.00
N642   N     0.57479   0.37867   0.71922   0.00000  Uiso   1.00
N643   N     0.70184   0.35425   0.03876   0.00000  Uiso   1.00
N644   N     0.35021   0.26585   0.39450   0.00000  Uiso   1.00
C645   C     0.17068   0.81277   0.43665   0.00000  Uiso   1.00
C646   C     0.14793   0.83035   0.51604   0.00000  Uiso   1.00
C647   C     0.19455   0.83482   0.60962   0.00000  Uiso   1.00
C648   C     0.16309   0.85155   0.67142   0.00000  Uiso   1.00
C649   C     0.13926   0.87706   0.79934   0.00000  Uiso   1.00
C650   C     0.18295   0.82362   0.32850   0.00000  Uiso   1.00
C651   C     0.25902   0.82243   0.26441   0.00000  Uiso   1.00
C652   C     0.25702   0.83351   0.16833   0.00000  Uiso   1.00
C653   C     0.28754   0.84856   0.00507   0.00000  Uiso   1.00
C654   C     0.08604   0.79926   0.42656   0.00000  Uiso   1.00
C655   C     0.08063   0.77758   0.44488   0.00000  Uiso   1.00
C656   C     0.99704   0.76814   0.43134   0.00000  Uiso   1.00
C657   C     0.87710   0.74536   0.42033   0.00000  Uiso   1.00
C658   C     0.03188   0.83455   0.37997   0.00000  Uiso   1.00
C659   C     0.07254   0.84218   0.48525   0.00000  Uiso   1.00
C660   C     0.04099   0.85892   0.54692   0.00000  Uiso   1.00
C661   C     0.08756   0.86341   0.64058   0.00000  Uiso   1.00
C662   C     0.10756   0.83546   0.29772   0.00000  Uiso   1.00
C663   C     0.10545   0.84653   0.20170   0.00000  Uiso   1.00
C664   C     0.18150   0.84536   0.13748   0.00000  Uiso   1.00
C665   C     0.01065   0.81109   0.39578   0.00000  Uiso   1.00
C666   C     0.92706   0.80168   0.38219   0.00000  Uiso   1.00
C667   C     0.92152   0.78000   0.40050   0.00000  Uiso   1.00
H668   H     0.22937   0.80356   0.46061   0.00000  Uiso   1.00
H669   H     0.25290   0.82566   0.63341   0.00000  Uiso   1.00
H670   H     0.31734   0.81327   0.28825   0.00000  Uiso   1.00
H671   H     0.13898   0.76843   0.46871   0.00000  Uiso   1.00
H672   H     0.24576   0.85538   0.81140   0.00000  Uiso   1.00
H673   H     0.38163   0.82926   0.08359   0.00000  Uiso   1.00
H674   H     0.00552   0.73470   0.46411   0.00000  Uiso   1.00
H675   H     0.97318   0.84377   0.35600   0.00000  Uiso   1.00
H676   H     0.98265   0.86807   0.52307   0.00000  Uiso   1.00
H677   H     0.04710   0.85569   0.17791   0.00000  Uiso   1.00
H678   H     0.86873   0.81085   0.35837   0.00000  Uiso   1.00
H679   H     0.02641   0.88981   0.72185   0.00000  Uiso   1.00
H680   H     0.16229   0.86369   0.99402   0.00000  Uiso   1.00
H681   H     0.78617   0.76913   0.37456   0.00000  Uiso   1.00
O682   O     0.14695   0.88786   0.87840   0.00000  Uiso   1.00
O683   O     0.32521   0.85360   0.92352   0.00000  Uiso   1.00
O684   O     0.83176   0.72953   0.42277   0.00000  Uiso   1.00
N685   N     0.19282   0.86015   0.76741   0.00000  Uiso   1.00
N686   N     0.31987   0.83573   0.08695   0.00000  Uiso   1.00
N687   N     0.96824   0.74732   0.44268   0.00000  Uiso   1.00
N688   N     0.07479   0.87867   0.71922   0.00000  Uiso   1.00
N689   N     0.20184   0.85425   0.03876   0.00000  Uiso   1.00
N690   N     0.85021   0.76585   0.39450   0.00000  Uiso   1.00
C691   C     0.17068   0.31277   0.93665   0.00000  Uiso   1.00
C692   C     0.14793   0.33035   0.01604   0.00000  Uiso   1.00
C693   C     0.19455   0.33482   0.10962   0.00000  Uiso   1.00
C694   C     0.16309   0.35155   0.17142   0.00000  Uiso   1.00
C695   C     0.13926   0.37706   0.29934   0.00000  Uiso   1.00
C696   C     0.18295   0.32362   0.82850   0.00000  Uiso   1.00
C697   C     0.25902   0.32243   0.76441   0.00000  Uiso   1.00
C698   C     0.25702   0.33351   0.66833   0.00000  Uiso   1.00
C699   C     0.28754   0.34856   0.50507   0.00000  Uiso   1.00
C700   C     0.08604   0.29926   0.92656   0.00000  Uiso   1.00
C701   C     0.08063   0.27758   0.94488   0.00000  Uiso   1.00
C702   C     0.99704   0.26814   0.93134   0.00000  Uiso   1.00
C703   C     0.87710   0.24536   0.92033   0.00000  Uiso   1.00
C704   C     0.03188   0.33455   0.87997   0.00000  Uiso   1.00
C705   C     0.07254   0.34218   0.98525   0.00000  Uiso   1.00
C706   C     0.04099   0.35892   0.04692   0.00000  Uiso   1.00
C707   C     0.08756   0.36341   0.14058   0.00000  Uiso   1.00
C708   C     0.10756   0.33546   0.79772   0.00000  Uiso   1.00
C709   C     0.10545   0.34653   0.70170   0.00000  Uiso   1.00
C710   C     0.18150   0.34536   0.63748   0.00000  Uiso   1.00
C711   C     0.01065   0.31109   0.89578   0.00000  Uiso   1.00
C712   C     0.92706   0.30168   0.88219   0.00000  Uiso   1.00
C713   C     0.92152   0.28000   0.90050   0.00000  Uiso   1.00
H714   H     0.22937   0.30356   0.96061   0.00000  Uiso   1.00
H715   H     0.25290   0.32566   0.13341   0.00000  Uiso   1.00
H716   H     0.31734   0.31327   0.78825   0.00000  Uiso   1.00
H717   H     0.13898   0.26843   0.96871   0.00000  Uiso   1.00
H718   H     0.24576   0.35538   0.31140   0.00000  Uiso   1.00
H719   H     0.38163   0.32926   0.58359   0.00000  Uiso   1.00
H720   H     0.00552   0.23470   0.96411   0.00000  Uiso   1.00
H721   H     0.97318   0.34377   0.85600   0.00000  Uiso   1.00
H722   H     0.98265   0.36807   0.02307   0.00000  Uiso   1.00
H723   H     0.04710   0.35569   0.67791   0.00000  Uiso   1.00
H724   H     0.86873   0.31085   0.85837   0.00000  Uiso   1.00
H725   H     0.02641   0.38981   0.22185   0.00000  Uiso   1.00
H726   H     0.16229   0.36369   0.49402   0.00000  Uiso   1.00
H727   H     0.78617   0.26913   0.87456   0.00000  Uiso   1.00
O728   O     0.14695   0.38786   0.37840   0.00000  Uiso   1.00
O729   O     0.32521   0.35360   0.42352   0.00000  Uiso   1.00
O730   O     0.83176   0.22953   0.92277   0.00000  Uiso   1.00
N731   N     0.19282   0.36015   0.26741   0.00000  Uiso   1.00
N732   N     0.31987   0.33573   0.58695   0.00000  Uiso   1.00
N733   N     0.96824   0.24732   0.94268   0.00000  Uiso   1.00
N734   N     0.07479   0.37867   0.21922   0.00000  Uiso   1.00
N735   N     0.20184   0.35425   0.53876   0.00000  Uiso   1.00
N736   N     0.85021   0.26585   0.89450   0.00000  Uiso   1.00
