data_job_02203
_audit_creation_date              2018-12-19
_audit_creation_method            'Materials Studio'
_symmetry_space_group_name_H-M    'P1'
_symmetry_Int_Tables_number       1
_symmetry_cell_setting            triclinic
loop_
_symmetry_equiv_pos_as_xyz
  x,y,z
_cell_length_a                    41.5916
_cell_length_b                    31.0570
_cell_length_c                    8.7475
_cell_angle_alpha                 90.0000
_cell_angle_beta                  90.0000
_cell_angle_gamma                 90.0000
loop_
_atom_site_label
_atom_site_type_symbol
_atom_site_fract_x
_atom_site_fract_y
_atom_site_fract_z
_atom_site_U_iso_or_equiv
_atom_site_adp_type
_atom_site_occupancy
C1     C     0.85230   0.68938   0.54451   0.00000  Uiso   1.00
C2     C     0.83513   0.64789   0.58940   0.00000  Uiso   1.00
C3     C     0.82098   0.63958   0.73001   0.00000  Uiso   1.00
C4     C     0.80646   0.59966   0.74854   0.00000  Uiso   1.00
C5     C     0.77986   0.53986   0.83621   0.00000  Uiso   1.00
C6     C     0.88598   0.67611   0.49423   0.00000  Uiso   1.00
C7     C     0.91459   0.69154   0.55481   0.00000  Uiso   1.00
C8     C     0.94289   0.67538   0.49320   0.00000  Uiso   1.00
C9     C     0.99524   0.65942   0.43305   0.00000  Uiso   1.00
C10    C     0.83539   0.70568   0.40108   0.00000  Uiso   1.00
C11    C     0.82147   0.74598   0.38332   0.00000  Uiso   1.00
C12    C     0.80718   0.75473   0.24327   0.00000  Uiso   1.00
C13    C     0.78097   0.78468   0.03849   0.00000  Uiso   1.00
C14    C     0.85170   0.63325   0.32735   0.00000  Uiso   1.00
C15    C     0.83480   0.61740   0.47145   0.00000  Uiso   1.00
C16    C     0.82030   0.57748   0.48975   0.00000  Uiso   1.00
C17    C     0.80613   0.56912   0.63037   0.00000  Uiso   1.00
C18    C     0.88565   0.64562   0.37628   0.00000  Uiso   1.00
C19    C     0.91392   0.62944   0.31456   0.00000  Uiso   1.00
C20    C     0.94256   0.64484   0.37504   0.00000  Uiso   1.00
C21    C     0.83506   0.67520   0.28313   0.00000  Uiso   1.00
C22    C     0.82079   0.68388   0.14307   0.00000  Uiso   1.00
C23    C     0.80685   0.72419   0.12510   0.00000  Uiso   1.00
H24    H     0.85256   0.71312   0.63634   0.00000  Uiso   1.00
H25    H     0.82124   0.66318   0.82127   0.00000  Uiso   1.00
H26    H     0.91484   0.71513   0.64608   0.00000  Uiso   1.00
H27    H     0.82173   0.76957   0.47463   0.00000  Uiso   1.00
H28    H     0.78637   0.59437   0.97431   0.00000  Uiso   1.00
H29    H     0.98373   0.70392   0.60488   0.00000  Uiso   1.00
H30    H     0.78739   0.81871   0.24333   0.00000  Uiso   1.00
H31    H     0.85144   0.60952   0.23551   0.00000  Uiso   1.00
H32    H     0.82005   0.55390   0.39846   0.00000  Uiso   1.00
H33    H     0.91365   0.60585   0.22327   0.00000  Uiso   1.00
H34    H     0.82054   0.66028   0.05182   0.00000  Uiso   1.00
H35    H     0.78541   0.50567   0.63114   0.00000  Uiso   1.00
H36    H     0.98277   0.61523   0.26171   0.00000  Uiso   1.00
H37    H     0.78643   0.73001   0.90016   0.00000  Uiso   1.00
O38    O     0.76527   0.51529   0.91716   0.00000  Uiso   1.00
O39    O     0.02420   0.65903   0.43247   0.00000  Uiso   1.00
O40    O     0.76661   0.80963   0.95813   0.00000  Uiso   1.00
N41    N     0.79045   0.58113   0.87117   0.00000  Uiso   1.00
N42    N     0.97497   0.68355   0.52580   0.00000  Uiso   1.00
N43    N     0.79142   0.79087   0.18776   0.00000  Uiso   1.00
N44    N     0.78993   0.53340   0.68651   0.00000  Uiso   1.00
N45    N     0.97445   0.63582   0.34114   0.00000  Uiso   1.00
N46    N     0.79090   0.74314   0.00310   0.00000  Uiso   1.00
C47    C     0.85230   0.18938   0.04451   0.00000  Uiso   1.00
C48    C     0.83513   0.14789   0.08940   0.00000  Uiso   1.00
C49    C     0.82098   0.13958   0.23001   0.00000  Uiso   1.00
C50    C     0.80646   0.09966   0.24854   0.00000  Uiso   1.00
C51    C     0.77986   0.03986   0.33621   0.00000  Uiso   1.00
C52    C     0.88598   0.17611   0.99423   0.00000  Uiso   1.00
C53    C     0.91459   0.19154   0.05481   0.00000  Uiso   1.00
C54    C     0.94289   0.17538   0.99320   0.00000  Uiso   1.00
C55    C     0.99524   0.15942   0.93305   0.00000  Uiso   1.00
C56    C     0.83539   0.20568   0.90108   0.00000  Uiso   1.00
C57    C     0.82147   0.24598   0.88332   0.00000  Uiso   1.00
C58    C     0.80718   0.25473   0.74327   0.00000  Uiso   1.00
C59    C     0.78097   0.28468   0.53849   0.00000  Uiso   1.00
C60    C     0.85170   0.13325   0.82735   0.00000  Uiso   1.00
C61    C     0.83480   0.11740   0.97145   0.00000  Uiso   1.00
C62    C     0.82030   0.07748   0.98975   0.00000  Uiso   1.00
C63    C     0.80613   0.06912   0.13037   0.00000  Uiso   1.00
C64    C     0.88565   0.14562   0.87628   0.00000  Uiso   1.00
C65    C     0.91392   0.12944   0.81456   0.00000  Uiso   1.00
C66    C     0.94256   0.14484   0.87504   0.00000  Uiso   1.00
C67    C     0.83506   0.17520   0.78313   0.00000  Uiso   1.00
C68    C     0.82079   0.18388   0.64307   0.00000  Uiso   1.00
C69    C     0.80685   0.22419   0.62510   0.00000  Uiso   1.00
H70    H     0.85256   0.21312   0.13634   0.00000  Uiso   1.00
H71    H     0.82124   0.16318   0.32127   0.00000  Uiso   1.00
H72    H     0.91484   0.21513   0.14608   0.00000  Uiso   1.00
H73    H     0.82173   0.26957   0.97463   0.00000  Uiso   1.00
H74    H     0.78637   0.09437   0.47431   0.00000  Uiso   1.00
H75    H     0.98373   0.20392   0.10488   0.00000  Uiso   1.00
H76    H     0.78739   0.31871   0.74333   0.00000  Uiso   1.00
H77    H     0.85144   0.10952   0.73551   0.00000  Uiso   1.00
H78    H     0.82005   0.05390   0.89846   0.00000  Uiso   1.00
H79    H     0.91365   0.10585   0.72327   0.00000  Uiso   1.00
H80    H     0.82054   0.16028   0.55182   0.00000  Uiso   1.00
H81    H     0.78541   0.00567   0.13114   0.00000  Uiso   1.00
H82    H     0.98277   0.11523   0.76171   0.00000  Uiso   1.00
H83    H     0.78643   0.23001   0.40016   0.00000  Uiso   1.00
O84    O     0.76527   0.01529   0.41716   0.00000  Uiso   1.00
O85    O     0.02420   0.15903   0.93247   0.00000  Uiso   1.00
O86    O     0.76661   0.30963   0.45813   0.00000  Uiso   1.00
N87    N     0.79045   0.08113   0.37117   0.00000  Uiso   1.00
N88    N     0.97497   0.18355   0.02580   0.00000  Uiso   1.00
N89    N     0.79142   0.29087   0.68776   0.00000  Uiso   1.00
N90    N     0.78993   0.03340   0.18651   0.00000  Uiso   1.00
N91    N     0.97445   0.13582   0.84114   0.00000  Uiso   1.00
N92    N     0.79090   0.24314   0.50310   0.00000  Uiso   1.00
C93    C     0.35230   0.68938   0.04451   0.00000  Uiso   1.00
C94    C     0.33513   0.64789   0.08940   0.00000  Uiso   1.00
C95    C     0.32098   0.63958   0.23001   0.00000  Uiso   1.00
C96    C     0.30646   0.59966   0.24854   0.00000  Uiso   1.00
C97    C     0.27986   0.53986   0.33621   0.00000  Uiso   1.00
C98    C     0.38598   0.67611   0.99423   0.00000  Uiso   1.00
C99    C     0.41459   0.69154   0.05481   0.00000  Uiso   1.00
C100   C     0.44289   0.67538   0.99320   0.00000  Uiso   1.00
C101   C     0.49524   0.65942   0.93305   0.00000  Uiso   1.00
C102   C     0.33539   0.70568   0.90108   0.00000  Uiso   1.00
C103   C     0.32147   0.74598   0.88332   0.00000  Uiso   1.00
C104   C     0.30718   0.75473   0.74327   0.00000  Uiso   1.00
C105   C     0.28097   0.78468   0.53849   0.00000  Uiso   1.00
C106   C     0.35170   0.63325   0.82735   0.00000  Uiso   1.00
C107   C     0.33480   0.61740   0.97145   0.00000  Uiso   1.00
C108   C     0.32030   0.57748   0.98975   0.00000  Uiso   1.00
C109   C     0.30613   0.56912   0.13037   0.00000  Uiso   1.00
C110   C     0.38565   0.64562   0.87628   0.00000  Uiso   1.00
C111   C     0.41392   0.62944   0.81456   0.00000  Uiso   1.00
C112   C     0.44256   0.64484   0.87504   0.00000  Uiso   1.00
C113   C     0.33506   0.67520   0.78313   0.00000  Uiso   1.00
C114   C     0.32079   0.68388   0.64307   0.00000  Uiso   1.00
C115   C     0.30685   0.72419   0.62510   0.00000  Uiso   1.00
H116   H     0.35256   0.71312   0.13634   0.00000  Uiso   1.00
H117   H     0.32124   0.66318   0.32127   0.00000  Uiso   1.00
H118   H     0.41484   0.71513   0.14608   0.00000  Uiso   1.00
H119   H     0.32173   0.76957   0.97463   0.00000  Uiso   1.00
H120   H     0.28637   0.59437   0.47431   0.00000  Uiso   1.00
H121   H     0.48373   0.70392   0.10488   0.00000  Uiso   1.00
H122   H     0.28739   0.81871   0.74333   0.00000  Uiso   1.00
H123   H     0.35144   0.60952   0.73551   0.00000  Uiso   1.00
H124   H     0.32005   0.55390   0.89846   0.00000  Uiso   1.00
H125   H     0.41365   0.60585   0.72327   0.00000  Uiso   1.00
H126   H     0.32054   0.66028   0.55182   0.00000  Uiso   1.00
H127   H     0.28541   0.50567   0.13114   0.00000  Uiso   1.00
H128   H     0.48277   0.61523   0.76171   0.00000  Uiso   1.00
H129   H     0.28643   0.73001   0.40016   0.00000  Uiso   1.00
O130   O     0.26527   0.51529   0.41716   0.00000  Uiso   1.00
O131   O     0.52420   0.65903   0.93247   0.00000  Uiso   1.00
O132   O     0.26661   0.80963   0.45813   0.00000  Uiso   1.00
N133   N     0.29045   0.58113   0.37117   0.00000  Uiso   1.00
N134   N     0.47497   0.68355   0.02580   0.00000  Uiso   1.00
N135   N     0.29142   0.79087   0.68776   0.00000  Uiso   1.00
N136   N     0.28993   0.53340   0.18651   0.00000  Uiso   1.00
N137   N     0.47445   0.63582   0.84114   0.00000  Uiso   1.00
N138   N     0.29090   0.74314   0.50310   0.00000  Uiso   1.00
C139   C     0.35230   0.18938   0.54451   0.00000  Uiso   1.00
C140   C     0.33513   0.14789   0.58940   0.00000  Uiso   1.00
C141   C     0.32098   0.13958   0.73001   0.00000  Uiso   1.00
C142   C     0.30646   0.09966   0.74854   0.00000  Uiso   1.00
C143   C     0.27986   0.03986   0.83621   0.00000  Uiso   1.00
C144   C     0.38598   0.17611   0.49423   0.00000  Uiso   1.00
C145   C     0.41459   0.19154   0.55481   0.00000  Uiso   1.00
C146   C     0.44289   0.17538   0.49320   0.00000  Uiso   1.00
C147   C     0.49524   0.15942   0.43305   0.00000  Uiso   1.00
C148   C     0.33539   0.20568   0.40108   0.00000  Uiso   1.00
C149   C     0.32147   0.24598   0.38332   0.00000  Uiso   1.00
C150   C     0.30718   0.25473   0.24327   0.00000  Uiso   1.00
C151   C     0.28097   0.28468   0.03849   0.00000  Uiso   1.00
C152   C     0.35170   0.13325   0.32735   0.00000  Uiso   1.00
C153   C     0.33480   0.11740   0.47145   0.00000  Uiso   1.00
C154   C     0.32030   0.07748   0.48975   0.00000  Uiso   1.00
C155   C     0.30613   0.06912   0.63037   0.00000  Uiso   1.00
C156   C     0.38565   0.14562   0.37628   0.00000  Uiso   1.00
C157   C     0.41392   0.12944   0.31456   0.00000  Uiso   1.00
C158   C     0.44256   0.14484   0.37504   0.00000  Uiso   1.00
C159   C     0.33506   0.17520   0.28313   0.00000  Uiso   1.00
C160   C     0.32079   0.18388   0.14307   0.00000  Uiso   1.00
C161   C     0.30685   0.22419   0.12510   0.00000  Uiso   1.00
H162   H     0.35256   0.21312   0.63634   0.00000  Uiso   1.00
H163   H     0.32124   0.16318   0.82127   0.00000  Uiso   1.00
H164   H     0.41484   0.21513   0.64608   0.00000  Uiso   1.00
H165   H     0.32173   0.26957   0.47463   0.00000  Uiso   1.00
H166   H     0.28637   0.09437   0.97431   0.00000  Uiso   1.00
H167   H     0.48373   0.20392   0.60488   0.00000  Uiso   1.00
H168   H     0.28739   0.31871   0.24333   0.00000  Uiso   1.00
H169   H     0.35144   0.10952   0.23551   0.00000  Uiso   1.00
H170   H     0.32005   0.05390   0.39846   0.00000  Uiso   1.00
H171   H     0.41365   0.10585   0.22327   0.00000  Uiso   1.00
H172   H     0.32054   0.16028   0.05182   0.00000  Uiso   1.00
H173   H     0.28541   0.00567   0.63114   0.00000  Uiso   1.00
H174   H     0.48277   0.11523   0.26171   0.00000  Uiso   1.00
H175   H     0.28643   0.23001   0.90016   0.00000  Uiso   1.00
O176   O     0.26527   0.01529   0.91716   0.00000  Uiso   1.00
O177   O     0.52420   0.15903   0.43247   0.00000  Uiso   1.00
O178   O     0.26661   0.30963   0.95813   0.00000  Uiso   1.00
N179   N     0.29045   0.08113   0.87117   0.00000  Uiso   1.00
N180   N     0.47497   0.18355   0.52580   0.00000  Uiso   1.00
N181   N     0.29142   0.29087   0.18776   0.00000  Uiso   1.00
N182   N     0.28993   0.03340   0.68651   0.00000  Uiso   1.00
N183   N     0.47445   0.13582   0.34114   0.00000  Uiso   1.00
N184   N     0.29090   0.24314   0.00310   0.00000  Uiso   1.00
C185   C     0.14770   0.31062   0.54451   0.00000  Uiso   1.00
C186   C     0.16487   0.35211   0.58940   0.00000  Uiso   1.00
C187   C     0.17902   0.36042   0.73001   0.00000  Uiso   1.00
C188   C     0.19354   0.40034   0.74854   0.00000  Uiso   1.00
C189   C     0.22014   0.46014   0.83621   0.00000  Uiso   1.00
C190   C     0.11402   0.32389   0.49423   0.00000  Uiso   1.00
C191   C     0.08541   0.30846   0.55481   0.00000  Uiso   1.00
C192   C     0.05711   0.32462   0.49320   0.00000  Uiso   1.00
C193   C     0.00476   0.34058   0.43305   0.00000  Uiso   1.00
C194   C     0.16461   0.29432   0.40108   0.00000  Uiso   1.00
C195   C     0.17853   0.25402   0.38332   0.00000  Uiso   1.00
C196   C     0.19282   0.24527   0.24327   0.00000  Uiso   1.00
C197   C     0.21903   0.21532   0.03849   0.00000  Uiso   1.00
C198   C     0.14830   0.36675   0.32735   0.00000  Uiso   1.00
C199   C     0.16520   0.38260   0.47145   0.00000  Uiso   1.00
C200   C     0.17970   0.42252   0.48975   0.00000  Uiso   1.00
C201   C     0.19387   0.43088   0.63037   0.00000  Uiso   1.00
C202   C     0.11435   0.35438   0.37628   0.00000  Uiso   1.00
C203   C     0.08608   0.37056   0.31456   0.00000  Uiso   1.00
C204   C     0.05744   0.35516   0.37504   0.00000  Uiso   1.00
C205   C     0.16494   0.32480   0.28313   0.00000  Uiso   1.00
C206   C     0.17921   0.31612   0.14307   0.00000  Uiso   1.00
C207   C     0.19315   0.27581   0.12510   0.00000  Uiso   1.00
H208   H     0.14744   0.28688   0.63634   0.00000  Uiso   1.00
H209   H     0.17876   0.33682   0.82127   0.00000  Uiso   1.00
H210   H     0.08516   0.28487   0.64608   0.00000  Uiso   1.00
H211   H     0.17827   0.23043   0.47463   0.00000  Uiso   1.00
H212   H     0.21363   0.40563   0.97431   0.00000  Uiso   1.00
H213   H     0.01627   0.29608   0.60488   0.00000  Uiso   1.00
H214   H     0.21261   0.18129   0.24333   0.00000  Uiso   1.00
H215   H     0.14856   0.39048   0.23551   0.00000  Uiso   1.00
H216   H     0.17995   0.44610   0.39846   0.00000  Uiso   1.00
H217   H     0.08635   0.39415   0.22327   0.00000  Uiso   1.00
H218   H     0.17946   0.33972   0.05182   0.00000  Uiso   1.00
H219   H     0.21459   0.49433   0.63114   0.00000  Uiso   1.00
H220   H     0.01723   0.38477   0.26171   0.00000  Uiso   1.00
H221   H     0.21357   0.26999   0.90016   0.00000  Uiso   1.00
O222   O     0.23473   0.48471   0.91716   0.00000  Uiso   1.00
O223   O     0.97580   0.34097   0.43247   0.00000  Uiso   1.00
O224   O     0.23339   0.19037   0.95813   0.00000  Uiso   1.00
N225   N     0.20955   0.41887   0.87117   0.00000  Uiso   1.00
N226   N     0.02503   0.31645   0.52580   0.00000  Uiso   1.00
N227   N     0.20858   0.20913   0.18776   0.00000  Uiso   1.00
N228   N     0.21007   0.46660   0.68651   0.00000  Uiso   1.00
N229   N     0.02555   0.36418   0.34114   0.00000  Uiso   1.00
N230   N     0.20910   0.25686   0.00310   0.00000  Uiso   1.00
C231   C     0.14770   0.81062   0.04451   0.00000  Uiso   1.00
C232   C     0.16487   0.85211   0.08940   0.00000  Uiso   1.00
C233   C     0.17902   0.86042   0.23001   0.00000  Uiso   1.00
C234   C     0.19354   0.90034   0.24854   0.00000  Uiso   1.00
C235   C     0.22014   0.96014   0.33621   0.00000  Uiso   1.00
C236   C     0.11402   0.82389   0.99423   0.00000  Uiso   1.00
C237   C     0.08541   0.80846   0.05481   0.00000  Uiso   1.00
C238   C     0.05711   0.82462   0.99320   0.00000  Uiso   1.00
C239   C     0.00476   0.84058   0.93305   0.00000  Uiso   1.00
C240   C     0.16461   0.79432   0.90108   0.00000  Uiso   1.00
C241   C     0.17853   0.75402   0.88332   0.00000  Uiso   1.00
C242   C     0.19282   0.74527   0.74327   0.00000  Uiso   1.00
C243   C     0.21903   0.71532   0.53849   0.00000  Uiso   1.00
C244   C     0.14830   0.86675   0.82735   0.00000  Uiso   1.00
C245   C     0.16520   0.88260   0.97145   0.00000  Uiso   1.00
C246   C     0.17970   0.92252   0.98975   0.00000  Uiso   1.00
C247   C     0.19387   0.93088   0.13037   0.00000  Uiso   1.00
C248   C     0.11435   0.85438   0.87628   0.00000  Uiso   1.00
C249   C     0.08608   0.87056   0.81456   0.00000  Uiso   1.00
C250   C     0.05744   0.85516   0.87504   0.00000  Uiso   1.00
C251   C     0.16494   0.82480   0.78313   0.00000  Uiso   1.00
C252   C     0.17921   0.81612   0.64307   0.00000  Uiso   1.00
C253   C     0.19315   0.77581   0.62510   0.00000  Uiso   1.00
H254   H     0.14744   0.78688   0.13634   0.00000  Uiso   1.00
H255   H     0.17876   0.83682   0.32127   0.00000  Uiso   1.00
H256   H     0.08516   0.78487   0.14608   0.00000  Uiso   1.00
H257   H     0.17827   0.73043   0.97463   0.00000  Uiso   1.00
H258   H     0.21363   0.90563   0.47431   0.00000  Uiso   1.00
H259   H     0.01627   0.79608   0.10488   0.00000  Uiso   1.00
H260   H     0.21261   0.68129   0.74333   0.00000  Uiso   1.00
H261   H     0.14856   0.89048   0.73551   0.00000  Uiso   1.00
H262   H     0.17995   0.94610   0.89846   0.00000  Uiso   1.00
H263   H     0.08635   0.89415   0.72327   0.00000  Uiso   1.00
H264   H     0.17946   0.83972   0.55182   0.00000  Uiso   1.00
H265   H     0.21459   0.99433   0.13114   0.00000  Uiso   1.00
H266   H     0.01723   0.88477   0.76171   0.00000  Uiso   1.00
H267   H     0.21357   0.76999   0.40016   0.00000  Uiso   1.00
O268   O     0.23473   0.98471   0.41716   0.00000  Uiso   1.00
O269   O     0.97580   0.84097   0.93247   0.00000  Uiso   1.00
O270   O     0.23339   0.69037   0.45813   0.00000  Uiso   1.00
N271   N     0.20955   0.91887   0.37117   0.00000  Uiso   1.00
N272   N     0.02503   0.81645   0.02580   0.00000  Uiso   1.00
N273   N     0.20858   0.70913   0.68776   0.00000  Uiso   1.00
N274   N     0.21007   0.96660   0.18651   0.00000  Uiso   1.00
N275   N     0.02555   0.86418   0.84114   0.00000  Uiso   1.00
N276   N     0.20910   0.75686   0.50310   0.00000  Uiso   1.00
C277   C     0.64770   0.31062   0.04451   0.00000  Uiso   1.00
C278   C     0.66487   0.35211   0.08940   0.00000  Uiso   1.00
C279   C     0.67902   0.36042   0.23001   0.00000  Uiso   1.00
C280   C     0.69354   0.40034   0.24854   0.00000  Uiso   1.00
C281   C     0.72014   0.46014   0.33621   0.00000  Uiso   1.00
C282   C     0.61402   0.32389   0.99423   0.00000  Uiso   1.00
C283   C     0.58541   0.30846   0.05481   0.00000  Uiso   1.00
C284   C     0.55711   0.32462   0.99320   0.00000  Uiso   1.00
C285   C     0.50476   0.34058   0.93305   0.00000  Uiso   1.00
C286   C     0.66461   0.29432   0.90108   0.00000  Uiso   1.00
C287   C     0.67853   0.25402   0.88332   0.00000  Uiso   1.00
C288   C     0.69282   0.24527   0.74327   0.00000  Uiso   1.00
C289   C     0.71903   0.21532   0.53849   0.00000  Uiso   1.00
C290   C     0.64830   0.36675   0.82735   0.00000  Uiso   1.00
C291   C     0.66520   0.38260   0.97145   0.00000  Uiso   1.00
C292   C     0.67970   0.42252   0.98975   0.00000  Uiso   1.00
C293   C     0.69387   0.43088   0.13037   0.00000  Uiso   1.00
C294   C     0.61435   0.35438   0.87628   0.00000  Uiso   1.00
C295   C     0.58608   0.37056   0.81456   0.00000  Uiso   1.00
C296   C     0.55744   0.35516   0.87504   0.00000  Uiso   1.00
C297   C     0.66494   0.32480   0.78313   0.00000  Uiso   1.00
C298   C     0.67921   0.31612   0.64307   0.00000  Uiso   1.00
C299   C     0.69315   0.27581   0.62510   0.00000  Uiso   1.00
H300   H     0.64744   0.28688   0.13634   0.00000  Uiso   1.00
H301   H     0.67876   0.33682   0.32127   0.00000  Uiso   1.00
H302   H     0.58516   0.28487   0.14608   0.00000  Uiso   1.00
H303   H     0.67827   0.23043   0.97463   0.00000  Uiso   1.00
H304   H     0.71363   0.40563   0.47431   0.00000  Uiso   1.00
H305   H     0.51627   0.29608   0.10488   0.00000  Uiso   1.00
H306   H     0.71261   0.18129   0.74333   0.00000  Uiso   1.00
H307   H     0.64856   0.39048   0.73551   0.00000  Uiso   1.00
H308   H     0.67995   0.44610   0.89846   0.00000  Uiso   1.00
H309   H     0.58635   0.39415   0.72327   0.00000  Uiso   1.00
H310   H     0.67946   0.33972   0.55182   0.00000  Uiso   1.00
H311   H     0.71459   0.49433   0.13114   0.00000  Uiso   1.00
H312   H     0.51723   0.38477   0.76171   0.00000  Uiso   1.00
H313   H     0.71357   0.26999   0.40016   0.00000  Uiso   1.00
O314   O     0.73473   0.48471   0.41716   0.00000  Uiso   1.00
O315   O     0.47580   0.34097   0.93247   0.00000  Uiso   1.00
O316   O     0.73339   0.19037   0.45813   0.00000  Uiso   1.00
N317   N     0.70955   0.41887   0.37117   0.00000  Uiso   1.00
N318   N     0.52503   0.31645   0.02580   0.00000  Uiso   1.00
N319   N     0.70858   0.20913   0.68776   0.00000  Uiso   1.00
N320   N     0.71007   0.46660   0.18651   0.00000  Uiso   1.00
N321   N     0.52555   0.36418   0.84114   0.00000  Uiso   1.00
N322   N     0.70910   0.25686   0.50310   0.00000  Uiso   1.00
C323   C     0.64770   0.81062   0.54451   0.00000  Uiso   1.00
C324   C     0.66487   0.85211   0.58940   0.00000  Uiso   1.00
C325   C     0.67902   0.86042   0.73001   0.00000  Uiso   1.00
C326   C     0.69354   0.90034   0.74854   0.00000  Uiso   1.00
C327   C     0.72014   0.96014   0.83621   0.00000  Uiso   1.00
C328   C     0.61402   0.82389   0.49423   0.00000  Uiso   1.00
C329   C     0.58541   0.80846   0.55481   0.00000  Uiso   1.00
C330   C     0.55711   0.82462   0.49320   0.00000  Uiso   1.00
C331   C     0.50476   0.84058   0.43305   0.00000  Uiso   1.00
C332   C     0.66461   0.79432   0.40108   0.00000  Uiso   1.00
C333   C     0.67853   0.75402   0.38332   0.00000  Uiso   1.00
C334   C     0.69282   0.74527   0.24327   0.00000  Uiso   1.00
C335   C     0.71903   0.71532   0.03849   0.00000  Uiso   1.00
C336   C     0.64830   0.86675   0.32735   0.00000  Uiso   1.00
C337   C     0.66520   0.88260   0.47145   0.00000  Uiso   1.00
C338   C     0.67970   0.92252   0.48975   0.00000  Uiso   1.00
C339   C     0.69387   0.93088   0.63037   0.00000  Uiso   1.00
C340   C     0.61435   0.85438   0.37628   0.00000  Uiso   1.00
C341   C     0.58608   0.87056   0.31456   0.00000  Uiso   1.00
C342   C     0.55744   0.85516   0.37504   0.00000  Uiso   1.00
C343   C     0.66494   0.82480   0.28313   0.00000  Uiso   1.00
C344   C     0.67921   0.81612   0.14307   0.00000  Uiso   1.00
C345   C     0.69315   0.77581   0.12510   0.00000  Uiso   1.00
H346   H     0.64744   0.78688   0.63634   0.00000  Uiso   1.00
H347   H     0.67876   0.83682   0.82127   0.00000  Uiso   1.00
H348   H     0.58516   0.78487   0.64608   0.00000  Uiso   1.00
H349   H     0.67827   0.73043   0.47463   0.00000  Uiso   1.00
H350   H     0.71363   0.90563   0.97431   0.00000  Uiso   1.00
H351   H     0.51627   0.79608   0.60488   0.00000  Uiso   1.00
H352   H     0.71261   0.68129   0.24333   0.00000  Uiso   1.00
H353   H     0.64856   0.89048   0.23551   0.00000  Uiso   1.00
H354   H     0.67995   0.94610   0.39846   0.00000  Uiso   1.00
H355   H     0.58635   0.89415   0.22327   0.00000  Uiso   1.00
H356   H     0.67946   0.83972   0.05182   0.00000  Uiso   1.00
H357   H     0.71459   0.99433   0.63114   0.00000  Uiso   1.00
H358   H     0.51723   0.88477   0.26171   0.00000  Uiso   1.00
H359   H     0.71357   0.76999   0.90016   0.00000  Uiso   1.00
O360   O     0.73473   0.98471   0.91716   0.00000  Uiso   1.00
O361   O     0.47580   0.84097   0.43247   0.00000  Uiso   1.00
O362   O     0.73339   0.69037   0.95813   0.00000  Uiso   1.00
N363   N     0.70955   0.91887   0.87117   0.00000  Uiso   1.00
N364   N     0.52503   0.81645   0.52580   0.00000  Uiso   1.00
N365   N     0.70858   0.70913   0.18776   0.00000  Uiso   1.00
N366   N     0.71007   0.96660   0.68651   0.00000  Uiso   1.00
N367   N     0.52555   0.86418   0.34114   0.00000  Uiso   1.00
N368   N     0.70910   0.75686   0.00310   0.00000  Uiso   1.00
C369   C     0.10230   0.56062   0.79451   0.00000  Uiso   1.00
C370   C     0.08513   0.60211   0.83940   0.00000  Uiso   1.00
C371   C     0.07098   0.61042   0.98001   0.00000  Uiso   1.00
C372   C     0.05646   0.65034   0.99854   0.00000  Uiso   1.00
C373   C     0.02986   0.71014   0.08621   0.00000  Uiso   1.00
C374   C     0.13598   0.57389   0.74423   0.00000  Uiso   1.00
C375   C     0.16459   0.55846   0.80481   0.00000  Uiso   1.00
C376   C     0.19289   0.57462   0.74320   0.00000  Uiso   1.00
C377   C     0.24524   0.59058   0.68305   0.00000  Uiso   1.00
C378   C     0.08539   0.54432   0.65108   0.00000  Uiso   1.00
C379   C     0.07147   0.50402   0.63332   0.00000  Uiso   1.00
C380   C     0.05718   0.49527   0.49327   0.00000  Uiso   1.00
C381   C     0.03097   0.46532   0.28849   0.00000  Uiso   1.00
C382   C     0.10170   0.61675   0.57735   0.00000  Uiso   1.00
C383   C     0.08480   0.63260   0.72145   0.00000  Uiso   1.00
C384   C     0.07030   0.67252   0.73975   0.00000  Uiso   1.00
C385   C     0.05613   0.68088   0.88037   0.00000  Uiso   1.00
C386   C     0.13565   0.60438   0.62628   0.00000  Uiso   1.00
C387   C     0.16392   0.62056   0.56456   0.00000  Uiso   1.00
C388   C     0.19256   0.60516   0.62504   0.00000  Uiso   1.00
C389   C     0.08506   0.57480   0.53313   0.00000  Uiso   1.00
C390   C     0.07079   0.56612   0.39307   0.00000  Uiso   1.00
C391   C     0.05685   0.52581   0.37510   0.00000  Uiso   1.00
H392   H     0.10256   0.53688   0.88634   0.00000  Uiso   1.00
H393   H     0.07124   0.58682   0.07127   0.00000  Uiso   1.00
H394   H     0.16484   0.53487   0.89608   0.00000  Uiso   1.00
H395   H     0.07173   0.48043   0.72463   0.00000  Uiso   1.00
H396   H     0.03637   0.65563   0.22431   0.00000  Uiso   1.00
H397   H     0.23373   0.54608   0.85488   0.00000  Uiso   1.00
H398   H     0.03739   0.43129   0.49333   0.00000  Uiso   1.00
H399   H     0.10144   0.64048   0.48551   0.00000  Uiso   1.00
H400   H     0.07005   0.69610   0.64846   0.00000  Uiso   1.00
H401   H     0.16365   0.64415   0.47327   0.00000  Uiso   1.00
H402   H     0.07054   0.58972   0.30182   0.00000  Uiso   1.00
H403   H     0.03541   0.74433   0.88114   0.00000  Uiso   1.00
H404   H     0.23277   0.63477   0.51171   0.00000  Uiso   1.00
H405   H     0.03643   0.51999   0.15016   0.00000  Uiso   1.00
O406   O     0.01527   0.73471   0.16716   0.00000  Uiso   1.00
O407   O     0.27420   0.59097   0.68247   0.00000  Uiso   1.00
O408   O     0.01661   0.44037   0.20813   0.00000  Uiso   1.00
N409   N     0.04045   0.66887   0.12117   0.00000  Uiso   1.00
N410   N     0.22497   0.56645   0.77580   0.00000  Uiso   1.00
N411   N     0.04142   0.45913   0.43776   0.00000  Uiso   1.00
N412   N     0.03993   0.71660   0.93651   0.00000  Uiso   1.00
N413   N     0.22445   0.61418   0.59114   0.00000  Uiso   1.00
N414   N     0.04090   0.50686   0.25310   0.00000  Uiso   1.00
C415   C     0.10230   0.06062   0.29451   0.00000  Uiso   1.00
C416   C     0.08513   0.10211   0.33940   0.00000  Uiso   1.00
C417   C     0.07098   0.11042   0.48001   0.00000  Uiso   1.00
C418   C     0.05646   0.15034   0.49854   0.00000  Uiso   1.00
C419   C     0.02986   0.21014   0.58621   0.00000  Uiso   1.00
C420   C     0.13598   0.07389   0.24423   0.00000  Uiso   1.00
C421   C     0.16459   0.05846   0.30481   0.00000  Uiso   1.00
C422   C     0.19289   0.07462   0.24320   0.00000  Uiso   1.00
C423   C     0.24524   0.09058   0.18305   0.00000  Uiso   1.00
C424   C     0.08539   0.04432   0.15108   0.00000  Uiso   1.00
C425   C     0.07147   0.00402   0.13332   0.00000  Uiso   1.00
C426   C     0.05718   0.99527   0.99327   0.00000  Uiso   1.00
C427   C     0.03097   0.96532   0.78849   0.00000  Uiso   1.00
C428   C     0.10170   0.11675   0.07735   0.00000  Uiso   1.00
C429   C     0.08480   0.13260   0.22145   0.00000  Uiso   1.00
C430   C     0.07030   0.17252   0.23975   0.00000  Uiso   1.00
C431   C     0.05613   0.18088   0.38037   0.00000  Uiso   1.00
C432   C     0.13565   0.10438   0.12628   0.00000  Uiso   1.00
C433   C     0.16392   0.12056   0.06456   0.00000  Uiso   1.00
C434   C     0.19256   0.10516   0.12504   0.00000  Uiso   1.00
C435   C     0.08506   0.07480   0.03313   0.00000  Uiso   1.00
C436   C     0.07079   0.06612   0.89307   0.00000  Uiso   1.00
C437   C     0.05685   0.02581   0.87510   0.00000  Uiso   1.00
H438   H     0.10256   0.03688   0.38634   0.00000  Uiso   1.00
H439   H     0.07124   0.08682   0.57127   0.00000  Uiso   1.00
H440   H     0.16484   0.03487   0.39608   0.00000  Uiso   1.00
H441   H     0.07173   0.98043   0.22463   0.00000  Uiso   1.00
H442   H     0.03637   0.15563   0.72431   0.00000  Uiso   1.00
H443   H     0.23373   0.04608   0.35488   0.00000  Uiso   1.00
H444   H     0.03739   0.93129   0.99333   0.00000  Uiso   1.00
H445   H     0.10144   0.14048   0.98551   0.00000  Uiso   1.00
H446   H     0.07005   0.19610   0.14846   0.00000  Uiso   1.00
H447   H     0.16365   0.14415   0.97327   0.00000  Uiso   1.00
H448   H     0.07054   0.08972   0.80182   0.00000  Uiso   1.00
H449   H     0.03541   0.24433   0.38114   0.00000  Uiso   1.00
H450   H     0.23277   0.13477   0.01171   0.00000  Uiso   1.00
H451   H     0.03643   0.01999   0.65016   0.00000  Uiso   1.00
O452   O     0.01527   0.23471   0.66716   0.00000  Uiso   1.00
O453   O     0.27420   0.09097   0.18247   0.00000  Uiso   1.00
O454   O     0.01661   0.94037   0.70813   0.00000  Uiso   1.00
N455   N     0.04045   0.16887   0.62117   0.00000  Uiso   1.00
N456   N     0.22497   0.06645   0.27580   0.00000  Uiso   1.00
N457   N     0.04142   0.95913   0.93776   0.00000  Uiso   1.00
N458   N     0.03993   0.21660   0.43651   0.00000  Uiso   1.00
N459   N     0.22445   0.11418   0.09114   0.00000  Uiso   1.00
N460   N     0.04090   0.00686   0.75310   0.00000  Uiso   1.00
C461   C     0.60230   0.56062   0.29451   0.00000  Uiso   1.00
C462   C     0.58513   0.60211   0.33940   0.00000  Uiso   1.00
C463   C     0.57098   0.61042   0.48001   0.00000  Uiso   1.00
C464   C     0.55646   0.65034   0.49854   0.00000  Uiso   1.00
C465   C     0.52986   0.71014   0.58621   0.00000  Uiso   1.00
C466   C     0.63598   0.57389   0.24423   0.00000  Uiso   1.00
C467   C     0.66459   0.55846   0.30481   0.00000  Uiso   1.00
C468   C     0.69289   0.57462   0.24320   0.00000  Uiso   1.00
C469   C     0.74524   0.59058   0.18305   0.00000  Uiso   1.00
C470   C     0.58539   0.54432   0.15108   0.00000  Uiso   1.00
C471   C     0.57147   0.50402   0.13332   0.00000  Uiso   1.00
C472   C     0.55718   0.49527   0.99327   0.00000  Uiso   1.00
C473   C     0.53097   0.46532   0.78849   0.00000  Uiso   1.00
C474   C     0.60170   0.61675   0.07735   0.00000  Uiso   1.00
C475   C     0.58480   0.63260   0.22145   0.00000  Uiso   1.00
C476   C     0.57030   0.67252   0.23975   0.00000  Uiso   1.00
C477   C     0.55613   0.68088   0.38037   0.00000  Uiso   1.00
C478   C     0.63565   0.60438   0.12628   0.00000  Uiso   1.00
C479   C     0.66392   0.62056   0.06456   0.00000  Uiso   1.00
C480   C     0.69256   0.60516   0.12504   0.00000  Uiso   1.00
C481   C     0.58506   0.57480   0.03313   0.00000  Uiso   1.00
C482   C     0.57079   0.56612   0.89307   0.00000  Uiso   1.00
C483   C     0.55685   0.52581   0.87510   0.00000  Uiso   1.00
H484   H     0.60256   0.53688   0.38634   0.00000  Uiso   1.00
H485   H     0.57124   0.58682   0.57127   0.00000  Uiso   1.00
H486   H     0.66484   0.53487   0.39608   0.00000  Uiso   1.00
H487   H     0.57173   0.48043   0.22463   0.00000  Uiso   1.00
H488   H     0.53637   0.65563   0.72431   0.00000  Uiso   1.00
H489   H     0.73373   0.54608   0.35488   0.00000  Uiso   1.00
H490   H     0.53739   0.43129   0.99333   0.00000  Uiso   1.00
H491   H     0.60144   0.64048   0.98551   0.00000  Uiso   1.00
H492   H     0.57005   0.69610   0.14846   0.00000  Uiso   1.00
H493   H     0.66365   0.64415   0.97327   0.00000  Uiso   1.00
H494   H     0.57054   0.58972   0.80182   0.00000  Uiso   1.00
H495   H     0.53541   0.74433   0.38114   0.00000  Uiso   1.00
H496   H     0.73277   0.63477   0.01171   0.00000  Uiso   1.00
H497   H     0.53643   0.51999   0.65016   0.00000  Uiso   1.00
O498   O     0.51527   0.73471   0.66716   0.00000  Uiso   1.00
O499   O     0.77420   0.59097   0.18247   0.00000  Uiso   1.00
O500   O     0.51661   0.44037   0.70813   0.00000  Uiso   1.00
N501   N     0.54045   0.66887   0.62117   0.00000  Uiso   1.00
N502   N     0.72497   0.56645   0.27580   0.00000  Uiso   1.00
N503   N     0.54142   0.45913   0.93776   0.00000  Uiso   1.00
N504   N     0.53993   0.71660   0.43651   0.00000  Uiso   1.00
N505   N     0.72445   0.61418   0.09114   0.00000  Uiso   1.00
N506   N     0.54090   0.50686   0.75310   0.00000  Uiso   1.00
C507   C     0.60230   0.06062   0.79451   0.00000  Uiso   1.00
C508   C     0.58513   0.10211   0.83940   0.00000  Uiso   1.00
C509   C     0.57098   0.11042   0.98001   0.00000  Uiso   1.00
C510   C     0.55646   0.15034   0.99854   0.00000  Uiso   1.00
C511   C     0.52986   0.21014   0.08621   0.00000  Uiso   1.00
C512   C     0.63598   0.07389   0.74423   0.00000  Uiso   1.00
C513   C     0.66459   0.05846   0.80481   0.00000  Uiso   1.00
C514   C     0.69289   0.07462   0.74320   0.00000  Uiso   1.00
C515   C     0.74524   0.09058   0.68305   0.00000  Uiso   1.00
C516   C     0.58539   0.04432   0.65108   0.00000  Uiso   1.00
C517   C     0.57147   0.00402   0.63332   0.00000  Uiso   1.00
C518   C     0.55718   0.99527   0.49327   0.00000  Uiso   1.00
C519   C     0.53097   0.96532   0.28849   0.00000  Uiso   1.00
C520   C     0.60170   0.11675   0.57735   0.00000  Uiso   1.00
C521   C     0.58480   0.13260   0.72145   0.00000  Uiso   1.00
C522   C     0.57030   0.17252   0.73975   0.00000  Uiso   1.00
C523   C     0.55613   0.18088   0.88037   0.00000  Uiso   1.00
C524   C     0.63565   0.10438   0.62628   0.00000  Uiso   1.00
C525   C     0.66392   0.12056   0.56456   0.00000  Uiso   1.00
C526   C     0.69256   0.10516   0.62504   0.00000  Uiso   1.00
C527   C     0.58506   0.07480   0.53313   0.00000  Uiso   1.00
C528   C     0.57079   0.06612   0.39307   0.00000  Uiso   1.00
C529   C     0.55685   0.02581   0.37510   0.00000  Uiso   1.00
H530   H     0.60256   0.03688   0.88634   0.00000  Uiso   1.00
H531   H     0.57124   0.08682   0.07127   0.00000  Uiso   1.00
H532   H     0.66484   0.03487   0.89608   0.00000  Uiso   1.00
H533   H     0.57173   0.98043   0.72463   0.00000  Uiso   1.00
H534   H     0.53637   0.15563   0.22431   0.00000  Uiso   1.00
H535   H     0.73373   0.04608   0.85488   0.00000  Uiso   1.00
H536   H     0.53739   0.93129   0.49333   0.00000  Uiso   1.00
H537   H     0.60144   0.14048   0.48551   0.00000  Uiso   1.00
H538   H     0.57005   0.19610   0.64846   0.00000  Uiso   1.00
H539   H     0.66365   0.14415   0.47327   0.00000  Uiso   1.00
H540   H     0.57054   0.08972   0.30182   0.00000  Uiso   1.00
H541   H     0.53541   0.24433   0.88114   0.00000  Uiso   1.00
H542   H     0.73277   0.13477   0.51171   0.00000  Uiso   1.00
H543   H     0.53643   0.01999   0.15016   0.00000  Uiso   1.00
O544   O     0.51527   0.23471   0.16716   0.00000  Uiso   1.00
O545   O     0.77420   0.09097   0.68247   0.00000  Uiso   1.00
O546   O     0.51661   0.94037   0.20813   0.00000  Uiso   1.00
N547   N     0.54045   0.16887   0.12117   0.00000  Uiso   1.00
N548   N     0.72497   0.06645   0.77580   0.00000  Uiso   1.00
N549   N     0.54142   0.95913   0.43776   0.00000  Uiso   1.00
N550   N     0.53993   0.21660   0.93651   0.00000  Uiso   1.00
N551   N     0.72445   0.11418   0.59114   0.00000  Uiso   1.00
N552   N     0.54090   0.00686   0.25310   0.00000  Uiso   1.00
C553   C     0.39770   0.93938   0.79451   0.00000  Uiso   1.00
C554   C     0.41487   0.89789   0.83940   0.00000  Uiso   1.00
C555   C     0.42902   0.88958   0.98001   0.00000  Uiso   1.00
C556   C     0.44354   0.84966   0.99854   0.00000  Uiso   1.00
C557   C     0.47014   0.78986   0.08621   0.00000  Uiso   1.00
C558   C     0.36402   0.92611   0.74423   0.00000  Uiso   1.00
C559   C     0.33541   0.94154   0.80481   0.00000  Uiso   1.00
C560   C     0.30711   0.92538   0.74320   0.00000  Uiso   1.00
C561   C     0.25476   0.90942   0.68305   0.00000  Uiso   1.00
C562   C     0.41461   0.95568   0.65108   0.00000  Uiso   1.00
C563   C     0.42853   0.99598   0.63332   0.00000  Uiso   1.00
C564   C     0.44282   0.00473   0.49327   0.00000  Uiso   1.00
C565   C     0.46903   0.03468   0.28849   0.00000  Uiso   1.00
C566   C     0.39830   0.88325   0.57735   0.00000  Uiso   1.00
C567   C     0.41520   0.86740   0.72145   0.00000  Uiso   1.00
C568   C     0.42970   0.82748   0.73975   0.00000  Uiso   1.00
C569   C     0.44387   0.81912   0.88037   0.00000  Uiso   1.00
C570   C     0.36435   0.89562   0.62628   0.00000  Uiso   1.00
C571   C     0.33608   0.87944   0.56456   0.00000  Uiso   1.00
C572   C     0.30744   0.89484   0.62504   0.00000  Uiso   1.00
C573   C     0.41494   0.92520   0.53313   0.00000  Uiso   1.00
C574   C     0.42921   0.93388   0.39307   0.00000  Uiso   1.00
C575   C     0.44315   0.97419   0.37510   0.00000  Uiso   1.00
H576   H     0.39744   0.96312   0.88634   0.00000  Uiso   1.00
H577   H     0.42876   0.91318   0.07127   0.00000  Uiso   1.00
H578   H     0.33516   0.96513   0.89608   0.00000  Uiso   1.00
H579   H     0.42827   0.01957   0.72463   0.00000  Uiso   1.00
H580   H     0.46363   0.84437   0.22431   0.00000  Uiso   1.00
H581   H     0.26627   0.95392   0.85488   0.00000  Uiso   1.00
H582   H     0.46261   0.06871   0.49333   0.00000  Uiso   1.00
H583   H     0.39856   0.85952   0.48551   0.00000  Uiso   1.00
H584   H     0.42995   0.80390   0.64846   0.00000  Uiso   1.00
H585   H     0.33635   0.85585   0.47327   0.00000  Uiso   1.00
H586   H     0.42946   0.91028   0.30182   0.00000  Uiso   1.00
H587   H     0.46459   0.75567   0.88114   0.00000  Uiso   1.00
H588   H     0.26723   0.86523   0.51171   0.00000  Uiso   1.00
H589   H     0.46357   0.98001   0.15016   0.00000  Uiso   1.00
O590   O     0.48473   0.76529   0.16716   0.00000  Uiso   1.00
O591   O     0.22580   0.90903   0.68247   0.00000  Uiso   1.00
O592   O     0.48339   0.05963   0.20813   0.00000  Uiso   1.00
N593   N     0.45955   0.83113   0.12117   0.00000  Uiso   1.00
N594   N     0.27503   0.93355   0.77580   0.00000  Uiso   1.00
N595   N     0.45858   0.04087   0.43776   0.00000  Uiso   1.00
N596   N     0.46007   0.78340   0.93651   0.00000  Uiso   1.00
N597   N     0.27555   0.88582   0.59114   0.00000  Uiso   1.00
N598   N     0.45910   0.99314   0.25310   0.00000  Uiso   1.00
C599   C     0.39770   0.43938   0.29451   0.00000  Uiso   1.00
C600   C     0.41487   0.39789   0.33940   0.00000  Uiso   1.00
C601   C     0.42902   0.38958   0.48001   0.00000  Uiso   1.00
C602   C     0.44354   0.34966   0.49854   0.00000  Uiso   1.00
C603   C     0.47014   0.28986   0.58621   0.00000  Uiso   1.00
C604   C     0.36402   0.42611   0.24423   0.00000  Uiso   1.00
C605   C     0.33541   0.44154   0.30481   0.00000  Uiso   1.00
C606   C     0.30711   0.42538   0.24320   0.00000  Uiso   1.00
C607   C     0.25476   0.40942   0.18305   0.00000  Uiso   1.00
C608   C     0.41461   0.45568   0.15108   0.00000  Uiso   1.00
C609   C     0.42853   0.49598   0.13332   0.00000  Uiso   1.00
C610   C     0.44282   0.50473   0.99327   0.00000  Uiso   1.00
C611   C     0.46903   0.53468   0.78849   0.00000  Uiso   1.00
C612   C     0.39830   0.38325   0.07735   0.00000  Uiso   1.00
C613   C     0.41520   0.36740   0.22145   0.00000  Uiso   1.00
C614   C     0.42970   0.32748   0.23975   0.00000  Uiso   1.00
C615   C     0.44387   0.31912   0.38037   0.00000  Uiso   1.00
C616   C     0.36435   0.39562   0.12628   0.00000  Uiso   1.00
C617   C     0.33608   0.37944   0.06456   0.00000  Uiso   1.00
C618   C     0.30744   0.39484   0.12504   0.00000  Uiso   1.00
C619   C     0.41494   0.42520   0.03313   0.00000  Uiso   1.00
C620   C     0.42921   0.43388   0.89307   0.00000  Uiso   1.00
C621   C     0.44315   0.47419   0.87510   0.00000  Uiso   1.00
H622   H     0.39744   0.46312   0.38634   0.00000  Uiso   1.00
H623   H     0.42876   0.41318   0.57127   0.00000  Uiso   1.00
H624   H     0.33516   0.46513   0.39608   0.00000  Uiso   1.00
H625   H     0.42827   0.51957   0.22463   0.00000  Uiso   1.00
H626   H     0.46363   0.34437   0.72431   0.00000  Uiso   1.00
H627   H     0.26627   0.45392   0.35488   0.00000  Uiso   1.00
H628   H     0.46261   0.56871   0.99333   0.00000  Uiso   1.00
H629   H     0.39856   0.35952   0.98551   0.00000  Uiso   1.00
H630   H     0.42995   0.30390   0.14846   0.00000  Uiso   1.00
H631   H     0.33635   0.35585   0.97327   0.00000  Uiso   1.00
H632   H     0.42946   0.41028   0.80182   0.00000  Uiso   1.00
H633   H     0.46459   0.25567   0.38114   0.00000  Uiso   1.00
H634   H     0.26723   0.36523   0.01171   0.00000  Uiso   1.00
H635   H     0.46357   0.48001   0.65016   0.00000  Uiso   1.00
O636   O     0.48473   0.26529   0.66716   0.00000  Uiso   1.00
O637   O     0.22580   0.40903   0.18247   0.00000  Uiso   1.00
O638   O     0.48339   0.55963   0.70813   0.00000  Uiso   1.00
N639   N     0.45955   0.33113   0.62117   0.00000  Uiso   1.00
N640   N     0.27503   0.43355   0.27580   0.00000  Uiso   1.00
N641   N     0.45858   0.54087   0.93776   0.00000  Uiso   1.00
N642   N     0.46007   0.28340   0.43651   0.00000  Uiso   1.00
N643   N     0.27555   0.38582   0.09114   0.00000  Uiso   1.00
N644   N     0.45910   0.49314   0.75310   0.00000  Uiso   1.00
C645   C     0.89770   0.93938   0.29451   0.00000  Uiso   1.00
C646   C     0.91487   0.89789   0.33940   0.00000  Uiso   1.00
C647   C     0.92902   0.88958   0.48001   0.00000  Uiso   1.00
C648   C     0.94354   0.84966   0.49854   0.00000  Uiso   1.00
C649   C     0.97014   0.78986   0.58621   0.00000  Uiso   1.00
C650   C     0.86402   0.92611   0.24423   0.00000  Uiso   1.00
C651   C     0.83541   0.94154   0.30481   0.00000  Uiso   1.00
C652   C     0.80711   0.92538   0.24320   0.00000  Uiso   1.00
C653   C     0.75476   0.90942   0.18305   0.00000  Uiso   1.00
C654   C     0.91461   0.95568   0.15108   0.00000  Uiso   1.00
C655   C     0.92853   0.99598   0.13332   0.00000  Uiso   1.00
C656   C     0.94282   0.00473   0.99327   0.00000  Uiso   1.00
C657   C     0.96903   0.03468   0.78849   0.00000  Uiso   1.00
C658   C     0.89830   0.88325   0.07735   0.00000  Uiso   1.00
C659   C     0.91520   0.86740   0.22145   0.00000  Uiso   1.00
C660   C     0.92970   0.82748   0.23975   0.00000  Uiso   1.00
C661   C     0.94387   0.81912   0.38037   0.00000  Uiso   1.00
C662   C     0.86435   0.89562   0.12628   0.00000  Uiso   1.00
C663   C     0.83608   0.87944   0.06456   0.00000  Uiso   1.00
C664   C     0.80744   0.89484   0.12504   0.00000  Uiso   1.00
C665   C     0.91494   0.92520   0.03313   0.00000  Uiso   1.00
C666   C     0.92921   0.93388   0.89307   0.00000  Uiso   1.00
C667   C     0.94315   0.97419   0.87510   0.00000  Uiso   1.00
H668   H     0.89744   0.96312   0.38634   0.00000  Uiso   1.00
H669   H     0.92876   0.91318   0.57127   0.00000  Uiso   1.00
H670   H     0.83516   0.96513   0.39608   0.00000  Uiso   1.00
H671   H     0.92827   0.01957   0.22463   0.00000  Uiso   1.00
H672   H     0.96363   0.84437   0.72431   0.00000  Uiso   1.00
H673   H     0.76627   0.95392   0.35488   0.00000  Uiso   1.00
H674   H     0.96261   0.06871   0.99333   0.00000  Uiso   1.00
H675   H     0.89856   0.85952   0.98551   0.00000  Uiso   1.00
H676   H     0.92995   0.80390   0.14846   0.00000  Uiso   1.00
H677   H     0.83635   0.85585   0.97327   0.00000  Uiso   1.00
H678   H     0.92946   0.91028   0.80182   0.00000  Uiso   1.00
H679   H     0.96459   0.75567   0.38114   0.00000  Uiso   1.00
H680   H     0.76723   0.86523   0.01171   0.00000  Uiso   1.00
H681   H     0.96357   0.98001   0.65016   0.00000  Uiso   1.00
O682   O     0.98473   0.76529   0.66716   0.00000  Uiso   1.00
O683   O     0.72580   0.90903   0.18247   0.00000  Uiso   1.00
O684   O     0.98339   0.05963   0.70813   0.00000  Uiso   1.00
N685   N     0.95955   0.83113   0.62117   0.00000  Uiso   1.00
N686   N     0.77503   0.93355   0.27580   0.00000  Uiso   1.00
N687   N     0.95858   0.04087   0.93776   0.00000  Uiso   1.00
N688   N     0.96007   0.78340   0.43651   0.00000  Uiso   1.00
N689   N     0.77555   0.88582   0.09114   0.00000  Uiso   1.00
N690   N     0.95910   0.99314   0.75310   0.00000  Uiso   1.00
C691   C     0.89770   0.43938   0.79451   0.00000  Uiso   1.00
C692   C     0.91487   0.39789   0.83940   0.00000  Uiso   1.00
C693   C     0.92902   0.38958   0.98001   0.00000  Uiso   1.00
C694   C     0.94354   0.34966   0.99854   0.00000  Uiso   1.00
C695   C     0.97014   0.28986   0.08621   0.00000  Uiso   1.00
C696   C     0.86402   0.42611   0.74423   0.00000  Uiso   1.00
C697   C     0.83541   0.44154   0.80481   0.00000  Uiso   1.00
C698   C     0.80711   0.42538   0.74320   0.00000  Uiso   1.00
C699   C     0.75476   0.40942   0.68305   0.00000  Uiso   1.00
C700   C     0.91461   0.45568   0.65108   0.00000  Uiso   1.00
C701   C     0.92853   0.49598   0.63332   0.00000  Uiso   1.00
C702   C     0.94282   0.50473   0.49327   0.00000  Uiso   1.00
C703   C     0.96903   0.53468   0.28849   0.00000  Uiso   1.00
C704   C     0.89830   0.38325   0.57735   0.00000  Uiso   1.00
C705   C     0.91520   0.36740   0.72145   0.00000  Uiso   1.00
C706   C     0.92970   0.32748   0.73975   0.00000  Uiso   1.00
C707   C     0.94387   0.31912   0.88037   0.00000  Uiso   1.00
C708   C     0.86435   0.39562   0.62628   0.00000  Uiso   1.00
C709   C     0.83608   0.37944   0.56456   0.00000  Uiso   1.00
C710   C     0.80744   0.39484   0.62504   0.00000  Uiso   1.00
C711   C     0.91494   0.42520   0.53313   0.00000  Uiso   1.00
C712   C     0.92921   0.43388   0.39307   0.00000  Uiso   1.00
C713   C     0.94315   0.47419   0.37510   0.00000  Uiso   1.00
H714   H     0.89744   0.46312   0.88634   0.00000  Uiso   1.00
H715   H     0.92876   0.41318   0.07127   0.00000  Uiso   1.00
H716   H     0.83516   0.46513   0.89608   0.00000  Uiso   1.00
H717   H     0.92827   0.51957   0.72463   0.00000  Uiso   1.00
H718   H     0.96363   0.34437   0.22431   0.00000  Uiso   1.00
H719   H     0.76627   0.45392   0.85488   0.00000  Uiso   1.00
H720   H     0.96261   0.56871   0.49333   0.00000  Uiso   1.00
H721   H     0.89856   0.35952   0.48551   0.00000  Uiso   1.00
H722   H     0.92995   0.30390   0.64846   0.00000  Uiso   1.00
H723   H     0.83635   0.35585   0.47327   0.00000  Uiso   1.00
H724   H     0.92946   0.41028   0.30182   0.00000  Uiso   1.00
H725   H     0.96459   0.25567   0.88114   0.00000  Uiso   1.00
H726   H     0.76723   0.36523   0.51171   0.00000  Uiso   1.00
H727   H     0.96357   0.48001   0.15016   0.00000  Uiso   1.00
O728   O     0.98473   0.26529   0.16716   0.00000  Uiso   1.00
O729   O     0.72580   0.40903   0.68247   0.00000  Uiso   1.00
O730   O     0.98339   0.55963   0.20813   0.00000  Uiso   1.00
N731   N     0.95955   0.33113   0.12117   0.00000  Uiso   1.00
N732   N     0.77503   0.43355   0.77580   0.00000  Uiso   1.00
N733   N     0.95858   0.54087   0.43776   0.00000  Uiso   1.00
N734   N     0.96007   0.28340   0.93651   0.00000  Uiso   1.00
N735   N     0.77555   0.38582   0.59114   0.00000  Uiso   1.00
N736   N     0.95910   0.49314   0.25310   0.00000  Uiso   1.00
