data_job_01426
_audit_creation_date              2018-12-19
_audit_creation_method            'Materials Studio'
_symmetry_space_group_name_H-M    'P1'
_symmetry_Int_Tables_number       1
_symmetry_cell_setting            triclinic
loop_
_symmetry_equiv_pos_as_xyz
  x,y,z
_cell_length_a                    25.8800
_cell_length_b                    25.8800
_cell_length_c                    15.6090
_cell_angle_alpha                 90.0000
_cell_angle_beta                  90.0000
_cell_angle_gamma                 90.0000
loop_
_atom_site_label
_atom_site_type_symbol
_atom_site_fract_x
_atom_site_fract_y
_atom_site_fract_z
_atom_site_U_iso_or_equiv
_atom_site_adp_type
_atom_site_occupancy
C1     C     0.35362   0.16738   0.43907   0.00000  Uiso   1.00
C2     C     0.36376   0.16727   0.34283   0.00000  Uiso   1.00
C3     C     0.33529   0.14050   0.28196   0.00000  Uiso   1.00
C4     C     0.35077   0.14541   0.19718   0.00000  Uiso   1.00
C5     C     0.36008   0.14057   0.05125   0.00000  Uiso   1.00
C6     C     0.40376   0.14957   0.48104   0.00000  Uiso   1.00
C7     C     0.40892   0.10791   0.53637   0.00000  Uiso   1.00
C8     C     0.45807   0.09792   0.56795   0.00000  Uiso   1.00
C9     C     0.52947   0.06562   0.63663   0.00000  Uiso   1.00
C10    C     0.34687   0.22389   0.46436   0.00000  Uiso   1.00
C11    C     0.30420   0.24472   0.50568   0.00000  Uiso   1.00
C12    C     0.30546   0.29730   0.52323   0.00000  Uiso   1.00
C13    C     0.28853   0.38039   0.56601   0.00000  Uiso   1.00
C14    C     0.43173   0.22371   0.39677   0.00000  Uiso   1.00
C15    C     0.40618   0.19787   0.31986   0.00000  Uiso   1.00
C16    C     0.42171   0.20282   0.23515   0.00000  Uiso   1.00
C17    C     0.39327   0.17606   0.17416   0.00000  Uiso   1.00
C18    C     0.44618   0.18016   0.45807   0.00000  Uiso   1.00
C19    C     0.49534   0.17024   0.48957   0.00000  Uiso   1.00
C20    C     0.50057   0.12857   0.54493   0.00000  Uiso   1.00
C21    C     0.38929   0.25449   0.44138   0.00000  Uiso   1.00
C22    C     0.39062   0.30705   0.45887   0.00000  Uiso   1.00
C23    C     0.34796   0.32795   0.50021   0.00000  Uiso   1.00
H24    H     0.32059   0.14355   0.45697   0.00000  Uiso   1.00
H25    H     0.30246   0.11682   0.29977   0.00000  Uiso   1.00
H26    H     0.37608   0.08424   0.55415   0.00000  Uiso   1.00
H27    H     0.27138   0.22103   0.52345   0.00000  Uiso   1.00
H28    H     0.30109   0.10066   0.11535   0.00000  Uiso   1.00
H29    H     0.45631   0.03198   0.65176   0.00000  Uiso   1.00
H30    H     0.23552   0.32042   0.58703   0.00000  Uiso   1.00
H31    H     0.46476   0.24753   0.37888   0.00000  Uiso   1.00
H32    H     0.45454   0.22651   0.21739   0.00000  Uiso   1.00
H33    H     0.52816   0.19393   0.47178   0.00000  Uiso   1.00
H34    H     0.42345   0.33071   0.44108   0.00000  Uiso   1.00
H35    H     0.42452   0.18968   0.04850   0.00000  Uiso   1.00
H36    H     0.57974   0.12100   0.58491   0.00000  Uiso   1.00
H37    H     0.35895   0.40944   0.52018   0.00000  Uiso   1.00
O38    O     0.35349   0.12944   0.97710   0.00000  Uiso   1.00
O39    O     0.55714   0.03935   0.68086   0.00000  Uiso   1.00
O40    O     0.26746   0.41777   0.59594   0.00000  Uiso   1.00
N41    N     0.33153   0.12450   0.12178   0.00000  Uiso   1.00
N42    N     0.47666   0.06028   0.62327   0.00000  Uiso   1.00
N43    N     0.27025   0.32995   0.56278   0.00000  Uiso   1.00
N44    N     0.39795   0.17241   0.08580   0.00000  Uiso   1.00
N45    N     0.54308   0.10819   0.58730   0.00000  Uiso   1.00
N46    N     0.33666   0.37786   0.52681   0.00000  Uiso   1.00
C47    C     0.85362   0.66738   0.93907   0.00000  Uiso   1.00
C48    C     0.86376   0.66727   0.84283   0.00000  Uiso   1.00
C49    C     0.83529   0.64050   0.78196   0.00000  Uiso   1.00
C50    C     0.85077   0.64541   0.69718   0.00000  Uiso   1.00
C51    C     0.86008   0.64057   0.55125   0.00000  Uiso   1.00
C52    C     0.90376   0.64957   0.98104   0.00000  Uiso   1.00
C53    C     0.90892   0.60791   0.03637   0.00000  Uiso   1.00
C54    C     0.95807   0.59792   0.06795   0.00000  Uiso   1.00
C55    C     0.02947   0.56562   0.13663   0.00000  Uiso   1.00
C56    C     0.84687   0.72389   0.96436   0.00000  Uiso   1.00
C57    C     0.80420   0.74472   0.00568   0.00000  Uiso   1.00
C58    C     0.80546   0.79730   0.02323   0.00000  Uiso   1.00
C59    C     0.78853   0.88039   0.06601   0.00000  Uiso   1.00
C60    C     0.93173   0.72371   0.89677   0.00000  Uiso   1.00
C61    C     0.90618   0.69787   0.81986   0.00000  Uiso   1.00
C62    C     0.92171   0.70282   0.73515   0.00000  Uiso   1.00
C63    C     0.89327   0.67606   0.67416   0.00000  Uiso   1.00
C64    C     0.94618   0.68016   0.95807   0.00000  Uiso   1.00
C65    C     0.99534   0.67024   0.98957   0.00000  Uiso   1.00
C66    C     0.00057   0.62857   0.04493   0.00000  Uiso   1.00
C67    C     0.88929   0.75449   0.94138   0.00000  Uiso   1.00
C68    C     0.89062   0.80705   0.95887   0.00000  Uiso   1.00
C69    C     0.84796   0.82795   0.00021   0.00000  Uiso   1.00
H70    H     0.82059   0.64355   0.95697   0.00000  Uiso   1.00
H71    H     0.80246   0.61682   0.79977   0.00000  Uiso   1.00
H72    H     0.87608   0.58424   0.05415   0.00000  Uiso   1.00
H73    H     0.77138   0.72103   0.02345   0.00000  Uiso   1.00
H74    H     0.80109   0.60066   0.61535   0.00000  Uiso   1.00
H75    H     0.95631   0.53198   0.15176   0.00000  Uiso   1.00
H76    H     0.73552   0.82042   0.08703   0.00000  Uiso   1.00
H77    H     0.96476   0.74753   0.87888   0.00000  Uiso   1.00
H78    H     0.95454   0.72651   0.71739   0.00000  Uiso   1.00
H79    H     0.02816   0.69393   0.97178   0.00000  Uiso   1.00
H80    H     0.92345   0.83071   0.94108   0.00000  Uiso   1.00
H81    H     0.92452   0.68968   0.54850   0.00000  Uiso   1.00
H82    H     0.07974   0.62100   0.08491   0.00000  Uiso   1.00
H83    H     0.85895   0.90944   0.02018   0.00000  Uiso   1.00
O84    O     0.85349   0.62944   0.47710   0.00000  Uiso   1.00
O85    O     0.05714   0.53935   0.18086   0.00000  Uiso   1.00
O86    O     0.76746   0.91777   0.09594   0.00000  Uiso   1.00
N87    N     0.83153   0.62450   0.62178   0.00000  Uiso   1.00
N88    N     0.97666   0.56028   0.12327   0.00000  Uiso   1.00
N89    N     0.77025   0.82995   0.06278   0.00000  Uiso   1.00
N90    N     0.89795   0.67241   0.58580   0.00000  Uiso   1.00
N91    N     0.04308   0.60819   0.08730   0.00000  Uiso   1.00
N92    N     0.83666   0.87786   0.02681   0.00000  Uiso   1.00
C93    C     0.64638   0.83262   0.43907   0.00000  Uiso   1.00
C94    C     0.63624   0.83273   0.34283   0.00000  Uiso   1.00
C95    C     0.66471   0.85950   0.28196   0.00000  Uiso   1.00
C96    C     0.64923   0.85459   0.19718   0.00000  Uiso   1.00
C97    C     0.63992   0.85943   0.05125   0.00000  Uiso   1.00
C98    C     0.59624   0.85043   0.48104   0.00000  Uiso   1.00
C99    C     0.59108   0.89209   0.53637   0.00000  Uiso   1.00
C100   C     0.54193   0.90208   0.56795   0.00000  Uiso   1.00
C101   C     0.47053   0.93438   0.63663   0.00000  Uiso   1.00
C102   C     0.65313   0.77611   0.46436   0.00000  Uiso   1.00
C103   C     0.69580   0.75528   0.50568   0.00000  Uiso   1.00
C104   C     0.69454   0.70270   0.52323   0.00000  Uiso   1.00
C105   C     0.71147   0.61961   0.56601   0.00000  Uiso   1.00
C106   C     0.56827   0.77629   0.39677   0.00000  Uiso   1.00
C107   C     0.59382   0.80213   0.31986   0.00000  Uiso   1.00
C108   C     0.57829   0.79718   0.23515   0.00000  Uiso   1.00
C109   C     0.60673   0.82394   0.17416   0.00000  Uiso   1.00
C110   C     0.55382   0.81984   0.45807   0.00000  Uiso   1.00
C111   C     0.50466   0.82976   0.48957   0.00000  Uiso   1.00
C112   C     0.49943   0.87143   0.54493   0.00000  Uiso   1.00
C113   C     0.61071   0.74551   0.44138   0.00000  Uiso   1.00
C114   C     0.60938   0.69295   0.45887   0.00000  Uiso   1.00
C115   C     0.65204   0.67205   0.50021   0.00000  Uiso   1.00
H116   H     0.67941   0.85645   0.45697   0.00000  Uiso   1.00
H117   H     0.69754   0.88318   0.29977   0.00000  Uiso   1.00
H118   H     0.62392   0.91576   0.55415   0.00000  Uiso   1.00
H119   H     0.72862   0.77897   0.52345   0.00000  Uiso   1.00
H120   H     0.69891   0.89934   0.11535   0.00000  Uiso   1.00
H121   H     0.54369   0.96802   0.65176   0.00000  Uiso   1.00
H122   H     0.76448   0.67958   0.58703   0.00000  Uiso   1.00
H123   H     0.53524   0.75247   0.37888   0.00000  Uiso   1.00
H124   H     0.54546   0.77349   0.21739   0.00000  Uiso   1.00
H125   H     0.47184   0.80607   0.47178   0.00000  Uiso   1.00
H126   H     0.57655   0.66929   0.44108   0.00000  Uiso   1.00
H127   H     0.57548   0.81032   0.04850   0.00000  Uiso   1.00
H128   H     0.42026   0.87900   0.58491   0.00000  Uiso   1.00
H129   H     0.64105   0.59056   0.52018   0.00000  Uiso   1.00
O130   O     0.64651   0.87056   0.97710   0.00000  Uiso   1.00
O131   O     0.44286   0.96065   0.68086   0.00000  Uiso   1.00
O132   O     0.73254   0.58223   0.59594   0.00000  Uiso   1.00
N133   N     0.66847   0.87550   0.12178   0.00000  Uiso   1.00
N134   N     0.52334   0.93972   0.62327   0.00000  Uiso   1.00
N135   N     0.72975   0.67005   0.56278   0.00000  Uiso   1.00
N136   N     0.60205   0.82759   0.08580   0.00000  Uiso   1.00
N137   N     0.45692   0.89181   0.58730   0.00000  Uiso   1.00
N138   N     0.66334   0.62214   0.52681   0.00000  Uiso   1.00
C139   C     0.14638   0.33262   0.93907   0.00000  Uiso   1.00
C140   C     0.13624   0.33273   0.84283   0.00000  Uiso   1.00
C141   C     0.16471   0.35950   0.78196   0.00000  Uiso   1.00
C142   C     0.14923   0.35459   0.69718   0.00000  Uiso   1.00
C143   C     0.13992   0.35943   0.55125   0.00000  Uiso   1.00
C144   C     0.09624   0.35043   0.98104   0.00000  Uiso   1.00
C145   C     0.09108   0.39209   0.03637   0.00000  Uiso   1.00
C146   C     0.04193   0.40208   0.06795   0.00000  Uiso   1.00
C147   C     0.97053   0.43438   0.13663   0.00000  Uiso   1.00
C148   C     0.15313   0.27611   0.96436   0.00000  Uiso   1.00
C149   C     0.19580   0.25528   0.00568   0.00000  Uiso   1.00
C150   C     0.19454   0.20270   0.02323   0.00000  Uiso   1.00
C151   C     0.21147   0.11961   0.06601   0.00000  Uiso   1.00
C152   C     0.06827   0.27629   0.89677   0.00000  Uiso   1.00
C153   C     0.09382   0.30213   0.81986   0.00000  Uiso   1.00
C154   C     0.07829   0.29718   0.73515   0.00000  Uiso   1.00
C155   C     0.10673   0.32394   0.67416   0.00000  Uiso   1.00
C156   C     0.05382   0.31984   0.95807   0.00000  Uiso   1.00
C157   C     0.00466   0.32976   0.98957   0.00000  Uiso   1.00
C158   C     0.99943   0.37143   0.04493   0.00000  Uiso   1.00
C159   C     0.11071   0.24551   0.94138   0.00000  Uiso   1.00
C160   C     0.10938   0.19295   0.95887   0.00000  Uiso   1.00
C161   C     0.15204   0.17205   0.00021   0.00000  Uiso   1.00
H162   H     0.17941   0.35645   0.95697   0.00000  Uiso   1.00
H163   H     0.19754   0.38318   0.79977   0.00000  Uiso   1.00
H164   H     0.12392   0.41576   0.05415   0.00000  Uiso   1.00
H165   H     0.22862   0.27897   0.02345   0.00000  Uiso   1.00
H166   H     0.19891   0.39934   0.61535   0.00000  Uiso   1.00
H167   H     0.04369   0.46802   0.15176   0.00000  Uiso   1.00
H168   H     0.26448   0.17958   0.08703   0.00000  Uiso   1.00
H169   H     0.03524   0.25247   0.87888   0.00000  Uiso   1.00
H170   H     0.04546   0.27349   0.71739   0.00000  Uiso   1.00
H171   H     0.97184   0.30607   0.97178   0.00000  Uiso   1.00
H172   H     0.07655   0.16929   0.94108   0.00000  Uiso   1.00
H173   H     0.07548   0.31032   0.54850   0.00000  Uiso   1.00
H174   H     0.92026   0.37900   0.08491   0.00000  Uiso   1.00
H175   H     0.14105   0.09056   0.02018   0.00000  Uiso   1.00
O176   O     0.14651   0.37056   0.47710   0.00000  Uiso   1.00
O177   O     0.94286   0.46065   0.18086   0.00000  Uiso   1.00
O178   O     0.23254   0.08223   0.09594   0.00000  Uiso   1.00
N179   N     0.16847   0.37550   0.62178   0.00000  Uiso   1.00
N180   N     0.02334   0.43972   0.12327   0.00000  Uiso   1.00
N181   N     0.22975   0.17005   0.06278   0.00000  Uiso   1.00
N182   N     0.10205   0.32759   0.58580   0.00000  Uiso   1.00
N183   N     0.95692   0.39181   0.08730   0.00000  Uiso   1.00
N184   N     0.16334   0.12214   0.02681   0.00000  Uiso   1.00
C185   C     0.16738   0.64638   0.56093   0.00000  Uiso   1.00
C186   C     0.16727   0.63624   0.65717   0.00000  Uiso   1.00
C187   C     0.14050   0.66471   0.71804   0.00000  Uiso   1.00
C188   C     0.14541   0.64923   0.80282   0.00000  Uiso   1.00
C189   C     0.14057   0.63992   0.94875   0.00000  Uiso   1.00
C190   C     0.14957   0.59624   0.51896   0.00000  Uiso   1.00
C191   C     0.10791   0.59108   0.46363   0.00000  Uiso   1.00
C192   C     0.09792   0.54193   0.43205   0.00000  Uiso   1.00
C193   C     0.06562   0.47053   0.36337   0.00000  Uiso   1.00
C194   C     0.22389   0.65313   0.53564   0.00000  Uiso   1.00
C195   C     0.24472   0.69580   0.49432   0.00000  Uiso   1.00
C196   C     0.29730   0.69454   0.47677   0.00000  Uiso   1.00
C197   C     0.38039   0.71147   0.43399   0.00000  Uiso   1.00
C198   C     0.22371   0.56827   0.60323   0.00000  Uiso   1.00
C199   C     0.19787   0.59382   0.68014   0.00000  Uiso   1.00
C200   C     0.20282   0.57829   0.76485   0.00000  Uiso   1.00
C201   C     0.17606   0.60673   0.82584   0.00000  Uiso   1.00
C202   C     0.18016   0.55382   0.54193   0.00000  Uiso   1.00
C203   C     0.17024   0.50466   0.51043   0.00000  Uiso   1.00
C204   C     0.12857   0.49943   0.45507   0.00000  Uiso   1.00
C205   C     0.25449   0.61071   0.55862   0.00000  Uiso   1.00
C206   C     0.30705   0.60938   0.54113   0.00000  Uiso   1.00
C207   C     0.32795   0.65204   0.49979   0.00000  Uiso   1.00
H208   H     0.14355   0.67941   0.54303   0.00000  Uiso   1.00
H209   H     0.11682   0.69754   0.70023   0.00000  Uiso   1.00
H210   H     0.08424   0.62392   0.44585   0.00000  Uiso   1.00
H211   H     0.22103   0.72862   0.47655   0.00000  Uiso   1.00
H212   H     0.10066   0.69891   0.88465   0.00000  Uiso   1.00
H213   H     0.03198   0.54369   0.34824   0.00000  Uiso   1.00
H214   H     0.32042   0.76448   0.41297   0.00000  Uiso   1.00
H215   H     0.24753   0.53524   0.62112   0.00000  Uiso   1.00
H216   H     0.22651   0.54546   0.78261   0.00000  Uiso   1.00
H217   H     0.19393   0.47184   0.52822   0.00000  Uiso   1.00
H218   H     0.33071   0.57655   0.55892   0.00000  Uiso   1.00
H219   H     0.18968   0.57548   0.95150   0.00000  Uiso   1.00
H220   H     0.12100   0.42026   0.41509   0.00000  Uiso   1.00
H221   H     0.40944   0.64105   0.47982   0.00000  Uiso   1.00
O222   O     0.12944   0.64651   0.02290   0.00000  Uiso   1.00
O223   O     0.03935   0.44286   0.31914   0.00000  Uiso   1.00
O224   O     0.41777   0.73254   0.40406   0.00000  Uiso   1.00
N225   N     0.12450   0.66847   0.87822   0.00000  Uiso   1.00
N226   N     0.06028   0.52334   0.37673   0.00000  Uiso   1.00
N227   N     0.32995   0.72975   0.43722   0.00000  Uiso   1.00
N228   N     0.17241   0.60205   0.91420   0.00000  Uiso   1.00
N229   N     0.10819   0.45692   0.41270   0.00000  Uiso   1.00
N230   N     0.37786   0.66334   0.47319   0.00000  Uiso   1.00
C231   C     0.66738   0.14638   0.06093   0.00000  Uiso   1.00
C232   C     0.66727   0.13624   0.15717   0.00000  Uiso   1.00
C233   C     0.64050   0.16471   0.21804   0.00000  Uiso   1.00
C234   C     0.64541   0.14923   0.30282   0.00000  Uiso   1.00
C235   C     0.64057   0.13992   0.44875   0.00000  Uiso   1.00
C236   C     0.64957   0.09624   0.01896   0.00000  Uiso   1.00
C237   C     0.60791   0.09108   0.96363   0.00000  Uiso   1.00
C238   C     0.59792   0.04193   0.93205   0.00000  Uiso   1.00
C239   C     0.56562   0.97053   0.86337   0.00000  Uiso   1.00
C240   C     0.72389   0.15313   0.03564   0.00000  Uiso   1.00
C241   C     0.74472   0.19580   0.99432   0.00000  Uiso   1.00
C242   C     0.79730   0.19454   0.97677   0.00000  Uiso   1.00
C243   C     0.88039   0.21147   0.93399   0.00000  Uiso   1.00
C244   C     0.72371   0.06827   0.10323   0.00000  Uiso   1.00
C245   C     0.69787   0.09382   0.18014   0.00000  Uiso   1.00
C246   C     0.70282   0.07829   0.26485   0.00000  Uiso   1.00
C247   C     0.67606   0.10673   0.32584   0.00000  Uiso   1.00
C248   C     0.68016   0.05382   0.04193   0.00000  Uiso   1.00
C249   C     0.67024   0.00466   0.01043   0.00000  Uiso   1.00
C250   C     0.62857   0.99943   0.95507   0.00000  Uiso   1.00
C251   C     0.75449   0.11071   0.05862   0.00000  Uiso   1.00
C252   C     0.80705   0.10938   0.04113   0.00000  Uiso   1.00
C253   C     0.82795   0.15204   0.99979   0.00000  Uiso   1.00
H254   H     0.64355   0.17941   0.04303   0.00000  Uiso   1.00
H255   H     0.61682   0.19754   0.20023   0.00000  Uiso   1.00
H256   H     0.58424   0.12392   0.94585   0.00000  Uiso   1.00
H257   H     0.72103   0.22862   0.97655   0.00000  Uiso   1.00
H258   H     0.60066   0.19891   0.38465   0.00000  Uiso   1.00
H259   H     0.53198   0.04369   0.84824   0.00000  Uiso   1.00
H260   H     0.82042   0.26448   0.91297   0.00000  Uiso   1.00
H261   H     0.74753   0.03524   0.12112   0.00000  Uiso   1.00
H262   H     0.72651   0.04546   0.28261   0.00000  Uiso   1.00
H263   H     0.69393   0.97184   0.02822   0.00000  Uiso   1.00
H264   H     0.83071   0.07655   0.05892   0.00000  Uiso   1.00
H265   H     0.68968   0.07548   0.45150   0.00000  Uiso   1.00
H266   H     0.62100   0.92026   0.91509   0.00000  Uiso   1.00
H267   H     0.90944   0.14105   0.97982   0.00000  Uiso   1.00
O268   O     0.62944   0.14651   0.52290   0.00000  Uiso   1.00
O269   O     0.53935   0.94286   0.81914   0.00000  Uiso   1.00
O270   O     0.91777   0.23254   0.90406   0.00000  Uiso   1.00
N271   N     0.62450   0.16847   0.37822   0.00000  Uiso   1.00
N272   N     0.56028   0.02334   0.87673   0.00000  Uiso   1.00
N273   N     0.82995   0.22975   0.93722   0.00000  Uiso   1.00
N274   N     0.67241   0.10205   0.41420   0.00000  Uiso   1.00
N275   N     0.60819   0.95692   0.91270   0.00000  Uiso   1.00
N276   N     0.87786   0.16334   0.97319   0.00000  Uiso   1.00
C277   C     0.83262   0.35362   0.56093   0.00000  Uiso   1.00
C278   C     0.83273   0.36376   0.65717   0.00000  Uiso   1.00
C279   C     0.85950   0.33529   0.71804   0.00000  Uiso   1.00
C280   C     0.85459   0.35077   0.80282   0.00000  Uiso   1.00
C281   C     0.85943   0.36008   0.94875   0.00000  Uiso   1.00
C282   C     0.85043   0.40376   0.51896   0.00000  Uiso   1.00
C283   C     0.89209   0.40892   0.46363   0.00000  Uiso   1.00
C284   C     0.90208   0.45807   0.43205   0.00000  Uiso   1.00
C285   C     0.93438   0.52947   0.36337   0.00000  Uiso   1.00
C286   C     0.77611   0.34687   0.53564   0.00000  Uiso   1.00
C287   C     0.75528   0.30420   0.49432   0.00000  Uiso   1.00
C288   C     0.70270   0.30546   0.47677   0.00000  Uiso   1.00
C289   C     0.61961   0.28853   0.43399   0.00000  Uiso   1.00
C290   C     0.77629   0.43173   0.60323   0.00000  Uiso   1.00
C291   C     0.80213   0.40618   0.68014   0.00000  Uiso   1.00
C292   C     0.79718   0.42171   0.76485   0.00000  Uiso   1.00
C293   C     0.82394   0.39327   0.82584   0.00000  Uiso   1.00
C294   C     0.81984   0.44618   0.54193   0.00000  Uiso   1.00
C295   C     0.82976   0.49534   0.51043   0.00000  Uiso   1.00
C296   C     0.87143   0.50057   0.45507   0.00000  Uiso   1.00
C297   C     0.74551   0.38929   0.55862   0.00000  Uiso   1.00
C298   C     0.69295   0.39062   0.54113   0.00000  Uiso   1.00
C299   C     0.67205   0.34796   0.49979   0.00000  Uiso   1.00
H300   H     0.85645   0.32059   0.54303   0.00000  Uiso   1.00
H301   H     0.88318   0.30246   0.70023   0.00000  Uiso   1.00
H302   H     0.91576   0.37608   0.44585   0.00000  Uiso   1.00
H303   H     0.77897   0.27138   0.47655   0.00000  Uiso   1.00
H304   H     0.89934   0.30109   0.88465   0.00000  Uiso   1.00
H305   H     0.96802   0.45631   0.34824   0.00000  Uiso   1.00
H306   H     0.67958   0.23552   0.41297   0.00000  Uiso   1.00
H307   H     0.75247   0.46476   0.62112   0.00000  Uiso   1.00
H308   H     0.77349   0.45454   0.78261   0.00000  Uiso   1.00
H309   H     0.80607   0.52816   0.52822   0.00000  Uiso   1.00
H310   H     0.66929   0.42345   0.55892   0.00000  Uiso   1.00
H311   H     0.81032   0.42452   0.95150   0.00000  Uiso   1.00
H312   H     0.87900   0.57974   0.41509   0.00000  Uiso   1.00
H313   H     0.59056   0.35895   0.47982   0.00000  Uiso   1.00
O314   O     0.87056   0.35349   0.02290   0.00000  Uiso   1.00
O315   O     0.96065   0.55714   0.31914   0.00000  Uiso   1.00
O316   O     0.58223   0.26746   0.40406   0.00000  Uiso   1.00
N317   N     0.87550   0.33153   0.87822   0.00000  Uiso   1.00
N318   N     0.93972   0.47666   0.37673   0.00000  Uiso   1.00
N319   N     0.67005   0.27025   0.43722   0.00000  Uiso   1.00
N320   N     0.82759   0.39795   0.91420   0.00000  Uiso   1.00
N321   N     0.89181   0.54308   0.41270   0.00000  Uiso   1.00
N322   N     0.62214   0.33666   0.47319   0.00000  Uiso   1.00
C323   C     0.33262   0.85362   0.06093   0.00000  Uiso   1.00
C324   C     0.33273   0.86376   0.15717   0.00000  Uiso   1.00
C325   C     0.35950   0.83529   0.21804   0.00000  Uiso   1.00
C326   C     0.35459   0.85077   0.30282   0.00000  Uiso   1.00
C327   C     0.35943   0.86008   0.44875   0.00000  Uiso   1.00
C328   C     0.35043   0.90376   0.01896   0.00000  Uiso   1.00
C329   C     0.39209   0.90892   0.96363   0.00000  Uiso   1.00
C330   C     0.40208   0.95807   0.93205   0.00000  Uiso   1.00
C331   C     0.43438   0.02947   0.86337   0.00000  Uiso   1.00
C332   C     0.27611   0.84687   0.03564   0.00000  Uiso   1.00
C333   C     0.25528   0.80420   0.99432   0.00000  Uiso   1.00
C334   C     0.20270   0.80546   0.97677   0.00000  Uiso   1.00
C335   C     0.11961   0.78853   0.93399   0.00000  Uiso   1.00
C336   C     0.27629   0.93173   0.10323   0.00000  Uiso   1.00
C337   C     0.30213   0.90618   0.18014   0.00000  Uiso   1.00
C338   C     0.29718   0.92171   0.26485   0.00000  Uiso   1.00
C339   C     0.32394   0.89327   0.32584   0.00000  Uiso   1.00
C340   C     0.31984   0.94618   0.04193   0.00000  Uiso   1.00
C341   C     0.32976   0.99534   0.01043   0.00000  Uiso   1.00
C342   C     0.37143   0.00057   0.95507   0.00000  Uiso   1.00
C343   C     0.24551   0.88929   0.05862   0.00000  Uiso   1.00
C344   C     0.19295   0.89062   0.04113   0.00000  Uiso   1.00
C345   C     0.17205   0.84796   0.99979   0.00000  Uiso   1.00
H346   H     0.35645   0.82059   0.04303   0.00000  Uiso   1.00
H347   H     0.38318   0.80246   0.20023   0.00000  Uiso   1.00
H348   H     0.41576   0.87608   0.94585   0.00000  Uiso   1.00
H349   H     0.27897   0.77138   0.97655   0.00000  Uiso   1.00
H350   H     0.39934   0.80109   0.38465   0.00000  Uiso   1.00
H351   H     0.46802   0.95631   0.84824   0.00000  Uiso   1.00
H352   H     0.17958   0.73552   0.91297   0.00000  Uiso   1.00
H353   H     0.25247   0.96476   0.12112   0.00000  Uiso   1.00
H354   H     0.27349   0.95454   0.28261   0.00000  Uiso   1.00
H355   H     0.30607   0.02816   0.02822   0.00000  Uiso   1.00
H356   H     0.16929   0.92345   0.05892   0.00000  Uiso   1.00
H357   H     0.31032   0.92452   0.45150   0.00000  Uiso   1.00
H358   H     0.37900   0.07974   0.91509   0.00000  Uiso   1.00
H359   H     0.09056   0.85895   0.97982   0.00000  Uiso   1.00
O360   O     0.37056   0.85349   0.52290   0.00000  Uiso   1.00
O361   O     0.46065   0.05714   0.81914   0.00000  Uiso   1.00
O362   O     0.08223   0.76746   0.90406   0.00000  Uiso   1.00
N363   N     0.37550   0.83153   0.37822   0.00000  Uiso   1.00
N364   N     0.43972   0.97666   0.87673   0.00000  Uiso   1.00
N365   N     0.17005   0.77025   0.93722   0.00000  Uiso   1.00
N366   N     0.32759   0.89795   0.41420   0.00000  Uiso   1.00
N367   N     0.39181   0.04308   0.91270   0.00000  Uiso   1.00
N368   N     0.12214   0.83666   0.97319   0.00000  Uiso   1.00
C369   C     0.14638   0.16738   0.31093   0.00000  Uiso   1.00
C370   C     0.13624   0.16727   0.40717   0.00000  Uiso   1.00
C371   C     0.16471   0.14050   0.46804   0.00000  Uiso   1.00
C372   C     0.14923   0.14541   0.55282   0.00000  Uiso   1.00
C373   C     0.13992   0.14057   0.69875   0.00000  Uiso   1.00
C374   C     0.09624   0.14957   0.26896   0.00000  Uiso   1.00
C375   C     0.09108   0.10791   0.21363   0.00000  Uiso   1.00
C376   C     0.04193   0.09792   0.18205   0.00000  Uiso   1.00
C377   C     0.97053   0.06562   0.11337   0.00000  Uiso   1.00
C378   C     0.15313   0.22389   0.28564   0.00000  Uiso   1.00
C379   C     0.19580   0.24472   0.24432   0.00000  Uiso   1.00
C380   C     0.19454   0.29730   0.22677   0.00000  Uiso   1.00
C381   C     0.21147   0.38039   0.18399   0.00000  Uiso   1.00
C382   C     0.06827   0.22371   0.35323   0.00000  Uiso   1.00
C383   C     0.09382   0.19787   0.43014   0.00000  Uiso   1.00
C384   C     0.07829   0.20282   0.51485   0.00000  Uiso   1.00
C385   C     0.10673   0.17606   0.57584   0.00000  Uiso   1.00
C386   C     0.05382   0.18016   0.29193   0.00000  Uiso   1.00
C387   C     0.00466   0.17024   0.26043   0.00000  Uiso   1.00
C388   C     0.99943   0.12857   0.20507   0.00000  Uiso   1.00
C389   C     0.11071   0.25449   0.30862   0.00000  Uiso   1.00
C390   C     0.10938   0.30705   0.29113   0.00000  Uiso   1.00
C391   C     0.15204   0.32795   0.24979   0.00000  Uiso   1.00
H392   H     0.17941   0.14355   0.29303   0.00000  Uiso   1.00
H393   H     0.19754   0.11682   0.45023   0.00000  Uiso   1.00
H394   H     0.12392   0.08424   0.19585   0.00000  Uiso   1.00
H395   H     0.22862   0.22103   0.22655   0.00000  Uiso   1.00
H396   H     0.19891   0.10066   0.63465   0.00000  Uiso   1.00
H397   H     0.04369   0.03198   0.09824   0.00000  Uiso   1.00
H398   H     0.26448   0.32042   0.16297   0.00000  Uiso   1.00
H399   H     0.03524   0.24753   0.37112   0.00000  Uiso   1.00
H400   H     0.04546   0.22651   0.53261   0.00000  Uiso   1.00
H401   H     0.97184   0.19393   0.27822   0.00000  Uiso   1.00
H402   H     0.07655   0.33071   0.30892   0.00000  Uiso   1.00
H403   H     0.07548   0.18968   0.70150   0.00000  Uiso   1.00
H404   H     0.92026   0.12100   0.16509   0.00000  Uiso   1.00
H405   H     0.14105   0.40944   0.22982   0.00000  Uiso   1.00
O406   O     0.14651   0.12944   0.77290   0.00000  Uiso   1.00
O407   O     0.94286   0.03935   0.06914   0.00000  Uiso   1.00
O408   O     0.23254   0.41777   0.15406   0.00000  Uiso   1.00
N409   N     0.16847   0.12450   0.62822   0.00000  Uiso   1.00
N410   N     0.02334   0.06028   0.12673   0.00000  Uiso   1.00
N411   N     0.22975   0.32995   0.18722   0.00000  Uiso   1.00
N412   N     0.10205   0.17241   0.66420   0.00000  Uiso   1.00
N413   N     0.95692   0.10819   0.16270   0.00000  Uiso   1.00
N414   N     0.16334   0.37786   0.22319   0.00000  Uiso   1.00
C415   C     0.64638   0.66738   0.81093   0.00000  Uiso   1.00
C416   C     0.63624   0.66727   0.90717   0.00000  Uiso   1.00
C417   C     0.66471   0.64050   0.96804   0.00000  Uiso   1.00
C418   C     0.64923   0.64541   0.05282   0.00000  Uiso   1.00
C419   C     0.63992   0.64057   0.19875   0.00000  Uiso   1.00
C420   C     0.59624   0.64957   0.76896   0.00000  Uiso   1.00
C421   C     0.59108   0.60791   0.71363   0.00000  Uiso   1.00
C422   C     0.54193   0.59792   0.68205   0.00000  Uiso   1.00
C423   C     0.47053   0.56562   0.61337   0.00000  Uiso   1.00
C424   C     0.65313   0.72389   0.78564   0.00000  Uiso   1.00
C425   C     0.69580   0.74472   0.74432   0.00000  Uiso   1.00
C426   C     0.69454   0.79730   0.72677   0.00000  Uiso   1.00
C427   C     0.71147   0.88039   0.68399   0.00000  Uiso   1.00
C428   C     0.56827   0.72371   0.85323   0.00000  Uiso   1.00
C429   C     0.59382   0.69787   0.93014   0.00000  Uiso   1.00
C430   C     0.57829   0.70282   0.01485   0.00000  Uiso   1.00
C431   C     0.60673   0.67606   0.07584   0.00000  Uiso   1.00
C432   C     0.55382   0.68016   0.79193   0.00000  Uiso   1.00
C433   C     0.50466   0.67024   0.76043   0.00000  Uiso   1.00
C434   C     0.49943   0.62857   0.70507   0.00000  Uiso   1.00
C435   C     0.61071   0.75449   0.80862   0.00000  Uiso   1.00
C436   C     0.60938   0.80705   0.79113   0.00000  Uiso   1.00
C437   C     0.65204   0.82795   0.74979   0.00000  Uiso   1.00
H438   H     0.67941   0.64355   0.79303   0.00000  Uiso   1.00
H439   H     0.69754   0.61682   0.95023   0.00000  Uiso   1.00
H440   H     0.62392   0.58424   0.69585   0.00000  Uiso   1.00
H441   H     0.72862   0.72103   0.72655   0.00000  Uiso   1.00
H442   H     0.69891   0.60066   0.13465   0.00000  Uiso   1.00
H443   H     0.54369   0.53198   0.59824   0.00000  Uiso   1.00
H444   H     0.76448   0.82042   0.66297   0.00000  Uiso   1.00
H445   H     0.53524   0.74753   0.87112   0.00000  Uiso   1.00
H446   H     0.54546   0.72651   0.03261   0.00000  Uiso   1.00
H447   H     0.47184   0.69393   0.77822   0.00000  Uiso   1.00
H448   H     0.57655   0.83071   0.80892   0.00000  Uiso   1.00
H449   H     0.57548   0.68968   0.20150   0.00000  Uiso   1.00
H450   H     0.42026   0.62100   0.66509   0.00000  Uiso   1.00
H451   H     0.64105   0.90944   0.72982   0.00000  Uiso   1.00
O452   O     0.64651   0.62944   0.27290   0.00000  Uiso   1.00
O453   O     0.44286   0.53935   0.56914   0.00000  Uiso   1.00
O454   O     0.73254   0.91777   0.65406   0.00000  Uiso   1.00
N455   N     0.66847   0.62450   0.12822   0.00000  Uiso   1.00
N456   N     0.52334   0.56028   0.62673   0.00000  Uiso   1.00
N457   N     0.72975   0.82995   0.68722   0.00000  Uiso   1.00
N458   N     0.60205   0.67241   0.16420   0.00000  Uiso   1.00
N459   N     0.45692   0.60819   0.66270   0.00000  Uiso   1.00
N460   N     0.66334   0.87786   0.72319   0.00000  Uiso   1.00
C461   C     0.85362   0.83262   0.31093   0.00000  Uiso   1.00
C462   C     0.86376   0.83273   0.40717   0.00000  Uiso   1.00
C463   C     0.83529   0.85950   0.46804   0.00000  Uiso   1.00
C464   C     0.85077   0.85459   0.55282   0.00000  Uiso   1.00
C465   C     0.86008   0.85943   0.69875   0.00000  Uiso   1.00
C466   C     0.90376   0.85043   0.26896   0.00000  Uiso   1.00
C467   C     0.90892   0.89209   0.21363   0.00000  Uiso   1.00
C468   C     0.95807   0.90208   0.18205   0.00000  Uiso   1.00
C469   C     0.02947   0.93438   0.11337   0.00000  Uiso   1.00
C470   C     0.84687   0.77611   0.28564   0.00000  Uiso   1.00
C471   C     0.80420   0.75528   0.24432   0.00000  Uiso   1.00
C472   C     0.80546   0.70270   0.22677   0.00000  Uiso   1.00
C473   C     0.78853   0.61961   0.18399   0.00000  Uiso   1.00
C474   C     0.93173   0.77629   0.35323   0.00000  Uiso   1.00
C475   C     0.90618   0.80213   0.43014   0.00000  Uiso   1.00
C476   C     0.92171   0.79718   0.51485   0.00000  Uiso   1.00
C477   C     0.89327   0.82394   0.57584   0.00000  Uiso   1.00
C478   C     0.94618   0.81984   0.29193   0.00000  Uiso   1.00
C479   C     0.99534   0.82976   0.26043   0.00000  Uiso   1.00
C480   C     0.00057   0.87143   0.20507   0.00000  Uiso   1.00
C481   C     0.88929   0.74551   0.30862   0.00000  Uiso   1.00
C482   C     0.89062   0.69295   0.29113   0.00000  Uiso   1.00
C483   C     0.84796   0.67205   0.24979   0.00000  Uiso   1.00
H484   H     0.82059   0.85645   0.29303   0.00000  Uiso   1.00
H485   H     0.80246   0.88318   0.45023   0.00000  Uiso   1.00
H486   H     0.87608   0.91576   0.19585   0.00000  Uiso   1.00
H487   H     0.77138   0.77897   0.22655   0.00000  Uiso   1.00
H488   H     0.80109   0.89934   0.63465   0.00000  Uiso   1.00
H489   H     0.95631   0.96802   0.09824   0.00000  Uiso   1.00
H490   H     0.73552   0.67958   0.16297   0.00000  Uiso   1.00
H491   H     0.96476   0.75247   0.37112   0.00000  Uiso   1.00
H492   H     0.95454   0.77349   0.53261   0.00000  Uiso   1.00
H493   H     0.02816   0.80607   0.27822   0.00000  Uiso   1.00
H494   H     0.92345   0.66929   0.30892   0.00000  Uiso   1.00
H495   H     0.92452   0.81032   0.70150   0.00000  Uiso   1.00
H496   H     0.07974   0.87900   0.16509   0.00000  Uiso   1.00
H497   H     0.85895   0.59056   0.22982   0.00000  Uiso   1.00
O498   O     0.85349   0.87056   0.77290   0.00000  Uiso   1.00
O499   O     0.05714   0.96065   0.06914   0.00000  Uiso   1.00
O500   O     0.76746   0.58223   0.15406   0.00000  Uiso   1.00
N501   N     0.83153   0.87550   0.62822   0.00000  Uiso   1.00
N502   N     0.97666   0.93972   0.12673   0.00000  Uiso   1.00
N503   N     0.77025   0.67005   0.18722   0.00000  Uiso   1.00
N504   N     0.89795   0.82759   0.66420   0.00000  Uiso   1.00
N505   N     0.04308   0.89181   0.16270   0.00000  Uiso   1.00
N506   N     0.83666   0.62214   0.22319   0.00000  Uiso   1.00
C507   C     0.35362   0.33262   0.81093   0.00000  Uiso   1.00
C508   C     0.36376   0.33273   0.90717   0.00000  Uiso   1.00
C509   C     0.33529   0.35950   0.96804   0.00000  Uiso   1.00
C510   C     0.35077   0.35459   0.05282   0.00000  Uiso   1.00
C511   C     0.36008   0.35943   0.19875   0.00000  Uiso   1.00
C512   C     0.40376   0.35043   0.76896   0.00000  Uiso   1.00
C513   C     0.40892   0.39209   0.71363   0.00000  Uiso   1.00
C514   C     0.45807   0.40208   0.68205   0.00000  Uiso   1.00
C515   C     0.52947   0.43438   0.61337   0.00000  Uiso   1.00
C516   C     0.34687   0.27611   0.78564   0.00000  Uiso   1.00
C517   C     0.30420   0.25528   0.74432   0.00000  Uiso   1.00
C518   C     0.30546   0.20270   0.72677   0.00000  Uiso   1.00
C519   C     0.28853   0.11961   0.68399   0.00000  Uiso   1.00
C520   C     0.43173   0.27629   0.85323   0.00000  Uiso   1.00
C521   C     0.40618   0.30213   0.93014   0.00000  Uiso   1.00
C522   C     0.42171   0.29718   0.01485   0.00000  Uiso   1.00
C523   C     0.39327   0.32394   0.07584   0.00000  Uiso   1.00
C524   C     0.44618   0.31984   0.79193   0.00000  Uiso   1.00
C525   C     0.49534   0.32976   0.76043   0.00000  Uiso   1.00
C526   C     0.50057   0.37143   0.70507   0.00000  Uiso   1.00
C527   C     0.38929   0.24551   0.80862   0.00000  Uiso   1.00
C528   C     0.39062   0.19295   0.79113   0.00000  Uiso   1.00
C529   C     0.34796   0.17205   0.74979   0.00000  Uiso   1.00
H530   H     0.32059   0.35645   0.79303   0.00000  Uiso   1.00
H531   H     0.30246   0.38318   0.95023   0.00000  Uiso   1.00
H532   H     0.37608   0.41576   0.69585   0.00000  Uiso   1.00
H533   H     0.27138   0.27897   0.72655   0.00000  Uiso   1.00
H534   H     0.30109   0.39934   0.13465   0.00000  Uiso   1.00
H535   H     0.45631   0.46802   0.59824   0.00000  Uiso   1.00
H536   H     0.23552   0.17958   0.66297   0.00000  Uiso   1.00
H537   H     0.46476   0.25247   0.87112   0.00000  Uiso   1.00
H538   H     0.45454   0.27349   0.03261   0.00000  Uiso   1.00
H539   H     0.52816   0.30607   0.77822   0.00000  Uiso   1.00
H540   H     0.42345   0.16929   0.80892   0.00000  Uiso   1.00
H541   H     0.42452   0.31032   0.20150   0.00000  Uiso   1.00
H542   H     0.57974   0.37900   0.66509   0.00000  Uiso   1.00
H543   H     0.35895   0.09056   0.72982   0.00000  Uiso   1.00
O544   O     0.35349   0.37056   0.27290   0.00000  Uiso   1.00
O545   O     0.55714   0.46065   0.56914   0.00000  Uiso   1.00
O546   O     0.26746   0.08223   0.65406   0.00000  Uiso   1.00
N547   N     0.33153   0.37550   0.12822   0.00000  Uiso   1.00
N548   N     0.47666   0.43972   0.62673   0.00000  Uiso   1.00
N549   N     0.27025   0.17005   0.68722   0.00000  Uiso   1.00
N550   N     0.39795   0.32759   0.16420   0.00000  Uiso   1.00
N551   N     0.54308   0.39181   0.66270   0.00000  Uiso   1.00
N552   N     0.33666   0.12214   0.72319   0.00000  Uiso   1.00
C553   C     0.33262   0.64638   0.18907   0.00000  Uiso   1.00
C554   C     0.33273   0.63624   0.09283   0.00000  Uiso   1.00
C555   C     0.35950   0.66471   0.03196   0.00000  Uiso   1.00
C556   C     0.35459   0.64923   0.94718   0.00000  Uiso   1.00
C557   C     0.35943   0.63992   0.80125   0.00000  Uiso   1.00
C558   C     0.35043   0.59624   0.23104   0.00000  Uiso   1.00
C559   C     0.39209   0.59108   0.28637   0.00000  Uiso   1.00
C560   C     0.40208   0.54193   0.31795   0.00000  Uiso   1.00
C561   C     0.43438   0.47053   0.38663   0.00000  Uiso   1.00
C562   C     0.27611   0.65313   0.21436   0.00000  Uiso   1.00
C563   C     0.25528   0.69580   0.25568   0.00000  Uiso   1.00
C564   C     0.20270   0.69454   0.27323   0.00000  Uiso   1.00
C565   C     0.11961   0.71147   0.31601   0.00000  Uiso   1.00
C566   C     0.27629   0.56827   0.14677   0.00000  Uiso   1.00
C567   C     0.30213   0.59382   0.06986   0.00000  Uiso   1.00
C568   C     0.29718   0.57829   0.98515   0.00000  Uiso   1.00
C569   C     0.32394   0.60673   0.92416   0.00000  Uiso   1.00
C570   C     0.31984   0.55382   0.20807   0.00000  Uiso   1.00
C571   C     0.32976   0.50466   0.23957   0.00000  Uiso   1.00
C572   C     0.37143   0.49943   0.29493   0.00000  Uiso   1.00
C573   C     0.24551   0.61071   0.19138   0.00000  Uiso   1.00
C574   C     0.19295   0.60938   0.20887   0.00000  Uiso   1.00
C575   C     0.17205   0.65204   0.25021   0.00000  Uiso   1.00
H576   H     0.35645   0.67941   0.20697   0.00000  Uiso   1.00
H577   H     0.38318   0.69754   0.04977   0.00000  Uiso   1.00
H578   H     0.41576   0.62392   0.30415   0.00000  Uiso   1.00
H579   H     0.27897   0.72862   0.27345   0.00000  Uiso   1.00
H580   H     0.39934   0.69891   0.86535   0.00000  Uiso   1.00
H581   H     0.46802   0.54369   0.40176   0.00000  Uiso   1.00
H582   H     0.17958   0.76448   0.33703   0.00000  Uiso   1.00
H583   H     0.25247   0.53524   0.12888   0.00000  Uiso   1.00
H584   H     0.27349   0.54546   0.96739   0.00000  Uiso   1.00
H585   H     0.30607   0.47184   0.22178   0.00000  Uiso   1.00
H586   H     0.16929   0.57655   0.19108   0.00000  Uiso   1.00
H587   H     0.31032   0.57548   0.79850   0.00000  Uiso   1.00
H588   H     0.37900   0.42026   0.33491   0.00000  Uiso   1.00
H589   H     0.09056   0.64105   0.27018   0.00000  Uiso   1.00
O590   O     0.37056   0.64651   0.72710   0.00000  Uiso   1.00
O591   O     0.46065   0.44286   0.43086   0.00000  Uiso   1.00
O592   O     0.08223   0.73254   0.34594   0.00000  Uiso   1.00
N593   N     0.37550   0.66847   0.87178   0.00000  Uiso   1.00
N594   N     0.43972   0.52334   0.37327   0.00000  Uiso   1.00
N595   N     0.17005   0.72975   0.31278   0.00000  Uiso   1.00
N596   N     0.32759   0.60205   0.83580   0.00000  Uiso   1.00
N597   N     0.39181   0.45692   0.33730   0.00000  Uiso   1.00
N598   N     0.12214   0.66334   0.27681   0.00000  Uiso   1.00
C599   C     0.83262   0.14638   0.68907   0.00000  Uiso   1.00
C600   C     0.83273   0.13624   0.59283   0.00000  Uiso   1.00
C601   C     0.85950   0.16471   0.53196   0.00000  Uiso   1.00
C602   C     0.85459   0.14923   0.44718   0.00000  Uiso   1.00
C603   C     0.85943   0.13992   0.30125   0.00000  Uiso   1.00
C604   C     0.85043   0.09624   0.73104   0.00000  Uiso   1.00
C605   C     0.89209   0.09108   0.78637   0.00000  Uiso   1.00
C606   C     0.90208   0.04193   0.81795   0.00000  Uiso   1.00
C607   C     0.93438   0.97053   0.88663   0.00000  Uiso   1.00
C608   C     0.77611   0.15313   0.71436   0.00000  Uiso   1.00
C609   C     0.75528   0.19580   0.75568   0.00000  Uiso   1.00
C610   C     0.70270   0.19454   0.77323   0.00000  Uiso   1.00
C611   C     0.61961   0.21147   0.81601   0.00000  Uiso   1.00
C612   C     0.77629   0.06827   0.64677   0.00000  Uiso   1.00
C613   C     0.80213   0.09382   0.56986   0.00000  Uiso   1.00
C614   C     0.79718   0.07829   0.48515   0.00000  Uiso   1.00
C615   C     0.82394   0.10673   0.42416   0.00000  Uiso   1.00
C616   C     0.81984   0.05382   0.70807   0.00000  Uiso   1.00
C617   C     0.82976   0.00466   0.73957   0.00000  Uiso   1.00
C618   C     0.87143   0.99943   0.79493   0.00000  Uiso   1.00
C619   C     0.74551   0.11071   0.69138   0.00000  Uiso   1.00
C620   C     0.69295   0.10938   0.70887   0.00000  Uiso   1.00
C621   C     0.67205   0.15204   0.75021   0.00000  Uiso   1.00
H622   H     0.85645   0.17941   0.70697   0.00000  Uiso   1.00
H623   H     0.88318   0.19754   0.54977   0.00000  Uiso   1.00
H624   H     0.91576   0.12392   0.80415   0.00000  Uiso   1.00
H625   H     0.77897   0.22862   0.77345   0.00000  Uiso   1.00
H626   H     0.89934   0.19891   0.36535   0.00000  Uiso   1.00
H627   H     0.96802   0.04369   0.90176   0.00000  Uiso   1.00
H628   H     0.67958   0.26448   0.83703   0.00000  Uiso   1.00
H629   H     0.75247   0.03524   0.62888   0.00000  Uiso   1.00
H630   H     0.77349   0.04546   0.46739   0.00000  Uiso   1.00
H631   H     0.80607   0.97184   0.72178   0.00000  Uiso   1.00
H632   H     0.66929   0.07655   0.69108   0.00000  Uiso   1.00
H633   H     0.81032   0.07548   0.29850   0.00000  Uiso   1.00
H634   H     0.87900   0.92026   0.83491   0.00000  Uiso   1.00
H635   H     0.59056   0.14105   0.77018   0.00000  Uiso   1.00
O636   O     0.87056   0.14651   0.22710   0.00000  Uiso   1.00
O637   O     0.96065   0.94286   0.93086   0.00000  Uiso   1.00
O638   O     0.58223   0.23254   0.84594   0.00000  Uiso   1.00
N639   N     0.87550   0.16847   0.37178   0.00000  Uiso   1.00
N640   N     0.93972   0.02334   0.87327   0.00000  Uiso   1.00
N641   N     0.67005   0.22975   0.81278   0.00000  Uiso   1.00
N642   N     0.82759   0.10205   0.33580   0.00000  Uiso   1.00
N643   N     0.89181   0.95692   0.83730   0.00000  Uiso   1.00
N644   N     0.62214   0.16334   0.77681   0.00000  Uiso   1.00
C645   C     0.66738   0.35362   0.18907   0.00000  Uiso   1.00
C646   C     0.66727   0.36376   0.09283   0.00000  Uiso   1.00
C647   C     0.64050   0.33529   0.03196   0.00000  Uiso   1.00
C648   C     0.64541   0.35077   0.94718   0.00000  Uiso   1.00
C649   C     0.64057   0.36008   0.80125   0.00000  Uiso   1.00
C650   C     0.64957   0.40376   0.23104   0.00000  Uiso   1.00
C651   C     0.60791   0.40892   0.28637   0.00000  Uiso   1.00
C652   C     0.59792   0.45807   0.31795   0.00000  Uiso   1.00
C653   C     0.56562   0.52947   0.38663   0.00000  Uiso   1.00
C654   C     0.72389   0.34687   0.21436   0.00000  Uiso   1.00
C655   C     0.74472   0.30420   0.25568   0.00000  Uiso   1.00
C656   C     0.79730   0.30546   0.27323   0.00000  Uiso   1.00
C657   C     0.88039   0.28853   0.31601   0.00000  Uiso   1.00
C658   C     0.72371   0.43173   0.14677   0.00000  Uiso   1.00
C659   C     0.69787   0.40618   0.06986   0.00000  Uiso   1.00
C660   C     0.70282   0.42171   0.98515   0.00000  Uiso   1.00
C661   C     0.67606   0.39327   0.92416   0.00000  Uiso   1.00
C662   C     0.68016   0.44618   0.20807   0.00000  Uiso   1.00
C663   C     0.67024   0.49534   0.23957   0.00000  Uiso   1.00
C664   C     0.62857   0.50057   0.29493   0.00000  Uiso   1.00
C665   C     0.75449   0.38929   0.19138   0.00000  Uiso   1.00
C666   C     0.80705   0.39062   0.20887   0.00000  Uiso   1.00
C667   C     0.82795   0.34796   0.25021   0.00000  Uiso   1.00
H668   H     0.64355   0.32059   0.20697   0.00000  Uiso   1.00
H669   H     0.61682   0.30246   0.04977   0.00000  Uiso   1.00
H670   H     0.58424   0.37608   0.30415   0.00000  Uiso   1.00
H671   H     0.72103   0.27138   0.27345   0.00000  Uiso   1.00
H672   H     0.60066   0.30109   0.86535   0.00000  Uiso   1.00
H673   H     0.53198   0.45631   0.40176   0.00000  Uiso   1.00
H674   H     0.82042   0.23552   0.33703   0.00000  Uiso   1.00
H675   H     0.74753   0.46476   0.12888   0.00000  Uiso   1.00
H676   H     0.72651   0.45454   0.96739   0.00000  Uiso   1.00
H677   H     0.69393   0.52816   0.22178   0.00000  Uiso   1.00
H678   H     0.83071   0.42345   0.19108   0.00000  Uiso   1.00
H679   H     0.68968   0.42452   0.79850   0.00000  Uiso   1.00
H680   H     0.62100   0.57974   0.33491   0.00000  Uiso   1.00
H681   H     0.90944   0.35895   0.27018   0.00000  Uiso   1.00
O682   O     0.62944   0.35349   0.72710   0.00000  Uiso   1.00
O683   O     0.53935   0.55714   0.43086   0.00000  Uiso   1.00
O684   O     0.91777   0.26746   0.34594   0.00000  Uiso   1.00
N685   N     0.62450   0.33153   0.87178   0.00000  Uiso   1.00
N686   N     0.56028   0.47666   0.37327   0.00000  Uiso   1.00
N687   N     0.82995   0.27025   0.31278   0.00000  Uiso   1.00
N688   N     0.67241   0.39795   0.83580   0.00000  Uiso   1.00
N689   N     0.60819   0.54308   0.33730   0.00000  Uiso   1.00
N690   N     0.87786   0.33666   0.27681   0.00000  Uiso   1.00
C691   C     0.16738   0.85362   0.68907   0.00000  Uiso   1.00
C692   C     0.16727   0.86376   0.59283   0.00000  Uiso   1.00
C693   C     0.14050   0.83529   0.53196   0.00000  Uiso   1.00
C694   C     0.14541   0.85077   0.44718   0.00000  Uiso   1.00
C695   C     0.14057   0.86008   0.30125   0.00000  Uiso   1.00
C696   C     0.14957   0.90376   0.73104   0.00000  Uiso   1.00
C697   C     0.10791   0.90892   0.78637   0.00000  Uiso   1.00
C698   C     0.09792   0.95807   0.81795   0.00000  Uiso   1.00
C699   C     0.06562   0.02947   0.88663   0.00000  Uiso   1.00
C700   C     0.22389   0.84687   0.71436   0.00000  Uiso   1.00
C701   C     0.24472   0.80420   0.75568   0.00000  Uiso   1.00
C702   C     0.29730   0.80546   0.77323   0.00000  Uiso   1.00
C703   C     0.38039   0.78853   0.81601   0.00000  Uiso   1.00
C704   C     0.22371   0.93173   0.64677   0.00000  Uiso   1.00
C705   C     0.19787   0.90618   0.56986   0.00000  Uiso   1.00
C706   C     0.20282   0.92171   0.48515   0.00000  Uiso   1.00
C707   C     0.17606   0.89327   0.42416   0.00000  Uiso   1.00
C708   C     0.18016   0.94618   0.70807   0.00000  Uiso   1.00
C709   C     0.17024   0.99534   0.73957   0.00000  Uiso   1.00
C710   C     0.12857   0.00057   0.79493   0.00000  Uiso   1.00
C711   C     0.25449   0.88929   0.69138   0.00000  Uiso   1.00
C712   C     0.30705   0.89062   0.70887   0.00000  Uiso   1.00
C713   C     0.32795   0.84796   0.75021   0.00000  Uiso   1.00
H714   H     0.14355   0.82059   0.70697   0.00000  Uiso   1.00
H715   H     0.11682   0.80246   0.54977   0.00000  Uiso   1.00
H716   H     0.08424   0.87608   0.80415   0.00000  Uiso   1.00
H717   H     0.22103   0.77138   0.77345   0.00000  Uiso   1.00
H718   H     0.10066   0.80109   0.36535   0.00000  Uiso   1.00
H719   H     0.03198   0.95631   0.90176   0.00000  Uiso   1.00
H720   H     0.32042   0.73552   0.83703   0.00000  Uiso   1.00
H721   H     0.24753   0.96476   0.62888   0.00000  Uiso   1.00
H722   H     0.22651   0.95454   0.46739   0.00000  Uiso   1.00
H723   H     0.19393   0.02816   0.72178   0.00000  Uiso   1.00
H724   H     0.33071   0.92345   0.69108   0.00000  Uiso   1.00
H725   H     0.18968   0.92452   0.29850   0.00000  Uiso   1.00
H726   H     0.12100   0.07974   0.83491   0.00000  Uiso   1.00
H727   H     0.40944   0.85895   0.77018   0.00000  Uiso   1.00
O728   O     0.12944   0.85349   0.22710   0.00000  Uiso   1.00
O729   O     0.03935   0.05714   0.93086   0.00000  Uiso   1.00
O730   O     0.41777   0.76746   0.84594   0.00000  Uiso   1.00
N731   N     0.12450   0.83153   0.37178   0.00000  Uiso   1.00
N732   N     0.06028   0.97666   0.87327   0.00000  Uiso   1.00
N733   N     0.32995   0.77025   0.81278   0.00000  Uiso   1.00
N734   N     0.17241   0.89795   0.33580   0.00000  Uiso   1.00
N735   N     0.10819   0.04308   0.83730   0.00000  Uiso   1.00
N736   N     0.37786   0.83666   0.77681   0.00000  Uiso   1.00
