data_job_02016
_audit_creation_date              2018-12-19
_audit_creation_method            'Materials Studio'
_symmetry_space_group_name_H-M    'P1'
_symmetry_Int_Tables_number       1
_symmetry_cell_setting            triclinic
loop_
_symmetry_equiv_pos_as_xyz
  x,y,z
_cell_length_a                    23.0982
_cell_length_b                    23.0982
_cell_length_c                    24.2324
_cell_angle_alpha                 90.0000
_cell_angle_beta                  90.0000
_cell_angle_gamma                 90.0000
loop_
_atom_site_label
_atom_site_type_symbol
_atom_site_fract_x
_atom_site_fract_y
_atom_site_fract_z
_atom_site_U_iso_or_equiv
_atom_site_adp_type
_atom_site_occupancy
C1     C     0.82324   0.31158   0.48223   0.00000  Uiso   1.00
C2     C     0.80924   0.33608   0.42534   0.00000  Uiso   1.00
C3     C     0.75877   0.32614   0.39573   0.00000  Uiso   1.00
C4     C     0.75424   0.35248   0.34442   0.00000  Uiso   1.00
C5     C     0.72577   0.38517   0.25925   0.00000  Uiso   1.00
C6     C     0.88040   0.27920   0.47600   0.00000  Uiso   1.00
C7     C     0.88978   0.22144   0.48901   0.00000  Uiso   1.00
C8     C     0.94516   0.19991   0.48035   0.00000  Uiso   1.00
C9     C     0.02718   0.14432   0.47388   0.00000  Uiso   1.00
C10    C     0.83605   0.36362   0.51896   0.00000  Uiso   1.00
C11    C     0.80815   0.37684   0.56810   0.00000  Uiso   1.00
C12    C     0.82621   0.42638   0.59561   0.00000  Uiso   1.00
C13    C     0.83937   0.50185   0.65584   0.00000  Uiso   1.00
C14    C     0.90492   0.37604   0.44374   0.00000  Uiso   1.00
C15    C     0.85361   0.37109   0.40443   0.00000  Uiso   1.00
C16    C     0.84915   0.39746   0.35315   0.00000  Uiso   1.00
C17    C     0.79869   0.38756   0.32347   0.00000  Uiso   1.00
C18    C     0.92477   0.31422   0.45510   0.00000  Uiso   1.00
C19    C     0.98015   0.29277   0.44642   0.00000  Uiso   1.00
C20    C     0.98961   0.23499   0.45940   0.00000  Uiso   1.00
C21    C     0.88042   0.39864   0.49805   0.00000  Uiso   1.00
C22    C     0.89853   0.44816   0.52550   0.00000  Uiso   1.00
C23    C     0.87066   0.46145   0.57467   0.00000  Uiso   1.00
H24    H     0.78870   0.28431   0.49851   0.00000  Uiso   1.00
H25    H     0.72445   0.29903   0.41193   0.00000  Uiso   1.00
H26    H     0.85543   0.19436   0.50519   0.00000  Uiso   1.00
H27    H     0.77382   0.34973   0.58426   0.00000  Uiso   1.00
H28    H     0.67280   0.33077   0.30671   0.00000  Uiso   1.00
H29    H     0.94899   0.11007   0.50338   0.00000  Uiso   1.00
H30    H     0.77689   0.43770   0.67012   0.00000  Uiso   1.00
H31    H     0.93947   0.40330   0.42746   0.00000  Uiso   1.00
H32    H     0.88350   0.42456   0.33698   0.00000  Uiso   1.00
H33    H     0.01448   0.31988   0.43024   0.00000  Uiso   1.00
H34    H     0.93287   0.47525   0.50931   0.00000  Uiso   1.00
H35    H     0.80189   0.43265   0.24587   0.00000  Uiso   1.00
H36    H     0.07808   0.21195   0.44255   0.00000  Uiso   1.00
H37    H     0.90598   0.53958   0.60928   0.00000  Uiso   1.00
O38    O     0.69781   0.39353   0.21804   0.00000  Uiso   1.00
O39    O     0.06016   0.10398   0.47608   0.00000  Uiso   1.00
O40    O     0.83437   0.53382   0.69483   0.00000  Uiso   1.00
N41    N     0.71085   0.35184   0.30481   0.00000  Uiso   1.00
N42    N     0.96907   0.14549   0.48868   0.00000  Uiso   1.00
N43    N     0.80819   0.45179   0.64457   0.00000  Uiso   1.00
N44    N     0.78032   0.40666   0.27208   0.00000  Uiso   1.00
N45    N     0.03853   0.20032   0.45595   0.00000  Uiso   1.00
N46    N     0.87765   0.50661   0.61184   0.00000  Uiso   1.00
C47    C     0.17676   0.68842   0.48223   0.00000  Uiso   1.00
C48    C     0.19076   0.66392   0.42534   0.00000  Uiso   1.00
C49    C     0.24123   0.67386   0.39573   0.00000  Uiso   1.00
C50    C     0.24576   0.64752   0.34442   0.00000  Uiso   1.00
C51    C     0.27423   0.61483   0.25925   0.00000  Uiso   1.00
C52    C     0.11960   0.72080   0.47600   0.00000  Uiso   1.00
C53    C     0.11022   0.77856   0.48901   0.00000  Uiso   1.00
C54    C     0.05484   0.80009   0.48035   0.00000  Uiso   1.00
C55    C     0.97282   0.85568   0.47388   0.00000  Uiso   1.00
C56    C     0.16395   0.63638   0.51896   0.00000  Uiso   1.00
C57    C     0.19185   0.62316   0.56810   0.00000  Uiso   1.00
C58    C     0.17379   0.57362   0.59561   0.00000  Uiso   1.00
C59    C     0.16063   0.49815   0.65584   0.00000  Uiso   1.00
C60    C     0.09508   0.62396   0.44374   0.00000  Uiso   1.00
C61    C     0.14639   0.62891   0.40443   0.00000  Uiso   1.00
C62    C     0.15085   0.60254   0.35315   0.00000  Uiso   1.00
C63    C     0.20131   0.61244   0.32347   0.00000  Uiso   1.00
C64    C     0.07523   0.68578   0.45510   0.00000  Uiso   1.00
C65    C     0.01985   0.70723   0.44642   0.00000  Uiso   1.00
C66    C     0.01039   0.76501   0.45940   0.00000  Uiso   1.00
C67    C     0.11958   0.60136   0.49805   0.00000  Uiso   1.00
C68    C     0.10147   0.55184   0.52550   0.00000  Uiso   1.00
C69    C     0.12934   0.53855   0.57467   0.00000  Uiso   1.00
H70    H     0.21130   0.71569   0.49851   0.00000  Uiso   1.00
H71    H     0.27555   0.70097   0.41193   0.00000  Uiso   1.00
H72    H     0.14457   0.80564   0.50519   0.00000  Uiso   1.00
H73    H     0.22618   0.65027   0.58426   0.00000  Uiso   1.00
H74    H     0.32720   0.66923   0.30671   0.00000  Uiso   1.00
H75    H     0.05101   0.88993   0.50338   0.00000  Uiso   1.00
H76    H     0.22311   0.56230   0.67012   0.00000  Uiso   1.00
H77    H     0.06053   0.59670   0.42746   0.00000  Uiso   1.00
H78    H     0.11650   0.57544   0.33698   0.00000  Uiso   1.00
H79    H     0.98552   0.68012   0.43024   0.00000  Uiso   1.00
H80    H     0.06713   0.52475   0.50931   0.00000  Uiso   1.00
H81    H     0.19811   0.56735   0.24587   0.00000  Uiso   1.00
H82    H     0.92192   0.78805   0.44255   0.00000  Uiso   1.00
H83    H     0.09402   0.46042   0.60928   0.00000  Uiso   1.00
O84    O     0.30219   0.60647   0.21804   0.00000  Uiso   1.00
O85    O     0.93984   0.89602   0.47608   0.00000  Uiso   1.00
O86    O     0.16563   0.46618   0.69483   0.00000  Uiso   1.00
N87    N     0.28915   0.64816   0.30481   0.00000  Uiso   1.00
N88    N     0.03093   0.85451   0.48868   0.00000  Uiso   1.00
N89    N     0.19181   0.54821   0.64457   0.00000  Uiso   1.00
N90    N     0.21968   0.59334   0.27208   0.00000  Uiso   1.00
N91    N     0.96147   0.79968   0.45595   0.00000  Uiso   1.00
N92    N     0.12235   0.49339   0.61184   0.00000  Uiso   1.00
C93    C     0.18842   0.32324   0.48223   0.00000  Uiso   1.00
C94    C     0.16392   0.30924   0.42534   0.00000  Uiso   1.00
C95    C     0.17386   0.25877   0.39573   0.00000  Uiso   1.00
C96    C     0.14752   0.25424   0.34442   0.00000  Uiso   1.00
C97    C     0.11483   0.22577   0.25925   0.00000  Uiso   1.00
C98    C     0.22080   0.38040   0.47600   0.00000  Uiso   1.00
C99    C     0.27856   0.38978   0.48901   0.00000  Uiso   1.00
C100   C     0.30009   0.44516   0.48035   0.00000  Uiso   1.00
C101   C     0.35568   0.52718   0.47388   0.00000  Uiso   1.00
C102   C     0.13638   0.33605   0.51896   0.00000  Uiso   1.00
C103   C     0.12316   0.30815   0.56810   0.00000  Uiso   1.00
C104   C     0.07362   0.32621   0.59561   0.00000  Uiso   1.00
C105   C     0.99815   0.33937   0.65584   0.00000  Uiso   1.00
C106   C     0.12396   0.40492   0.44374   0.00000  Uiso   1.00
C107   C     0.12891   0.35361   0.40443   0.00000  Uiso   1.00
C108   C     0.10254   0.34915   0.35315   0.00000  Uiso   1.00
C109   C     0.11244   0.29869   0.32347   0.00000  Uiso   1.00
C110   C     0.18578   0.42477   0.45510   0.00000  Uiso   1.00
C111   C     0.20723   0.48015   0.44642   0.00000  Uiso   1.00
C112   C     0.26501   0.48961   0.45940   0.00000  Uiso   1.00
C113   C     0.10136   0.38042   0.49805   0.00000  Uiso   1.00
C114   C     0.05184   0.39853   0.52550   0.00000  Uiso   1.00
C115   C     0.03855   0.37066   0.57467   0.00000  Uiso   1.00
H116   H     0.21569   0.28870   0.49851   0.00000  Uiso   1.00
H117   H     0.20097   0.22445   0.41193   0.00000  Uiso   1.00
H118   H     0.30564   0.35543   0.50519   0.00000  Uiso   1.00
H119   H     0.15027   0.27382   0.58426   0.00000  Uiso   1.00
H120   H     0.16923   0.17280   0.30671   0.00000  Uiso   1.00
H121   H     0.38993   0.44899   0.50338   0.00000  Uiso   1.00
H122   H     0.06230   0.27689   0.67012   0.00000  Uiso   1.00
H123   H     0.09670   0.43947   0.42746   0.00000  Uiso   1.00
H124   H     0.07544   0.38350   0.33698   0.00000  Uiso   1.00
H125   H     0.18012   0.51448   0.43024   0.00000  Uiso   1.00
H126   H     0.02475   0.43287   0.50931   0.00000  Uiso   1.00
H127   H     0.06735   0.30189   0.24587   0.00000  Uiso   1.00
H128   H     0.28805   0.57808   0.44255   0.00000  Uiso   1.00
H129   H     0.96042   0.40598   0.60928   0.00000  Uiso   1.00
O130   O     0.10647   0.19781   0.21804   0.00000  Uiso   1.00
O131   O     0.39602   0.56016   0.47608   0.00000  Uiso   1.00
O132   O     0.96618   0.33437   0.69483   0.00000  Uiso   1.00
N133   N     0.14816   0.21085   0.30481   0.00000  Uiso   1.00
N134   N     0.35451   0.46907   0.48868   0.00000  Uiso   1.00
N135   N     0.04821   0.30819   0.64457   0.00000  Uiso   1.00
N136   N     0.09334   0.28032   0.27208   0.00000  Uiso   1.00
N137   N     0.29968   0.53853   0.45595   0.00000  Uiso   1.00
N138   N     0.99339   0.37765   0.61184   0.00000  Uiso   1.00
C139   C     0.81158   0.67676   0.48223   0.00000  Uiso   1.00
C140   C     0.83608   0.69076   0.42534   0.00000  Uiso   1.00
C141   C     0.82614   0.74123   0.39573   0.00000  Uiso   1.00
C142   C     0.85248   0.74576   0.34442   0.00000  Uiso   1.00
C143   C     0.88517   0.77423   0.25925   0.00000  Uiso   1.00
C144   C     0.77920   0.61960   0.47600   0.00000  Uiso   1.00
C145   C     0.72144   0.61022   0.48901   0.00000  Uiso   1.00
C146   C     0.69991   0.55484   0.48035   0.00000  Uiso   1.00
C147   C     0.64432   0.47282   0.47388   0.00000  Uiso   1.00
C148   C     0.86362   0.66395   0.51896   0.00000  Uiso   1.00
C149   C     0.87684   0.69185   0.56810   0.00000  Uiso   1.00
C150   C     0.92638   0.67379   0.59561   0.00000  Uiso   1.00
C151   C     0.00185   0.66063   0.65584   0.00000  Uiso   1.00
C152   C     0.87604   0.59508   0.44374   0.00000  Uiso   1.00
C153   C     0.87109   0.64639   0.40443   0.00000  Uiso   1.00
C154   C     0.89746   0.65085   0.35315   0.00000  Uiso   1.00
C155   C     0.88756   0.70131   0.32347   0.00000  Uiso   1.00
C156   C     0.81422   0.57523   0.45510   0.00000  Uiso   1.00
C157   C     0.79277   0.51985   0.44642   0.00000  Uiso   1.00
C158   C     0.73499   0.51039   0.45940   0.00000  Uiso   1.00
C159   C     0.89864   0.61958   0.49805   0.00000  Uiso   1.00
C160   C     0.94816   0.60147   0.52550   0.00000  Uiso   1.00
C161   C     0.96145   0.62934   0.57467   0.00000  Uiso   1.00
H162   H     0.78431   0.71130   0.49851   0.00000  Uiso   1.00
H163   H     0.79903   0.77555   0.41193   0.00000  Uiso   1.00
H164   H     0.69436   0.64457   0.50519   0.00000  Uiso   1.00
H165   H     0.84973   0.72618   0.58426   0.00000  Uiso   1.00
H166   H     0.83077   0.82720   0.30671   0.00000  Uiso   1.00
H167   H     0.61007   0.55101   0.50338   0.00000  Uiso   1.00
H168   H     0.93770   0.72311   0.67012   0.00000  Uiso   1.00
H169   H     0.90330   0.56053   0.42746   0.00000  Uiso   1.00
H170   H     0.92456   0.61650   0.33698   0.00000  Uiso   1.00
H171   H     0.81988   0.48552   0.43024   0.00000  Uiso   1.00
H172   H     0.97525   0.56713   0.50931   0.00000  Uiso   1.00
H173   H     0.93265   0.69811   0.24587   0.00000  Uiso   1.00
H174   H     0.71195   0.42192   0.44255   0.00000  Uiso   1.00
H175   H     0.03958   0.59402   0.60928   0.00000  Uiso   1.00
O176   O     0.89353   0.80219   0.21804   0.00000  Uiso   1.00
O177   O     0.60398   0.43984   0.47608   0.00000  Uiso   1.00
O178   O     0.03382   0.66563   0.69483   0.00000  Uiso   1.00
N179   N     0.85184   0.78915   0.30481   0.00000  Uiso   1.00
N180   N     0.64549   0.53093   0.48868   0.00000  Uiso   1.00
N181   N     0.95179   0.69181   0.64457   0.00000  Uiso   1.00
N182   N     0.90666   0.71968   0.27208   0.00000  Uiso   1.00
N183   N     0.70032   0.46147   0.45595   0.00000  Uiso   1.00
N184   N     0.00661   0.62235   0.61184   0.00000  Uiso   1.00
C185   C     0.67676   0.81158   0.01777   0.00000  Uiso   1.00
C186   C     0.69076   0.83608   0.07466   0.00000  Uiso   1.00
C187   C     0.74123   0.82614   0.10427   0.00000  Uiso   1.00
C188   C     0.74576   0.85248   0.15558   0.00000  Uiso   1.00
C189   C     0.77423   0.88517   0.24075   0.00000  Uiso   1.00
C190   C     0.61960   0.77920   0.02400   0.00000  Uiso   1.00
C191   C     0.61022   0.72144   0.01099   0.00000  Uiso   1.00
C192   C     0.55484   0.69991   0.01965   0.00000  Uiso   1.00
C193   C     0.47282   0.64432   0.02612   0.00000  Uiso   1.00
C194   C     0.66395   0.86362   0.98104   0.00000  Uiso   1.00
C195   C     0.69185   0.87684   0.93190   0.00000  Uiso   1.00
C196   C     0.67379   0.92638   0.90439   0.00000  Uiso   1.00
C197   C     0.66063   0.00185   0.84416   0.00000  Uiso   1.00
C198   C     0.59508   0.87604   0.05626   0.00000  Uiso   1.00
C199   C     0.64639   0.87109   0.09557   0.00000  Uiso   1.00
C200   C     0.65085   0.89746   0.14685   0.00000  Uiso   1.00
C201   C     0.70131   0.88756   0.17653   0.00000  Uiso   1.00
C202   C     0.57523   0.81422   0.04490   0.00000  Uiso   1.00
C203   C     0.51985   0.79277   0.05358   0.00000  Uiso   1.00
C204   C     0.51039   0.73499   0.04060   0.00000  Uiso   1.00
C205   C     0.61958   0.89864   0.00195   0.00000  Uiso   1.00
C206   C     0.60147   0.94816   0.97450   0.00000  Uiso   1.00
C207   C     0.62934   0.96145   0.92533   0.00000  Uiso   1.00
H208   H     0.71130   0.78431   0.00149   0.00000  Uiso   1.00
H209   H     0.77555   0.79903   0.08807   0.00000  Uiso   1.00
H210   H     0.64457   0.69436   0.99481   0.00000  Uiso   1.00
H211   H     0.72618   0.84973   0.91574   0.00000  Uiso   1.00
H212   H     0.82720   0.83077   0.19329   0.00000  Uiso   1.00
H213   H     0.55101   0.61007   0.99662   0.00000  Uiso   1.00
H214   H     0.72311   0.93770   0.82988   0.00000  Uiso   1.00
H215   H     0.56053   0.90330   0.07254   0.00000  Uiso   1.00
H216   H     0.61650   0.92456   0.16302   0.00000  Uiso   1.00
H217   H     0.48552   0.81988   0.06976   0.00000  Uiso   1.00
H218   H     0.56713   0.97525   0.99069   0.00000  Uiso   1.00
H219   H     0.69811   0.93265   0.25413   0.00000  Uiso   1.00
H220   H     0.42192   0.71195   0.05745   0.00000  Uiso   1.00
H221   H     0.59402   0.03958   0.89072   0.00000  Uiso   1.00
O222   O     0.80219   0.89353   0.28196   0.00000  Uiso   1.00
O223   O     0.43984   0.60398   0.02392   0.00000  Uiso   1.00
O224   O     0.66563   0.03382   0.80517   0.00000  Uiso   1.00
N225   N     0.78915   0.85184   0.19519   0.00000  Uiso   1.00
N226   N     0.53093   0.64549   0.01132   0.00000  Uiso   1.00
N227   N     0.69181   0.95179   0.85543   0.00000  Uiso   1.00
N228   N     0.71968   0.90666   0.22792   0.00000  Uiso   1.00
N229   N     0.46147   0.70032   0.04405   0.00000  Uiso   1.00
N230   N     0.62235   0.00661   0.88816   0.00000  Uiso   1.00
C231   C     0.32324   0.18842   0.01777   0.00000  Uiso   1.00
C232   C     0.30924   0.16392   0.07466   0.00000  Uiso   1.00
C233   C     0.25877   0.17386   0.10427   0.00000  Uiso   1.00
C234   C     0.25424   0.14752   0.15558   0.00000  Uiso   1.00
C235   C     0.22577   0.11483   0.24075   0.00000  Uiso   1.00
C236   C     0.38040   0.22080   0.02400   0.00000  Uiso   1.00
C237   C     0.38978   0.27856   0.01099   0.00000  Uiso   1.00
C238   C     0.44516   0.30009   0.01965   0.00000  Uiso   1.00
C239   C     0.52718   0.35568   0.02612   0.00000  Uiso   1.00
C240   C     0.33605   0.13638   0.98104   0.00000  Uiso   1.00
C241   C     0.30815   0.12316   0.93190   0.00000  Uiso   1.00
C242   C     0.32621   0.07362   0.90439   0.00000  Uiso   1.00
C243   C     0.33937   0.99815   0.84416   0.00000  Uiso   1.00
C244   C     0.40492   0.12396   0.05626   0.00000  Uiso   1.00
C245   C     0.35361   0.12891   0.09557   0.00000  Uiso   1.00
C246   C     0.34915   0.10254   0.14685   0.00000  Uiso   1.00
C247   C     0.29869   0.11244   0.17653   0.00000  Uiso   1.00
C248   C     0.42477   0.18578   0.04490   0.00000  Uiso   1.00
C249   C     0.48015   0.20723   0.05358   0.00000  Uiso   1.00
C250   C     0.48961   0.26501   0.04060   0.00000  Uiso   1.00
C251   C     0.38042   0.10136   0.00195   0.00000  Uiso   1.00
C252   C     0.39853   0.05184   0.97450   0.00000  Uiso   1.00
C253   C     0.37066   0.03855   0.92533   0.00000  Uiso   1.00
H254   H     0.28870   0.21569   0.00149   0.00000  Uiso   1.00
H255   H     0.22445   0.20097   0.08807   0.00000  Uiso   1.00
H256   H     0.35543   0.30564   0.99481   0.00000  Uiso   1.00
H257   H     0.27382   0.15027   0.91574   0.00000  Uiso   1.00
H258   H     0.17280   0.16923   0.19329   0.00000  Uiso   1.00
H259   H     0.44899   0.38993   0.99662   0.00000  Uiso   1.00
H260   H     0.27689   0.06230   0.82988   0.00000  Uiso   1.00
H261   H     0.43947   0.09670   0.07254   0.00000  Uiso   1.00
H262   H     0.38350   0.07544   0.16302   0.00000  Uiso   1.00
H263   H     0.51448   0.18012   0.06976   0.00000  Uiso   1.00
H264   H     0.43287   0.02475   0.99069   0.00000  Uiso   1.00
H265   H     0.30189   0.06735   0.25413   0.00000  Uiso   1.00
H266   H     0.57808   0.28805   0.05745   0.00000  Uiso   1.00
H267   H     0.40598   0.96042   0.89072   0.00000  Uiso   1.00
O268   O     0.19781   0.10647   0.28196   0.00000  Uiso   1.00
O269   O     0.56016   0.39602   0.02392   0.00000  Uiso   1.00
O270   O     0.33437   0.96618   0.80517   0.00000  Uiso   1.00
N271   N     0.21085   0.14816   0.19519   0.00000  Uiso   1.00
N272   N     0.46907   0.35451   0.01132   0.00000  Uiso   1.00
N273   N     0.30819   0.04821   0.85543   0.00000  Uiso   1.00
N274   N     0.28032   0.09334   0.22792   0.00000  Uiso   1.00
N275   N     0.53853   0.29968   0.04405   0.00000  Uiso   1.00
N276   N     0.37765   0.99339   0.88816   0.00000  Uiso   1.00
C277   C     0.31158   0.82324   0.01777   0.00000  Uiso   1.00
C278   C     0.33608   0.80924   0.07466   0.00000  Uiso   1.00
C279   C     0.32614   0.75877   0.10427   0.00000  Uiso   1.00
C280   C     0.35248   0.75424   0.15558   0.00000  Uiso   1.00
C281   C     0.38517   0.72577   0.24075   0.00000  Uiso   1.00
C282   C     0.27920   0.88040   0.02400   0.00000  Uiso   1.00
C283   C     0.22144   0.88978   0.01099   0.00000  Uiso   1.00
C284   C     0.19991   0.94516   0.01965   0.00000  Uiso   1.00
C285   C     0.14432   0.02718   0.02612   0.00000  Uiso   1.00
C286   C     0.36362   0.83605   0.98104   0.00000  Uiso   1.00
C287   C     0.37684   0.80815   0.93190   0.00000  Uiso   1.00
C288   C     0.42638   0.82621   0.90439   0.00000  Uiso   1.00
C289   C     0.50185   0.83937   0.84416   0.00000  Uiso   1.00
C290   C     0.37604   0.90492   0.05626   0.00000  Uiso   1.00
C291   C     0.37109   0.85361   0.09557   0.00000  Uiso   1.00
C292   C     0.39746   0.84915   0.14685   0.00000  Uiso   1.00
C293   C     0.38756   0.79869   0.17653   0.00000  Uiso   1.00
C294   C     0.31422   0.92477   0.04490   0.00000  Uiso   1.00
C295   C     0.29277   0.98015   0.05358   0.00000  Uiso   1.00
C296   C     0.23499   0.98961   0.04060   0.00000  Uiso   1.00
C297   C     0.39864   0.88042   0.00195   0.00000  Uiso   1.00
C298   C     0.44816   0.89853   0.97450   0.00000  Uiso   1.00
C299   C     0.46145   0.87066   0.92533   0.00000  Uiso   1.00
H300   H     0.28431   0.78870   0.00149   0.00000  Uiso   1.00
H301   H     0.29903   0.72445   0.08807   0.00000  Uiso   1.00
H302   H     0.19436   0.85543   0.99481   0.00000  Uiso   1.00
H303   H     0.34973   0.77382   0.91574   0.00000  Uiso   1.00
H304   H     0.33077   0.67280   0.19329   0.00000  Uiso   1.00
H305   H     0.11007   0.94899   0.99662   0.00000  Uiso   1.00
H306   H     0.43770   0.77689   0.82988   0.00000  Uiso   1.00
H307   H     0.40330   0.93947   0.07254   0.00000  Uiso   1.00
H308   H     0.42456   0.88350   0.16302   0.00000  Uiso   1.00
H309   H     0.31988   0.01448   0.06976   0.00000  Uiso   1.00
H310   H     0.47525   0.93287   0.99069   0.00000  Uiso   1.00
H311   H     0.43265   0.80189   0.25413   0.00000  Uiso   1.00
H312   H     0.21195   0.07808   0.05745   0.00000  Uiso   1.00
H313   H     0.53958   0.90598   0.89072   0.00000  Uiso   1.00
O314   O     0.39353   0.69781   0.28196   0.00000  Uiso   1.00
O315   O     0.10398   0.06016   0.02392   0.00000  Uiso   1.00
O316   O     0.53382   0.83437   0.80517   0.00000  Uiso   1.00
N317   N     0.35184   0.71085   0.19519   0.00000  Uiso   1.00
N318   N     0.14549   0.96907   0.01132   0.00000  Uiso   1.00
N319   N     0.45179   0.80819   0.85543   0.00000  Uiso   1.00
N320   N     0.40666   0.78032   0.22792   0.00000  Uiso   1.00
N321   N     0.20032   0.03853   0.04405   0.00000  Uiso   1.00
N322   N     0.50661   0.87765   0.88816   0.00000  Uiso   1.00
C323   C     0.68842   0.17676   0.01777   0.00000  Uiso   1.00
C324   C     0.66392   0.19076   0.07466   0.00000  Uiso   1.00
C325   C     0.67386   0.24123   0.10427   0.00000  Uiso   1.00
C326   C     0.64752   0.24576   0.15558   0.00000  Uiso   1.00
C327   C     0.61483   0.27423   0.24075   0.00000  Uiso   1.00
C328   C     0.72080   0.11960   0.02400   0.00000  Uiso   1.00
C329   C     0.77856   0.11022   0.01099   0.00000  Uiso   1.00
C330   C     0.80009   0.05484   0.01965   0.00000  Uiso   1.00
C331   C     0.85568   0.97282   0.02612   0.00000  Uiso   1.00
C332   C     0.63638   0.16395   0.98104   0.00000  Uiso   1.00
C333   C     0.62316   0.19185   0.93190   0.00000  Uiso   1.00
C334   C     0.57362   0.17379   0.90439   0.00000  Uiso   1.00
C335   C     0.49815   0.16063   0.84416   0.00000  Uiso   1.00
C336   C     0.62396   0.09508   0.05626   0.00000  Uiso   1.00
C337   C     0.62891   0.14639   0.09557   0.00000  Uiso   1.00
C338   C     0.60254   0.15085   0.14685   0.00000  Uiso   1.00
C339   C     0.61244   0.20131   0.17653   0.00000  Uiso   1.00
C340   C     0.68578   0.07523   0.04490   0.00000  Uiso   1.00
C341   C     0.70723   0.01985   0.05358   0.00000  Uiso   1.00
C342   C     0.76501   0.01039   0.04060   0.00000  Uiso   1.00
C343   C     0.60136   0.11958   0.00195   0.00000  Uiso   1.00
C344   C     0.55184   0.10147   0.97450   0.00000  Uiso   1.00
C345   C     0.53855   0.12934   0.92533   0.00000  Uiso   1.00
H346   H     0.71569   0.21130   0.00149   0.00000  Uiso   1.00
H347   H     0.70097   0.27555   0.08807   0.00000  Uiso   1.00
H348   H     0.80564   0.14457   0.99481   0.00000  Uiso   1.00
H349   H     0.65027   0.22618   0.91574   0.00000  Uiso   1.00
H350   H     0.66923   0.32720   0.19329   0.00000  Uiso   1.00
H351   H     0.88993   0.05101   0.99662   0.00000  Uiso   1.00
H352   H     0.56230   0.22311   0.82988   0.00000  Uiso   1.00
H353   H     0.59670   0.06053   0.07254   0.00000  Uiso   1.00
H354   H     0.57544   0.11650   0.16302   0.00000  Uiso   1.00
H355   H     0.68012   0.98552   0.06976   0.00000  Uiso   1.00
H356   H     0.52475   0.06713   0.99069   0.00000  Uiso   1.00
H357   H     0.56735   0.19811   0.25413   0.00000  Uiso   1.00
H358   H     0.78805   0.92192   0.05745   0.00000  Uiso   1.00
H359   H     0.46042   0.09402   0.89072   0.00000  Uiso   1.00
O360   O     0.60647   0.30219   0.28196   0.00000  Uiso   1.00
O361   O     0.89602   0.93984   0.02392   0.00000  Uiso   1.00
O362   O     0.46618   0.16563   0.80517   0.00000  Uiso   1.00
N363   N     0.64816   0.28915   0.19519   0.00000  Uiso   1.00
N364   N     0.85451   0.03093   0.01132   0.00000  Uiso   1.00
N365   N     0.54821   0.19181   0.85543   0.00000  Uiso   1.00
N366   N     0.59334   0.21968   0.22792   0.00000  Uiso   1.00
N367   N     0.79968   0.96147   0.04405   0.00000  Uiso   1.00
N368   N     0.49339   0.12235   0.88816   0.00000  Uiso   1.00
C369   C     0.67676   0.18842   0.51777   0.00000  Uiso   1.00
C370   C     0.69076   0.16392   0.57466   0.00000  Uiso   1.00
C371   C     0.74123   0.17386   0.60427   0.00000  Uiso   1.00
C372   C     0.74576   0.14752   0.65558   0.00000  Uiso   1.00
C373   C     0.77423   0.11483   0.74075   0.00000  Uiso   1.00
C374   C     0.61960   0.22080   0.52400   0.00000  Uiso   1.00
C375   C     0.61022   0.27856   0.51099   0.00000  Uiso   1.00
C376   C     0.55484   0.30009   0.51965   0.00000  Uiso   1.00
C377   C     0.47282   0.35568   0.52612   0.00000  Uiso   1.00
C378   C     0.66395   0.13638   0.48104   0.00000  Uiso   1.00
C379   C     0.69185   0.12316   0.43190   0.00000  Uiso   1.00
C380   C     0.67379   0.07362   0.40439   0.00000  Uiso   1.00
C381   C     0.66063   0.99815   0.34416   0.00000  Uiso   1.00
C382   C     0.59508   0.12396   0.55626   0.00000  Uiso   1.00
C383   C     0.64639   0.12891   0.59557   0.00000  Uiso   1.00
C384   C     0.65085   0.10254   0.64685   0.00000  Uiso   1.00
C385   C     0.70131   0.11244   0.67653   0.00000  Uiso   1.00
C386   C     0.57523   0.18578   0.54490   0.00000  Uiso   1.00
C387   C     0.51985   0.20723   0.55358   0.00000  Uiso   1.00
C388   C     0.51039   0.26501   0.54060   0.00000  Uiso   1.00
C389   C     0.61958   0.10136   0.50195   0.00000  Uiso   1.00
C390   C     0.60147   0.05184   0.47450   0.00000  Uiso   1.00
C391   C     0.62934   0.03855   0.42533   0.00000  Uiso   1.00
H392   H     0.71130   0.21569   0.50149   0.00000  Uiso   1.00
H393   H     0.77555   0.20097   0.58807   0.00000  Uiso   1.00
H394   H     0.64457   0.30564   0.49481   0.00000  Uiso   1.00
H395   H     0.72618   0.15027   0.41574   0.00000  Uiso   1.00
H396   H     0.82720   0.16923   0.69329   0.00000  Uiso   1.00
H397   H     0.55101   0.38993   0.49662   0.00000  Uiso   1.00
H398   H     0.72311   0.06230   0.32988   0.00000  Uiso   1.00
H399   H     0.56053   0.09670   0.57254   0.00000  Uiso   1.00
H400   H     0.61650   0.07544   0.66302   0.00000  Uiso   1.00
H401   H     0.48552   0.18012   0.56976   0.00000  Uiso   1.00
H402   H     0.56713   0.02475   0.49069   0.00000  Uiso   1.00
H403   H     0.69811   0.06735   0.75413   0.00000  Uiso   1.00
H404   H     0.42192   0.28805   0.55745   0.00000  Uiso   1.00
H405   H     0.59402   0.96042   0.39072   0.00000  Uiso   1.00
O406   O     0.80219   0.10647   0.78196   0.00000  Uiso   1.00
O407   O     0.43984   0.39602   0.52392   0.00000  Uiso   1.00
O408   O     0.66563   0.96618   0.30517   0.00000  Uiso   1.00
N409   N     0.78915   0.14816   0.69519   0.00000  Uiso   1.00
N410   N     0.53093   0.35451   0.51132   0.00000  Uiso   1.00
N411   N     0.69181   0.04821   0.35543   0.00000  Uiso   1.00
N412   N     0.71968   0.09334   0.72792   0.00000  Uiso   1.00
N413   N     0.46147   0.29968   0.54405   0.00000  Uiso   1.00
N414   N     0.62235   0.99339   0.38816   0.00000  Uiso   1.00
C415   C     0.32324   0.81158   0.51777   0.00000  Uiso   1.00
C416   C     0.30924   0.83608   0.57466   0.00000  Uiso   1.00
C417   C     0.25877   0.82614   0.60427   0.00000  Uiso   1.00
C418   C     0.25424   0.85248   0.65558   0.00000  Uiso   1.00
C419   C     0.22577   0.88517   0.74075   0.00000  Uiso   1.00
C420   C     0.38040   0.77920   0.52400   0.00000  Uiso   1.00
C421   C     0.38978   0.72144   0.51099   0.00000  Uiso   1.00
C422   C     0.44516   0.69991   0.51965   0.00000  Uiso   1.00
C423   C     0.52718   0.64432   0.52612   0.00000  Uiso   1.00
C424   C     0.33605   0.86362   0.48104   0.00000  Uiso   1.00
C425   C     0.30815   0.87684   0.43190   0.00000  Uiso   1.00
C426   C     0.32621   0.92638   0.40439   0.00000  Uiso   1.00
C427   C     0.33937   0.00185   0.34416   0.00000  Uiso   1.00
C428   C     0.40492   0.87604   0.55626   0.00000  Uiso   1.00
C429   C     0.35361   0.87109   0.59557   0.00000  Uiso   1.00
C430   C     0.34915   0.89746   0.64685   0.00000  Uiso   1.00
C431   C     0.29869   0.88756   0.67653   0.00000  Uiso   1.00
C432   C     0.42477   0.81422   0.54490   0.00000  Uiso   1.00
C433   C     0.48015   0.79277   0.55358   0.00000  Uiso   1.00
C434   C     0.48961   0.73499   0.54060   0.00000  Uiso   1.00
C435   C     0.38042   0.89864   0.50195   0.00000  Uiso   1.00
C436   C     0.39853   0.94816   0.47450   0.00000  Uiso   1.00
C437   C     0.37066   0.96145   0.42533   0.00000  Uiso   1.00
H438   H     0.28870   0.78431   0.50149   0.00000  Uiso   1.00
H439   H     0.22445   0.79903   0.58807   0.00000  Uiso   1.00
H440   H     0.35543   0.69436   0.49481   0.00000  Uiso   1.00
H441   H     0.27382   0.84973   0.41574   0.00000  Uiso   1.00
H442   H     0.17280   0.83077   0.69329   0.00000  Uiso   1.00
H443   H     0.44899   0.61007   0.49662   0.00000  Uiso   1.00
H444   H     0.27689   0.93770   0.32988   0.00000  Uiso   1.00
H445   H     0.43947   0.90330   0.57254   0.00000  Uiso   1.00
H446   H     0.38350   0.92456   0.66302   0.00000  Uiso   1.00
H447   H     0.51448   0.81988   0.56976   0.00000  Uiso   1.00
H448   H     0.43287   0.97525   0.49069   0.00000  Uiso   1.00
H449   H     0.30189   0.93265   0.75413   0.00000  Uiso   1.00
H450   H     0.57808   0.71195   0.55745   0.00000  Uiso   1.00
H451   H     0.40598   0.03958   0.39072   0.00000  Uiso   1.00
O452   O     0.19781   0.89353   0.78196   0.00000  Uiso   1.00
O453   O     0.56016   0.60398   0.52392   0.00000  Uiso   1.00
O454   O     0.33437   0.03382   0.30517   0.00000  Uiso   1.00
N455   N     0.21085   0.85184   0.69519   0.00000  Uiso   1.00
N456   N     0.46907   0.64549   0.51132   0.00000  Uiso   1.00
N457   N     0.30819   0.95179   0.35543   0.00000  Uiso   1.00
N458   N     0.28032   0.90666   0.72792   0.00000  Uiso   1.00
N459   N     0.53853   0.70032   0.54405   0.00000  Uiso   1.00
N460   N     0.37765   0.00661   0.38816   0.00000  Uiso   1.00
C461   C     0.31158   0.17676   0.51777   0.00000  Uiso   1.00
C462   C     0.33608   0.19076   0.57466   0.00000  Uiso   1.00
C463   C     0.32614   0.24123   0.60427   0.00000  Uiso   1.00
C464   C     0.35248   0.24576   0.65558   0.00000  Uiso   1.00
C465   C     0.38517   0.27423   0.74075   0.00000  Uiso   1.00
C466   C     0.27920   0.11960   0.52400   0.00000  Uiso   1.00
C467   C     0.22144   0.11022   0.51099   0.00000  Uiso   1.00
C468   C     0.19991   0.05484   0.51965   0.00000  Uiso   1.00
C469   C     0.14432   0.97282   0.52612   0.00000  Uiso   1.00
C470   C     0.36362   0.16395   0.48104   0.00000  Uiso   1.00
C471   C     0.37684   0.19185   0.43190   0.00000  Uiso   1.00
C472   C     0.42638   0.17379   0.40439   0.00000  Uiso   1.00
C473   C     0.50185   0.16063   0.34416   0.00000  Uiso   1.00
C474   C     0.37604   0.09508   0.55626   0.00000  Uiso   1.00
C475   C     0.37109   0.14639   0.59557   0.00000  Uiso   1.00
C476   C     0.39746   0.15085   0.64685   0.00000  Uiso   1.00
C477   C     0.38756   0.20131   0.67653   0.00000  Uiso   1.00
C478   C     0.31422   0.07523   0.54490   0.00000  Uiso   1.00
C479   C     0.29277   0.01985   0.55358   0.00000  Uiso   1.00
C480   C     0.23499   0.01039   0.54060   0.00000  Uiso   1.00
C481   C     0.39864   0.11958   0.50195   0.00000  Uiso   1.00
C482   C     0.44816   0.10147   0.47450   0.00000  Uiso   1.00
C483   C     0.46145   0.12934   0.42533   0.00000  Uiso   1.00
H484   H     0.28431   0.21130   0.50149   0.00000  Uiso   1.00
H485   H     0.29903   0.27555   0.58807   0.00000  Uiso   1.00
H486   H     0.19436   0.14457   0.49481   0.00000  Uiso   1.00
H487   H     0.34973   0.22618   0.41574   0.00000  Uiso   1.00
H488   H     0.33077   0.32720   0.69329   0.00000  Uiso   1.00
H489   H     0.11007   0.05101   0.49662   0.00000  Uiso   1.00
H490   H     0.43770   0.22311   0.32988   0.00000  Uiso   1.00
H491   H     0.40330   0.06053   0.57254   0.00000  Uiso   1.00
H492   H     0.42456   0.11650   0.66302   0.00000  Uiso   1.00
H493   H     0.31988   0.98552   0.56976   0.00000  Uiso   1.00
H494   H     0.47525   0.06713   0.49069   0.00000  Uiso   1.00
H495   H     0.43265   0.19811   0.75413   0.00000  Uiso   1.00
H496   H     0.21195   0.92192   0.55745   0.00000  Uiso   1.00
H497   H     0.53958   0.09402   0.39072   0.00000  Uiso   1.00
O498   O     0.39353   0.30219   0.78196   0.00000  Uiso   1.00
O499   O     0.10398   0.93984   0.52392   0.00000  Uiso   1.00
O500   O     0.53382   0.16563   0.30517   0.00000  Uiso   1.00
N501   N     0.35184   0.28915   0.69519   0.00000  Uiso   1.00
N502   N     0.14549   0.03093   0.51132   0.00000  Uiso   1.00
N503   N     0.45179   0.19181   0.35543   0.00000  Uiso   1.00
N504   N     0.40666   0.21968   0.72792   0.00000  Uiso   1.00
N505   N     0.20032   0.96147   0.54405   0.00000  Uiso   1.00
N506   N     0.50661   0.12235   0.38816   0.00000  Uiso   1.00
C507   C     0.68842   0.82324   0.51777   0.00000  Uiso   1.00
C508   C     0.66392   0.80924   0.57466   0.00000  Uiso   1.00
C509   C     0.67386   0.75877   0.60427   0.00000  Uiso   1.00
C510   C     0.64752   0.75424   0.65558   0.00000  Uiso   1.00
C511   C     0.61483   0.72577   0.74075   0.00000  Uiso   1.00
C512   C     0.72080   0.88040   0.52400   0.00000  Uiso   1.00
C513   C     0.77856   0.88978   0.51099   0.00000  Uiso   1.00
C514   C     0.80009   0.94516   0.51965   0.00000  Uiso   1.00
C515   C     0.85568   0.02718   0.52612   0.00000  Uiso   1.00
C516   C     0.63638   0.83605   0.48104   0.00000  Uiso   1.00
C517   C     0.62316   0.80815   0.43190   0.00000  Uiso   1.00
C518   C     0.57362   0.82621   0.40439   0.00000  Uiso   1.00
C519   C     0.49815   0.83937   0.34416   0.00000  Uiso   1.00
C520   C     0.62396   0.90492   0.55626   0.00000  Uiso   1.00
C521   C     0.62891   0.85361   0.59557   0.00000  Uiso   1.00
C522   C     0.60254   0.84915   0.64685   0.00000  Uiso   1.00
C523   C     0.61244   0.79869   0.67653   0.00000  Uiso   1.00
C524   C     0.68578   0.92477   0.54490   0.00000  Uiso   1.00
C525   C     0.70723   0.98015   0.55358   0.00000  Uiso   1.00
C526   C     0.76501   0.98961   0.54060   0.00000  Uiso   1.00
C527   C     0.60136   0.88042   0.50195   0.00000  Uiso   1.00
C528   C     0.55184   0.89853   0.47450   0.00000  Uiso   1.00
C529   C     0.53855   0.87066   0.42533   0.00000  Uiso   1.00
H530   H     0.71569   0.78870   0.50149   0.00000  Uiso   1.00
H531   H     0.70097   0.72445   0.58807   0.00000  Uiso   1.00
H532   H     0.80564   0.85543   0.49481   0.00000  Uiso   1.00
H533   H     0.65027   0.77382   0.41574   0.00000  Uiso   1.00
H534   H     0.66923   0.67280   0.69329   0.00000  Uiso   1.00
H535   H     0.88993   0.94899   0.49662   0.00000  Uiso   1.00
H536   H     0.56230   0.77689   0.32988   0.00000  Uiso   1.00
H537   H     0.59670   0.93947   0.57254   0.00000  Uiso   1.00
H538   H     0.57544   0.88350   0.66302   0.00000  Uiso   1.00
H539   H     0.68012   0.01448   0.56976   0.00000  Uiso   1.00
H540   H     0.52475   0.93287   0.49069   0.00000  Uiso   1.00
H541   H     0.56735   0.80189   0.75413   0.00000  Uiso   1.00
H542   H     0.78805   0.07808   0.55745   0.00000  Uiso   1.00
H543   H     0.46042   0.90598   0.39072   0.00000  Uiso   1.00
O544   O     0.60647   0.69781   0.78196   0.00000  Uiso   1.00
O545   O     0.89602   0.06016   0.52392   0.00000  Uiso   1.00
O546   O     0.46618   0.83437   0.30517   0.00000  Uiso   1.00
N547   N     0.64816   0.71085   0.69519   0.00000  Uiso   1.00
N548   N     0.85451   0.96907   0.51132   0.00000  Uiso   1.00
N549   N     0.54821   0.80819   0.35543   0.00000  Uiso   1.00
N550   N     0.59334   0.78032   0.72792   0.00000  Uiso   1.00
N551   N     0.79968   0.03853   0.54405   0.00000  Uiso   1.00
N552   N     0.49339   0.87765   0.38816   0.00000  Uiso   1.00
C553   C     0.82324   0.68842   0.98223   0.00000  Uiso   1.00
C554   C     0.80924   0.66392   0.92534   0.00000  Uiso   1.00
C555   C     0.75877   0.67386   0.89573   0.00000  Uiso   1.00
C556   C     0.75424   0.64752   0.84442   0.00000  Uiso   1.00
C557   C     0.72577   0.61483   0.75925   0.00000  Uiso   1.00
C558   C     0.88040   0.72080   0.97600   0.00000  Uiso   1.00
C559   C     0.88978   0.77856   0.98901   0.00000  Uiso   1.00
C560   C     0.94516   0.80009   0.98035   0.00000  Uiso   1.00
C561   C     0.02718   0.85568   0.97388   0.00000  Uiso   1.00
C562   C     0.83605   0.63638   0.01896   0.00000  Uiso   1.00
C563   C     0.80815   0.62316   0.06810   0.00000  Uiso   1.00
C564   C     0.82621   0.57362   0.09561   0.00000  Uiso   1.00
C565   C     0.83937   0.49815   0.15584   0.00000  Uiso   1.00
C566   C     0.90492   0.62396   0.94374   0.00000  Uiso   1.00
C567   C     0.85361   0.62891   0.90443   0.00000  Uiso   1.00
C568   C     0.84915   0.60254   0.85315   0.00000  Uiso   1.00
C569   C     0.79869   0.61244   0.82347   0.00000  Uiso   1.00
C570   C     0.92477   0.68578   0.95510   0.00000  Uiso   1.00
C571   C     0.98015   0.70723   0.94642   0.00000  Uiso   1.00
C572   C     0.98961   0.76501   0.95940   0.00000  Uiso   1.00
C573   C     0.88042   0.60136   0.99805   0.00000  Uiso   1.00
C574   C     0.89853   0.55184   0.02550   0.00000  Uiso   1.00
C575   C     0.87066   0.53855   0.07467   0.00000  Uiso   1.00
H576   H     0.78870   0.71569   0.99851   0.00000  Uiso   1.00
H577   H     0.72445   0.70097   0.91193   0.00000  Uiso   1.00
H578   H     0.85543   0.80564   0.00519   0.00000  Uiso   1.00
H579   H     0.77382   0.65027   0.08426   0.00000  Uiso   1.00
H580   H     0.67280   0.66923   0.80671   0.00000  Uiso   1.00
H581   H     0.94899   0.88993   0.00338   0.00000  Uiso   1.00
H582   H     0.77689   0.56230   0.17012   0.00000  Uiso   1.00
H583   H     0.93947   0.59670   0.92746   0.00000  Uiso   1.00
H584   H     0.88350   0.57544   0.83698   0.00000  Uiso   1.00
H585   H     0.01448   0.68012   0.93024   0.00000  Uiso   1.00
H586   H     0.93287   0.52475   0.00931   0.00000  Uiso   1.00
H587   H     0.80189   0.56735   0.74587   0.00000  Uiso   1.00
H588   H     0.07808   0.78805   0.94255   0.00000  Uiso   1.00
H589   H     0.90598   0.46042   0.10928   0.00000  Uiso   1.00
O590   O     0.69781   0.60647   0.71804   0.00000  Uiso   1.00
O591   O     0.06016   0.89602   0.97608   0.00000  Uiso   1.00
O592   O     0.83437   0.46618   0.19483   0.00000  Uiso   1.00
N593   N     0.71085   0.64816   0.80481   0.00000  Uiso   1.00
N594   N     0.96907   0.85451   0.98868   0.00000  Uiso   1.00
N595   N     0.80819   0.54821   0.14457   0.00000  Uiso   1.00
N596   N     0.78032   0.59334   0.77208   0.00000  Uiso   1.00
N597   N     0.03853   0.79968   0.95595   0.00000  Uiso   1.00
N598   N     0.87765   0.49339   0.11184   0.00000  Uiso   1.00
C599   C     0.17676   0.31158   0.98223   0.00000  Uiso   1.00
C600   C     0.19076   0.33608   0.92534   0.00000  Uiso   1.00
C601   C     0.24123   0.32614   0.89573   0.00000  Uiso   1.00
C602   C     0.24576   0.35248   0.84442   0.00000  Uiso   1.00
C603   C     0.27423   0.38517   0.75925   0.00000  Uiso   1.00
C604   C     0.11960   0.27920   0.97600   0.00000  Uiso   1.00
C605   C     0.11022   0.22144   0.98901   0.00000  Uiso   1.00
C606   C     0.05484   0.19991   0.98035   0.00000  Uiso   1.00
C607   C     0.97282   0.14432   0.97388   0.00000  Uiso   1.00
C608   C     0.16395   0.36362   0.01896   0.00000  Uiso   1.00
C609   C     0.19185   0.37684   0.06810   0.00000  Uiso   1.00
C610   C     0.17379   0.42638   0.09561   0.00000  Uiso   1.00
C611   C     0.16063   0.50185   0.15584   0.00000  Uiso   1.00
C612   C     0.09508   0.37604   0.94374   0.00000  Uiso   1.00
C613   C     0.14639   0.37109   0.90443   0.00000  Uiso   1.00
C614   C     0.15085   0.39746   0.85315   0.00000  Uiso   1.00
C615   C     0.20131   0.38756   0.82347   0.00000  Uiso   1.00
C616   C     0.07523   0.31422   0.95510   0.00000  Uiso   1.00
C617   C     0.01985   0.29277   0.94642   0.00000  Uiso   1.00
C618   C     0.01039   0.23499   0.95940   0.00000  Uiso   1.00
C619   C     0.11958   0.39864   0.99805   0.00000  Uiso   1.00
C620   C     0.10147   0.44816   0.02550   0.00000  Uiso   1.00
C621   C     0.12934   0.46145   0.07467   0.00000  Uiso   1.00
H622   H     0.21130   0.28431   0.99851   0.00000  Uiso   1.00
H623   H     0.27555   0.29903   0.91193   0.00000  Uiso   1.00
H624   H     0.14457   0.19436   0.00519   0.00000  Uiso   1.00
H625   H     0.22618   0.34973   0.08426   0.00000  Uiso   1.00
H626   H     0.32720   0.33077   0.80671   0.00000  Uiso   1.00
H627   H     0.05101   0.11007   0.00338   0.00000  Uiso   1.00
H628   H     0.22311   0.43770   0.17012   0.00000  Uiso   1.00
H629   H     0.06053   0.40330   0.92746   0.00000  Uiso   1.00
H630   H     0.11650   0.42456   0.83698   0.00000  Uiso   1.00
H631   H     0.98552   0.31988   0.93024   0.00000  Uiso   1.00
H632   H     0.06713   0.47525   0.00931   0.00000  Uiso   1.00
H633   H     0.19811   0.43265   0.74587   0.00000  Uiso   1.00
H634   H     0.92192   0.21195   0.94255   0.00000  Uiso   1.00
H635   H     0.09402   0.53958   0.10928   0.00000  Uiso   1.00
O636   O     0.30219   0.39353   0.71804   0.00000  Uiso   1.00
O637   O     0.93984   0.10398   0.97608   0.00000  Uiso   1.00
O638   O     0.16563   0.53382   0.19483   0.00000  Uiso   1.00
N639   N     0.28915   0.35184   0.80481   0.00000  Uiso   1.00
N640   N     0.03093   0.14549   0.98868   0.00000  Uiso   1.00
N641   N     0.19181   0.45179   0.14457   0.00000  Uiso   1.00
N642   N     0.21968   0.40666   0.77208   0.00000  Uiso   1.00
N643   N     0.96147   0.20032   0.95595   0.00000  Uiso   1.00
N644   N     0.12235   0.50661   0.11184   0.00000  Uiso   1.00
C645   C     0.18842   0.67676   0.98223   0.00000  Uiso   1.00
C646   C     0.16392   0.69076   0.92534   0.00000  Uiso   1.00
C647   C     0.17386   0.74123   0.89573   0.00000  Uiso   1.00
C648   C     0.14752   0.74576   0.84442   0.00000  Uiso   1.00
C649   C     0.11483   0.77423   0.75925   0.00000  Uiso   1.00
C650   C     0.22080   0.61960   0.97600   0.00000  Uiso   1.00
C651   C     0.27856   0.61022   0.98901   0.00000  Uiso   1.00
C652   C     0.30009   0.55484   0.98035   0.00000  Uiso   1.00
C653   C     0.35568   0.47282   0.97388   0.00000  Uiso   1.00
C654   C     0.13638   0.66395   0.01896   0.00000  Uiso   1.00
C655   C     0.12316   0.69185   0.06810   0.00000  Uiso   1.00
C656   C     0.07362   0.67379   0.09561   0.00000  Uiso   1.00
C657   C     0.99815   0.66063   0.15584   0.00000  Uiso   1.00
C658   C     0.12396   0.59508   0.94374   0.00000  Uiso   1.00
C659   C     0.12891   0.64639   0.90443   0.00000  Uiso   1.00
C660   C     0.10254   0.65085   0.85315   0.00000  Uiso   1.00
C661   C     0.11244   0.70131   0.82347   0.00000  Uiso   1.00
C662   C     0.18578   0.57523   0.95510   0.00000  Uiso   1.00
C663   C     0.20723   0.51985   0.94642   0.00000  Uiso   1.00
C664   C     0.26501   0.51039   0.95940   0.00000  Uiso   1.00
C665   C     0.10136   0.61958   0.99805   0.00000  Uiso   1.00
C666   C     0.05184   0.60147   0.02550   0.00000  Uiso   1.00
C667   C     0.03855   0.62934   0.07467   0.00000  Uiso   1.00
H668   H     0.21569   0.71130   0.99851   0.00000  Uiso   1.00
H669   H     0.20097   0.77555   0.91193   0.00000  Uiso   1.00
H670   H     0.30564   0.64457   0.00519   0.00000  Uiso   1.00
H671   H     0.15027   0.72618   0.08426   0.00000  Uiso   1.00
H672   H     0.16923   0.82720   0.80671   0.00000  Uiso   1.00
H673   H     0.38993   0.55101   0.00338   0.00000  Uiso   1.00
H674   H     0.06230   0.72311   0.17012   0.00000  Uiso   1.00
H675   H     0.09670   0.56053   0.92746   0.00000  Uiso   1.00
H676   H     0.07544   0.61650   0.83698   0.00000  Uiso   1.00
H677   H     0.18012   0.48552   0.93024   0.00000  Uiso   1.00
H678   H     0.02475   0.56713   0.00931   0.00000  Uiso   1.00
H679   H     0.06735   0.69811   0.74587   0.00000  Uiso   1.00
H680   H     0.28805   0.42192   0.94255   0.00000  Uiso   1.00
H681   H     0.96042   0.59402   0.10928   0.00000  Uiso   1.00
O682   O     0.10647   0.80219   0.71804   0.00000  Uiso   1.00
O683   O     0.39602   0.43984   0.97608   0.00000  Uiso   1.00
O684   O     0.96618   0.66563   0.19483   0.00000  Uiso   1.00
N685   N     0.14816   0.78915   0.80481   0.00000  Uiso   1.00
N686   N     0.35451   0.53093   0.98868   0.00000  Uiso   1.00
N687   N     0.04821   0.69181   0.14457   0.00000  Uiso   1.00
N688   N     0.09334   0.71968   0.77208   0.00000  Uiso   1.00
N689   N     0.29968   0.46147   0.95595   0.00000  Uiso   1.00
N690   N     0.99339   0.62235   0.11184   0.00000  Uiso   1.00
C691   C     0.81158   0.32324   0.98223   0.00000  Uiso   1.00
C692   C     0.83608   0.30924   0.92534   0.00000  Uiso   1.00
C693   C     0.82614   0.25877   0.89573   0.00000  Uiso   1.00
C694   C     0.85248   0.25424   0.84442   0.00000  Uiso   1.00
C695   C     0.88517   0.22577   0.75925   0.00000  Uiso   1.00
C696   C     0.77920   0.38040   0.97600   0.00000  Uiso   1.00
C697   C     0.72144   0.38978   0.98901   0.00000  Uiso   1.00
C698   C     0.69991   0.44516   0.98035   0.00000  Uiso   1.00
C699   C     0.64432   0.52718   0.97388   0.00000  Uiso   1.00
C700   C     0.86362   0.33605   0.01896   0.00000  Uiso   1.00
C701   C     0.87684   0.30815   0.06810   0.00000  Uiso   1.00
C702   C     0.92638   0.32621   0.09561   0.00000  Uiso   1.00
C703   C     0.00185   0.33937   0.15584   0.00000  Uiso   1.00
C704   C     0.87604   0.40492   0.94374   0.00000  Uiso   1.00
C705   C     0.87109   0.35361   0.90443   0.00000  Uiso   1.00
C706   C     0.89746   0.34915   0.85315   0.00000  Uiso   1.00
C707   C     0.88756   0.29869   0.82347   0.00000  Uiso   1.00
C708   C     0.81422   0.42477   0.95510   0.00000  Uiso   1.00
C709   C     0.79277   0.48015   0.94642   0.00000  Uiso   1.00
C710   C     0.73499   0.48961   0.95940   0.00000  Uiso   1.00
C711   C     0.89864   0.38042   0.99805   0.00000  Uiso   1.00
C712   C     0.94816   0.39853   0.02550   0.00000  Uiso   1.00
C713   C     0.96145   0.37066   0.07467   0.00000  Uiso   1.00
H714   H     0.78431   0.28870   0.99851   0.00000  Uiso   1.00
H715   H     0.79903   0.22445   0.91193   0.00000  Uiso   1.00
H716   H     0.69436   0.35543   0.00519   0.00000  Uiso   1.00
H717   H     0.84973   0.27382   0.08426   0.00000  Uiso   1.00
H718   H     0.83077   0.17280   0.80671   0.00000  Uiso   1.00
H719   H     0.61007   0.44899   0.00338   0.00000  Uiso   1.00
H720   H     0.93770   0.27689   0.17012   0.00000  Uiso   1.00
H721   H     0.90330   0.43947   0.92746   0.00000  Uiso   1.00
H722   H     0.92456   0.38350   0.83698   0.00000  Uiso   1.00
H723   H     0.81988   0.51448   0.93024   0.00000  Uiso   1.00
H724   H     0.97525   0.43287   0.00931   0.00000  Uiso   1.00
H725   H     0.93265   0.30189   0.74587   0.00000  Uiso   1.00
H726   H     0.71195   0.57808   0.94255   0.00000  Uiso   1.00
H727   H     0.03958   0.40598   0.10928   0.00000  Uiso   1.00
O728   O     0.89353   0.19781   0.71804   0.00000  Uiso   1.00
O729   O     0.60398   0.56016   0.97608   0.00000  Uiso   1.00
O730   O     0.03382   0.33437   0.19483   0.00000  Uiso   1.00
N731   N     0.85184   0.21085   0.80481   0.00000  Uiso   1.00
N732   N     0.64549   0.46907   0.98868   0.00000  Uiso   1.00
N733   N     0.95179   0.30819   0.14457   0.00000  Uiso   1.00
N734   N     0.90666   0.28032   0.77208   0.00000  Uiso   1.00
N735   N     0.70032   0.53853   0.95595   0.00000  Uiso   1.00
N736   N     0.00661   0.37765   0.11184   0.00000  Uiso   1.00
