data_job_02879
_audit_creation_date              2018-12-19
_audit_creation_method            'Materials Studio'
_symmetry_space_group_name_H-M    'P1'
_symmetry_Int_Tables_number       1
_symmetry_cell_setting            triclinic
loop_
_symmetry_equiv_pos_as_xyz
  x,y,z
_cell_length_a                    35.8830
_cell_length_b                    35.8830
_cell_length_c                    9.9310
_cell_angle_alpha                 90.0000
_cell_angle_beta                  90.0000
_cell_angle_gamma                 90.0000
loop_
_atom_site_label
_atom_site_type_symbol
_atom_site_fract_x
_atom_site_fract_y
_atom_site_fract_z
_atom_site_U_iso_or_equiv
_atom_site_adp_type
_atom_site_occupancy
C1     C     0.90744   0.69906   0.66538   0.00000  Uiso   1.00
C2     C     0.88180   0.73293   0.66094   0.00000  Uiso   1.00
C3     C     0.87644   0.75826   0.76476   0.00000  Uiso   1.00
C4     C     0.85181   0.78736   0.74087   0.00000  Uiso   1.00
C5     C     0.81480   0.83938   0.75276   0.00000  Uiso   1.00
C6     C     0.88298   0.66549   0.63285   0.00000  Uiso   1.00
C7     C     0.87863   0.63412   0.71304   0.00000  Uiso   1.00
C8     C     0.85500   0.60644   0.66549   0.00000  Uiso   1.00
C9     C     0.81987   0.55376   0.63373   0.00000  Uiso   1.00
C10    C     0.93409   0.70331   0.54677   0.00000  Uiso   1.00
C11    C     0.97270   0.70373   0.55457   0.00000  Uiso   1.00
C12    C     0.99210   0.70789   0.43453   0.00000  Uiso   1.00
C13    C     0.03631   0.71393   0.26911   0.00000  Uiso   1.00
C14    C     0.87323   0.70570   0.43834   0.00000  Uiso   1.00
C15    C     0.86321   0.73653   0.53762   0.00000  Uiso   1.00
C16    C     0.83859   0.76560   0.51357   0.00000  Uiso   1.00
C17    C     0.83319   0.79097   0.61733   0.00000  Uiso   1.00
C18    C     0.86440   0.66910   0.50954   0.00000  Uiso   1.00
C19    C     0.84078   0.64146   0.46185   0.00000  Uiso   1.00
C20    C     0.83639   0.61006   0.54195   0.00000  Uiso   1.00
C21    C     0.91551   0.70692   0.42345   0.00000  Uiso   1.00
C22    C     0.93485   0.71108   0.30338   0.00000  Uiso   1.00
C23    C     0.97348   0.71150   0.31099   0.00000  Uiso   1.00
H24    H     0.92191   0.69625   0.76139   0.00000  Uiso   1.00
H25    H     0.89082   0.75545   0.86019   0.00000  Uiso   1.00
H26    H     0.89302   0.63133   0.80846   0.00000  Uiso   1.00
H27    H     0.98707   0.70094   0.65002   0.00000  Uiso   1.00
H28    H     0.84815   0.82267   0.91535   0.00000  Uiso   1.00
H29    H     0.85279   0.56095   0.80628   0.00000  Uiso   1.00
H30    H     0.05113   0.70772   0.47215   0.00000  Uiso   1.00
H31    H     0.85876   0.70851   0.34233   0.00000  Uiso   1.00
H32    H     0.82421   0.76839   0.41813   0.00000  Uiso   1.00
H33    H     0.82641   0.64426   0.36641   0.00000  Uiso   1.00
H34    H     0.92046   0.71387   0.20796   0.00000  Uiso   1.00
H35    H     0.79409   0.83317   0.55656   0.00000  Uiso   1.00
H36    H     0.79873   0.57144   0.44749   0.00000  Uiso   1.00
H37    H     0.99706   0.71822   0.11337   0.00000  Uiso   1.00
O38    O     0.79952   0.86708   0.79340   0.00000  Uiso   1.00
O39    O     0.80562   0.52371   0.65029   0.00000  Uiso   1.00
O40    O     0.06582   0.71627   0.21193   0.00000  Uiso   1.00
N41    N     0.84018   0.81693   0.82050   0.00000  Uiso   1.00
N42    N     0.84451   0.57224   0.71853   0.00000  Uiso   1.00
N43    N     0.02994   0.70945   0.40615   0.00000  Uiso   1.00
N44    N     0.81108   0.82258   0.62744   0.00000  Uiso   1.00
N45    N     0.81542   0.57788   0.52547   0.00000  Uiso   1.00
N46    N     0.00084   0.71509   0.21309   0.00000  Uiso   1.00
C47    C     0.40744   0.19906   0.16538   0.00000  Uiso   1.00
C48    C     0.38180   0.23293   0.16094   0.00000  Uiso   1.00
C49    C     0.37644   0.25826   0.26476   0.00000  Uiso   1.00
C50    C     0.35181   0.28736   0.24087   0.00000  Uiso   1.00
C51    C     0.31480   0.33938   0.25276   0.00000  Uiso   1.00
C52    C     0.38298   0.16549   0.13285   0.00000  Uiso   1.00
C53    C     0.37863   0.13412   0.21304   0.00000  Uiso   1.00
C54    C     0.35500   0.10644   0.16549   0.00000  Uiso   1.00
C55    C     0.31987   0.05376   0.13373   0.00000  Uiso   1.00
C56    C     0.43409   0.20331   0.04677   0.00000  Uiso   1.00
C57    C     0.47270   0.20373   0.05457   0.00000  Uiso   1.00
C58    C     0.49210   0.20789   0.93453   0.00000  Uiso   1.00
C59    C     0.53631   0.21393   0.76911   0.00000  Uiso   1.00
C60    C     0.37323   0.20570   0.93834   0.00000  Uiso   1.00
C61    C     0.36321   0.23653   0.03762   0.00000  Uiso   1.00
C62    C     0.33859   0.26560   0.01357   0.00000  Uiso   1.00
C63    C     0.33319   0.29097   0.11733   0.00000  Uiso   1.00
C64    C     0.36440   0.16910   0.00954   0.00000  Uiso   1.00
C65    C     0.34078   0.14146   0.96185   0.00000  Uiso   1.00
C66    C     0.33639   0.11006   0.04195   0.00000  Uiso   1.00
C67    C     0.41551   0.20692   0.92345   0.00000  Uiso   1.00
C68    C     0.43485   0.21108   0.80338   0.00000  Uiso   1.00
C69    C     0.47348   0.21150   0.81099   0.00000  Uiso   1.00
H70    H     0.42191   0.19625   0.26139   0.00000  Uiso   1.00
H71    H     0.39082   0.25545   0.36019   0.00000  Uiso   1.00
H72    H     0.39302   0.13133   0.30846   0.00000  Uiso   1.00
H73    H     0.48707   0.20094   0.15002   0.00000  Uiso   1.00
H74    H     0.34815   0.32267   0.41535   0.00000  Uiso   1.00
H75    H     0.35279   0.06095   0.30628   0.00000  Uiso   1.00
H76    H     0.55113   0.20772   0.97215   0.00000  Uiso   1.00
H77    H     0.35876   0.20851   0.84233   0.00000  Uiso   1.00
H78    H     0.32421   0.26839   0.91813   0.00000  Uiso   1.00
H79    H     0.32641   0.14426   0.86641   0.00000  Uiso   1.00
H80    H     0.42046   0.21387   0.70796   0.00000  Uiso   1.00
H81    H     0.29409   0.33317   0.05656   0.00000  Uiso   1.00
H82    H     0.29873   0.07144   0.94749   0.00000  Uiso   1.00
H83    H     0.49706   0.21822   0.61337   0.00000  Uiso   1.00
O84    O     0.29952   0.36708   0.29340   0.00000  Uiso   1.00
O85    O     0.30562   0.02371   0.15029   0.00000  Uiso   1.00
O86    O     0.56582   0.21627   0.71193   0.00000  Uiso   1.00
N87    N     0.34018   0.31693   0.32050   0.00000  Uiso   1.00
N88    N     0.34451   0.07224   0.21853   0.00000  Uiso   1.00
N89    N     0.52994   0.20945   0.90615   0.00000  Uiso   1.00
N90    N     0.31108   0.32258   0.12744   0.00000  Uiso   1.00
N91    N     0.31542   0.07788   0.02547   0.00000  Uiso   1.00
N92    N     0.50084   0.21509   0.71309   0.00000  Uiso   1.00
C93    C     0.59256   0.80094   0.16538   0.00000  Uiso   1.00
C94    C     0.61820   0.76707   0.16094   0.00000  Uiso   1.00
C95    C     0.62356   0.74174   0.26476   0.00000  Uiso   1.00
C96    C     0.64819   0.71264   0.24087   0.00000  Uiso   1.00
C97    C     0.68520   0.66062   0.25276   0.00000  Uiso   1.00
C98    C     0.61702   0.83451   0.13285   0.00000  Uiso   1.00
C99    C     0.62137   0.86588   0.21304   0.00000  Uiso   1.00
C100   C     0.64500   0.89356   0.16549   0.00000  Uiso   1.00
C101   C     0.68013   0.94624   0.13373   0.00000  Uiso   1.00
C102   C     0.56591   0.79669   0.04677   0.00000  Uiso   1.00
C103   C     0.52730   0.79627   0.05457   0.00000  Uiso   1.00
C104   C     0.50790   0.79211   0.93453   0.00000  Uiso   1.00
C105   C     0.46369   0.78607   0.76911   0.00000  Uiso   1.00
C106   C     0.62677   0.79430   0.93834   0.00000  Uiso   1.00
C107   C     0.63679   0.76347   0.03762   0.00000  Uiso   1.00
C108   C     0.66141   0.73440   0.01357   0.00000  Uiso   1.00
C109   C     0.66681   0.70903   0.11733   0.00000  Uiso   1.00
C110   C     0.63560   0.83090   0.00954   0.00000  Uiso   1.00
C111   C     0.65922   0.85854   0.96185   0.00000  Uiso   1.00
C112   C     0.66361   0.88994   0.04195   0.00000  Uiso   1.00
C113   C     0.58449   0.79308   0.92345   0.00000  Uiso   1.00
C114   C     0.56515   0.78892   0.80338   0.00000  Uiso   1.00
C115   C     0.52652   0.78850   0.81099   0.00000  Uiso   1.00
H116   H     0.57809   0.80375   0.26139   0.00000  Uiso   1.00
H117   H     0.60918   0.74455   0.36019   0.00000  Uiso   1.00
H118   H     0.60698   0.86867   0.30846   0.00000  Uiso   1.00
H119   H     0.51293   0.79906   0.15002   0.00000  Uiso   1.00
H120   H     0.65185   0.67733   0.41535   0.00000  Uiso   1.00
H121   H     0.64721   0.93905   0.30628   0.00000  Uiso   1.00
H122   H     0.44887   0.79228   0.97215   0.00000  Uiso   1.00
H123   H     0.64124   0.79149   0.84233   0.00000  Uiso   1.00
H124   H     0.67579   0.73161   0.91813   0.00000  Uiso   1.00
H125   H     0.67359   0.85574   0.86641   0.00000  Uiso   1.00
H126   H     0.57954   0.78613   0.70796   0.00000  Uiso   1.00
H127   H     0.70591   0.66683   0.05656   0.00000  Uiso   1.00
H128   H     0.70127   0.92856   0.94749   0.00000  Uiso   1.00
H129   H     0.50294   0.78178   0.61337   0.00000  Uiso   1.00
O130   O     0.70048   0.63292   0.29340   0.00000  Uiso   1.00
O131   O     0.69438   0.97629   0.15029   0.00000  Uiso   1.00
O132   O     0.43418   0.78373   0.71193   0.00000  Uiso   1.00
N133   N     0.65982   0.68307   0.32050   0.00000  Uiso   1.00
N134   N     0.65549   0.92776   0.21853   0.00000  Uiso   1.00
N135   N     0.47006   0.79055   0.90615   0.00000  Uiso   1.00
N136   N     0.68892   0.67742   0.12744   0.00000  Uiso   1.00
N137   N     0.68458   0.92212   0.02547   0.00000  Uiso   1.00
N138   N     0.49916   0.78491   0.71309   0.00000  Uiso   1.00
C139   C     0.09256   0.30094   0.66538   0.00000  Uiso   1.00
C140   C     0.11820   0.26707   0.66094   0.00000  Uiso   1.00
C141   C     0.12356   0.24174   0.76476   0.00000  Uiso   1.00
C142   C     0.14819   0.21264   0.74087   0.00000  Uiso   1.00
C143   C     0.18520   0.16062   0.75276   0.00000  Uiso   1.00
C144   C     0.11702   0.33451   0.63285   0.00000  Uiso   1.00
C145   C     0.12137   0.36588   0.71304   0.00000  Uiso   1.00
C146   C     0.14500   0.39356   0.66549   0.00000  Uiso   1.00
C147   C     0.18013   0.44624   0.63373   0.00000  Uiso   1.00
C148   C     0.06591   0.29669   0.54677   0.00000  Uiso   1.00
C149   C     0.02730   0.29627   0.55457   0.00000  Uiso   1.00
C150   C     0.00790   0.29211   0.43453   0.00000  Uiso   1.00
C151   C     0.96369   0.28607   0.26911   0.00000  Uiso   1.00
C152   C     0.12677   0.29430   0.43834   0.00000  Uiso   1.00
C153   C     0.13679   0.26347   0.53762   0.00000  Uiso   1.00
C154   C     0.16141   0.23440   0.51357   0.00000  Uiso   1.00
C155   C     0.16681   0.20903   0.61733   0.00000  Uiso   1.00
C156   C     0.13560   0.33090   0.50954   0.00000  Uiso   1.00
C157   C     0.15922   0.35854   0.46185   0.00000  Uiso   1.00
C158   C     0.16361   0.38994   0.54195   0.00000  Uiso   1.00
C159   C     0.08449   0.29308   0.42345   0.00000  Uiso   1.00
C160   C     0.06515   0.28892   0.30338   0.00000  Uiso   1.00
C161   C     0.02652   0.28850   0.31099   0.00000  Uiso   1.00
H162   H     0.07809   0.30375   0.76139   0.00000  Uiso   1.00
H163   H     0.10918   0.24455   0.86019   0.00000  Uiso   1.00
H164   H     0.10698   0.36867   0.80846   0.00000  Uiso   1.00
H165   H     0.01293   0.29906   0.65002   0.00000  Uiso   1.00
H166   H     0.15185   0.17733   0.91535   0.00000  Uiso   1.00
H167   H     0.14721   0.43905   0.80628   0.00000  Uiso   1.00
H168   H     0.94887   0.29228   0.47215   0.00000  Uiso   1.00
H169   H     0.14124   0.29149   0.34233   0.00000  Uiso   1.00
H170   H     0.17579   0.23161   0.41813   0.00000  Uiso   1.00
H171   H     0.17359   0.35574   0.36641   0.00000  Uiso   1.00
H172   H     0.07954   0.28613   0.20796   0.00000  Uiso   1.00
H173   H     0.20591   0.16683   0.55656   0.00000  Uiso   1.00
H174   H     0.20127   0.42856   0.44749   0.00000  Uiso   1.00
H175   H     0.00294   0.28178   0.11337   0.00000  Uiso   1.00
O176   O     0.20048   0.13292   0.79340   0.00000  Uiso   1.00
O177   O     0.19438   0.47629   0.65029   0.00000  Uiso   1.00
O178   O     0.93418   0.28373   0.21193   0.00000  Uiso   1.00
N179   N     0.15982   0.18307   0.82050   0.00000  Uiso   1.00
N180   N     0.15549   0.42776   0.71853   0.00000  Uiso   1.00
N181   N     0.97006   0.29055   0.40615   0.00000  Uiso   1.00
N182   N     0.18892   0.17742   0.62744   0.00000  Uiso   1.00
N183   N     0.18458   0.42212   0.52547   0.00000  Uiso   1.00
N184   N     0.99916   0.28491   0.21309   0.00000  Uiso   1.00
C185   C     0.30094   0.40744   0.91538   0.00000  Uiso   1.00
C186   C     0.26707   0.38180   0.91094   0.00000  Uiso   1.00
C187   C     0.24174   0.37644   0.01476   0.00000  Uiso   1.00
C188   C     0.21264   0.35181   0.99087   0.00000  Uiso   1.00
C189   C     0.16062   0.31480   0.00276   0.00000  Uiso   1.00
C190   C     0.33451   0.38298   0.88285   0.00000  Uiso   1.00
C191   C     0.36588   0.37863   0.96304   0.00000  Uiso   1.00
C192   C     0.39356   0.35500   0.91549   0.00000  Uiso   1.00
C193   C     0.44624   0.31987   0.88373   0.00000  Uiso   1.00
C194   C     0.29669   0.43409   0.79677   0.00000  Uiso   1.00
C195   C     0.29627   0.47270   0.80457   0.00000  Uiso   1.00
C196   C     0.29211   0.49210   0.68453   0.00000  Uiso   1.00
C197   C     0.28607   0.53631   0.51911   0.00000  Uiso   1.00
C198   C     0.29430   0.37323   0.68834   0.00000  Uiso   1.00
C199   C     0.26347   0.36321   0.78762   0.00000  Uiso   1.00
C200   C     0.23440   0.33859   0.76357   0.00000  Uiso   1.00
C201   C     0.20903   0.33319   0.86733   0.00000  Uiso   1.00
C202   C     0.33090   0.36440   0.75954   0.00000  Uiso   1.00
C203   C     0.35854   0.34078   0.71185   0.00000  Uiso   1.00
C204   C     0.38994   0.33639   0.79195   0.00000  Uiso   1.00
C205   C     0.29308   0.41551   0.67345   0.00000  Uiso   1.00
C206   C     0.28892   0.43485   0.55338   0.00000  Uiso   1.00
C207   C     0.28850   0.47348   0.56099   0.00000  Uiso   1.00
H208   H     0.30375   0.42191   0.01139   0.00000  Uiso   1.00
H209   H     0.24455   0.39082   0.11019   0.00000  Uiso   1.00
H210   H     0.36867   0.39302   0.05846   0.00000  Uiso   1.00
H211   H     0.29906   0.48707   0.90002   0.00000  Uiso   1.00
H212   H     0.17733   0.34815   0.16535   0.00000  Uiso   1.00
H213   H     0.43905   0.35279   0.05628   0.00000  Uiso   1.00
H214   H     0.29228   0.55113   0.72215   0.00000  Uiso   1.00
H215   H     0.29149   0.35876   0.59233   0.00000  Uiso   1.00
H216   H     0.23161   0.32421   0.66813   0.00000  Uiso   1.00
H217   H     0.35574   0.32641   0.61641   0.00000  Uiso   1.00
H218   H     0.28613   0.42046   0.45796   0.00000  Uiso   1.00
H219   H     0.16683   0.29409   0.80656   0.00000  Uiso   1.00
H220   H     0.42856   0.29873   0.69749   0.00000  Uiso   1.00
H221   H     0.28178   0.49706   0.36337   0.00000  Uiso   1.00
O222   O     0.13292   0.29952   0.04340   0.00000  Uiso   1.00
O223   O     0.47629   0.30562   0.90029   0.00000  Uiso   1.00
O224   O     0.28373   0.56582   0.46193   0.00000  Uiso   1.00
N225   N     0.18307   0.34018   0.07050   0.00000  Uiso   1.00
N226   N     0.42776   0.34451   0.96853   0.00000  Uiso   1.00
N227   N     0.29055   0.52994   0.65615   0.00000  Uiso   1.00
N228   N     0.17742   0.31108   0.87744   0.00000  Uiso   1.00
N229   N     0.42212   0.31542   0.77547   0.00000  Uiso   1.00
N230   N     0.28491   0.50084   0.46309   0.00000  Uiso   1.00
C231   C     0.80094   0.90744   0.41538   0.00000  Uiso   1.00
C232   C     0.76707   0.88180   0.41094   0.00000  Uiso   1.00
C233   C     0.74174   0.87644   0.51476   0.00000  Uiso   1.00
C234   C     0.71264   0.85181   0.49087   0.00000  Uiso   1.00
C235   C     0.66062   0.81480   0.50276   0.00000  Uiso   1.00
C236   C     0.83451   0.88298   0.38285   0.00000  Uiso   1.00
C237   C     0.86588   0.87863   0.46304   0.00000  Uiso   1.00
C238   C     0.89356   0.85500   0.41549   0.00000  Uiso   1.00
C239   C     0.94624   0.81987   0.38373   0.00000  Uiso   1.00
C240   C     0.79669   0.93409   0.29677   0.00000  Uiso   1.00
C241   C     0.79627   0.97270   0.30457   0.00000  Uiso   1.00
C242   C     0.79211   0.99210   0.18453   0.00000  Uiso   1.00
C243   C     0.78607   0.03631   0.01911   0.00000  Uiso   1.00
C244   C     0.79430   0.87323   0.18834   0.00000  Uiso   1.00
C245   C     0.76347   0.86321   0.28762   0.00000  Uiso   1.00
C246   C     0.73440   0.83859   0.26357   0.00000  Uiso   1.00
C247   C     0.70903   0.83319   0.36733   0.00000  Uiso   1.00
C248   C     0.83090   0.86440   0.25954   0.00000  Uiso   1.00
C249   C     0.85854   0.84078   0.21185   0.00000  Uiso   1.00
C250   C     0.88994   0.83639   0.29195   0.00000  Uiso   1.00
C251   C     0.79308   0.91551   0.17345   0.00000  Uiso   1.00
C252   C     0.78892   0.93485   0.05338   0.00000  Uiso   1.00
C253   C     0.78850   0.97348   0.06099   0.00000  Uiso   1.00
H254   H     0.80375   0.92191   0.51139   0.00000  Uiso   1.00
H255   H     0.74455   0.89082   0.61019   0.00000  Uiso   1.00
H256   H     0.86867   0.89302   0.55846   0.00000  Uiso   1.00
H257   H     0.79906   0.98707   0.40002   0.00000  Uiso   1.00
H258   H     0.67733   0.84815   0.66535   0.00000  Uiso   1.00
H259   H     0.93905   0.85279   0.55628   0.00000  Uiso   1.00
H260   H     0.79228   0.05113   0.22215   0.00000  Uiso   1.00
H261   H     0.79149   0.85876   0.09233   0.00000  Uiso   1.00
H262   H     0.73161   0.82421   0.16813   0.00000  Uiso   1.00
H263   H     0.85574   0.82641   0.11641   0.00000  Uiso   1.00
H264   H     0.78613   0.92046   0.95796   0.00000  Uiso   1.00
H265   H     0.66683   0.79409   0.30656   0.00000  Uiso   1.00
H266   H     0.92856   0.79873   0.19749   0.00000  Uiso   1.00
H267   H     0.78178   0.99706   0.86337   0.00000  Uiso   1.00
O268   O     0.63292   0.79952   0.54340   0.00000  Uiso   1.00
O269   O     0.97629   0.80562   0.40029   0.00000  Uiso   1.00
O270   O     0.78373   0.06582   0.96193   0.00000  Uiso   1.00
N271   N     0.68307   0.84018   0.57050   0.00000  Uiso   1.00
N272   N     0.92776   0.84451   0.46853   0.00000  Uiso   1.00
N273   N     0.79055   0.02994   0.15615   0.00000  Uiso   1.00
N274   N     0.67742   0.81108   0.37744   0.00000  Uiso   1.00
N275   N     0.92212   0.81542   0.27547   0.00000  Uiso   1.00
N276   N     0.78491   0.00084   0.96309   0.00000  Uiso   1.00
C277   C     0.19906   0.09256   0.41538   0.00000  Uiso   1.00
C278   C     0.23293   0.11820   0.41094   0.00000  Uiso   1.00
C279   C     0.25826   0.12356   0.51476   0.00000  Uiso   1.00
C280   C     0.28736   0.14819   0.49087   0.00000  Uiso   1.00
C281   C     0.33938   0.18520   0.50276   0.00000  Uiso   1.00
C282   C     0.16549   0.11702   0.38285   0.00000  Uiso   1.00
C283   C     0.13412   0.12137   0.46304   0.00000  Uiso   1.00
C284   C     0.10644   0.14500   0.41549   0.00000  Uiso   1.00
C285   C     0.05376   0.18013   0.38373   0.00000  Uiso   1.00
C286   C     0.20331   0.06591   0.29677   0.00000  Uiso   1.00
C287   C     0.20373   0.02730   0.30457   0.00000  Uiso   1.00
C288   C     0.20789   0.00790   0.18453   0.00000  Uiso   1.00
C289   C     0.21393   0.96369   0.01911   0.00000  Uiso   1.00
C290   C     0.20570   0.12677   0.18834   0.00000  Uiso   1.00
C291   C     0.23653   0.13679   0.28762   0.00000  Uiso   1.00
C292   C     0.26560   0.16141   0.26357   0.00000  Uiso   1.00
C293   C     0.29097   0.16681   0.36733   0.00000  Uiso   1.00
C294   C     0.16910   0.13560   0.25954   0.00000  Uiso   1.00
C295   C     0.14146   0.15922   0.21185   0.00000  Uiso   1.00
C296   C     0.11006   0.16361   0.29195   0.00000  Uiso   1.00
C297   C     0.20692   0.08449   0.17345   0.00000  Uiso   1.00
C298   C     0.21108   0.06515   0.05338   0.00000  Uiso   1.00
C299   C     0.21150   0.02652   0.06099   0.00000  Uiso   1.00
H300   H     0.19625   0.07809   0.51139   0.00000  Uiso   1.00
H301   H     0.25545   0.10918   0.61019   0.00000  Uiso   1.00
H302   H     0.13133   0.10698   0.55846   0.00000  Uiso   1.00
H303   H     0.20094   0.01293   0.40002   0.00000  Uiso   1.00
H304   H     0.32267   0.15185   0.66535   0.00000  Uiso   1.00
H305   H     0.06095   0.14721   0.55628   0.00000  Uiso   1.00
H306   H     0.20772   0.94887   0.22215   0.00000  Uiso   1.00
H307   H     0.20851   0.14124   0.09233   0.00000  Uiso   1.00
H308   H     0.26839   0.17579   0.16813   0.00000  Uiso   1.00
H309   H     0.14426   0.17359   0.11641   0.00000  Uiso   1.00
H310   H     0.21387   0.07954   0.95796   0.00000  Uiso   1.00
H311   H     0.33317   0.20591   0.30656   0.00000  Uiso   1.00
H312   H     0.07144   0.20127   0.19749   0.00000  Uiso   1.00
H313   H     0.21822   0.00294   0.86337   0.00000  Uiso   1.00
O314   O     0.36708   0.20048   0.54340   0.00000  Uiso   1.00
O315   O     0.02371   0.19438   0.40029   0.00000  Uiso   1.00
O316   O     0.21627   0.93418   0.96193   0.00000  Uiso   1.00
N317   N     0.31693   0.15982   0.57050   0.00000  Uiso   1.00
N318   N     0.07224   0.15549   0.46853   0.00000  Uiso   1.00
N319   N     0.20945   0.97006   0.15615   0.00000  Uiso   1.00
N320   N     0.32258   0.18892   0.37744   0.00000  Uiso   1.00
N321   N     0.07788   0.18458   0.27547   0.00000  Uiso   1.00
N322   N     0.21509   0.99916   0.96309   0.00000  Uiso   1.00
C323   C     0.69906   0.59256   0.91538   0.00000  Uiso   1.00
C324   C     0.73293   0.61820   0.91094   0.00000  Uiso   1.00
C325   C     0.75826   0.62356   0.01476   0.00000  Uiso   1.00
C326   C     0.78736   0.64819   0.99087   0.00000  Uiso   1.00
C327   C     0.83938   0.68520   0.00276   0.00000  Uiso   1.00
C328   C     0.66549   0.61702   0.88285   0.00000  Uiso   1.00
C329   C     0.63412   0.62137   0.96304   0.00000  Uiso   1.00
C330   C     0.60644   0.64500   0.91549   0.00000  Uiso   1.00
C331   C     0.55376   0.68013   0.88373   0.00000  Uiso   1.00
C332   C     0.70331   0.56591   0.79677   0.00000  Uiso   1.00
C333   C     0.70373   0.52730   0.80457   0.00000  Uiso   1.00
C334   C     0.70789   0.50790   0.68453   0.00000  Uiso   1.00
C335   C     0.71393   0.46369   0.51911   0.00000  Uiso   1.00
C336   C     0.70570   0.62677   0.68834   0.00000  Uiso   1.00
C337   C     0.73653   0.63679   0.78762   0.00000  Uiso   1.00
C338   C     0.76560   0.66141   0.76357   0.00000  Uiso   1.00
C339   C     0.79097   0.66681   0.86733   0.00000  Uiso   1.00
C340   C     0.66910   0.63560   0.75954   0.00000  Uiso   1.00
C341   C     0.64146   0.65922   0.71185   0.00000  Uiso   1.00
C342   C     0.61006   0.66361   0.79195   0.00000  Uiso   1.00
C343   C     0.70692   0.58449   0.67345   0.00000  Uiso   1.00
C344   C     0.71108   0.56515   0.55338   0.00000  Uiso   1.00
C345   C     0.71150   0.52652   0.56099   0.00000  Uiso   1.00
H346   H     0.69625   0.57809   0.01139   0.00000  Uiso   1.00
H347   H     0.75545   0.60918   0.11019   0.00000  Uiso   1.00
H348   H     0.63133   0.60698   0.05846   0.00000  Uiso   1.00
H349   H     0.70094   0.51293   0.90002   0.00000  Uiso   1.00
H350   H     0.82267   0.65185   0.16535   0.00000  Uiso   1.00
H351   H     0.56095   0.64721   0.05628   0.00000  Uiso   1.00
H352   H     0.70772   0.44887   0.72215   0.00000  Uiso   1.00
H353   H     0.70851   0.64124   0.59233   0.00000  Uiso   1.00
H354   H     0.76839   0.67579   0.66813   0.00000  Uiso   1.00
H355   H     0.64426   0.67359   0.61641   0.00000  Uiso   1.00
H356   H     0.71387   0.57954   0.45796   0.00000  Uiso   1.00
H357   H     0.83317   0.70591   0.80656   0.00000  Uiso   1.00
H358   H     0.57144   0.70127   0.69749   0.00000  Uiso   1.00
H359   H     0.71822   0.50294   0.36337   0.00000  Uiso   1.00
O360   O     0.86708   0.70048   0.04340   0.00000  Uiso   1.00
O361   O     0.52371   0.69438   0.90029   0.00000  Uiso   1.00
O362   O     0.71627   0.43418   0.46193   0.00000  Uiso   1.00
N363   N     0.81693   0.65982   0.07050   0.00000  Uiso   1.00
N364   N     0.57224   0.65549   0.96853   0.00000  Uiso   1.00
N365   N     0.70945   0.47006   0.65615   0.00000  Uiso   1.00
N366   N     0.82258   0.68892   0.87744   0.00000  Uiso   1.00
N367   N     0.57788   0.68458   0.77547   0.00000  Uiso   1.00
N368   N     0.71509   0.49916   0.46309   0.00000  Uiso   1.00
C369   C     0.09256   0.80094   0.58462   0.00000  Uiso   1.00
C370   C     0.11820   0.76707   0.58906   0.00000  Uiso   1.00
C371   C     0.12356   0.74174   0.48524   0.00000  Uiso   1.00
C372   C     0.14819   0.71264   0.50913   0.00000  Uiso   1.00
C373   C     0.18520   0.66062   0.49724   0.00000  Uiso   1.00
C374   C     0.11702   0.83451   0.61715   0.00000  Uiso   1.00
C375   C     0.12137   0.86588   0.53696   0.00000  Uiso   1.00
C376   C     0.14500   0.89356   0.58451   0.00000  Uiso   1.00
C377   C     0.18013   0.94624   0.61627   0.00000  Uiso   1.00
C378   C     0.06591   0.79669   0.70323   0.00000  Uiso   1.00
C379   C     0.02730   0.79627   0.69543   0.00000  Uiso   1.00
C380   C     0.00790   0.79211   0.81547   0.00000  Uiso   1.00
C381   C     0.96369   0.78607   0.98089   0.00000  Uiso   1.00
C382   C     0.12677   0.79430   0.81166   0.00000  Uiso   1.00
C383   C     0.13679   0.76347   0.71238   0.00000  Uiso   1.00
C384   C     0.16141   0.73440   0.73643   0.00000  Uiso   1.00
C385   C     0.16681   0.70903   0.63267   0.00000  Uiso   1.00
C386   C     0.13560   0.83090   0.74046   0.00000  Uiso   1.00
C387   C     0.15922   0.85854   0.78815   0.00000  Uiso   1.00
C388   C     0.16361   0.88994   0.70805   0.00000  Uiso   1.00
C389   C     0.08449   0.79308   0.82655   0.00000  Uiso   1.00
C390   C     0.06515   0.78892   0.94662   0.00000  Uiso   1.00
C391   C     0.02652   0.78850   0.93901   0.00000  Uiso   1.00
H392   H     0.07809   0.80375   0.48861   0.00000  Uiso   1.00
H393   H     0.10918   0.74455   0.38981   0.00000  Uiso   1.00
H394   H     0.10698   0.86867   0.44154   0.00000  Uiso   1.00
H395   H     0.01293   0.79906   0.59998   0.00000  Uiso   1.00
H396   H     0.15185   0.67733   0.33465   0.00000  Uiso   1.00
H397   H     0.14721   0.93905   0.44372   0.00000  Uiso   1.00
H398   H     0.94887   0.79228   0.77785   0.00000  Uiso   1.00
H399   H     0.14124   0.79149   0.90767   0.00000  Uiso   1.00
H400   H     0.17579   0.73161   0.83187   0.00000  Uiso   1.00
H401   H     0.17359   0.85574   0.88359   0.00000  Uiso   1.00
H402   H     0.07954   0.78613   0.04204   0.00000  Uiso   1.00
H403   H     0.20591   0.66683   0.69344   0.00000  Uiso   1.00
H404   H     0.20127   0.92856   0.80251   0.00000  Uiso   1.00
H405   H     0.00294   0.78178   0.13663   0.00000  Uiso   1.00
O406   O     0.20048   0.63292   0.45660   0.00000  Uiso   1.00
O407   O     0.19438   0.97629   0.59971   0.00000  Uiso   1.00
O408   O     0.93418   0.78373   0.03807   0.00000  Uiso   1.00
N409   N     0.15982   0.68307   0.42950   0.00000  Uiso   1.00
N410   N     0.15549   0.92776   0.53147   0.00000  Uiso   1.00
N411   N     0.97006   0.79055   0.84385   0.00000  Uiso   1.00
N412   N     0.18892   0.67742   0.62256   0.00000  Uiso   1.00
N413   N     0.18458   0.92212   0.72453   0.00000  Uiso   1.00
N414   N     0.99916   0.78491   0.03691   0.00000  Uiso   1.00
C415   C     0.59256   0.30094   0.08462   0.00000  Uiso   1.00
C416   C     0.61820   0.26707   0.08906   0.00000  Uiso   1.00
C417   C     0.62356   0.24174   0.98524   0.00000  Uiso   1.00
C418   C     0.64819   0.21264   0.00913   0.00000  Uiso   1.00
C419   C     0.68520   0.16062   0.99724   0.00000  Uiso   1.00
C420   C     0.61702   0.33451   0.11715   0.00000  Uiso   1.00
C421   C     0.62137   0.36588   0.03696   0.00000  Uiso   1.00
C422   C     0.64500   0.39356   0.08451   0.00000  Uiso   1.00
C423   C     0.68013   0.44624   0.11627   0.00000  Uiso   1.00
C424   C     0.56591   0.29669   0.20323   0.00000  Uiso   1.00
C425   C     0.52730   0.29627   0.19543   0.00000  Uiso   1.00
C426   C     0.50790   0.29211   0.31547   0.00000  Uiso   1.00
C427   C     0.46369   0.28607   0.48089   0.00000  Uiso   1.00
C428   C     0.62677   0.29430   0.31166   0.00000  Uiso   1.00
C429   C     0.63679   0.26347   0.21238   0.00000  Uiso   1.00
C430   C     0.66141   0.23440   0.23643   0.00000  Uiso   1.00
C431   C     0.66681   0.20903   0.13267   0.00000  Uiso   1.00
C432   C     0.63560   0.33090   0.24046   0.00000  Uiso   1.00
C433   C     0.65922   0.35854   0.28815   0.00000  Uiso   1.00
C434   C     0.66361   0.38994   0.20805   0.00000  Uiso   1.00
C435   C     0.58449   0.29308   0.32655   0.00000  Uiso   1.00
C436   C     0.56515   0.28892   0.44662   0.00000  Uiso   1.00
C437   C     0.52652   0.28850   0.43901   0.00000  Uiso   1.00
H438   H     0.57809   0.30375   0.98861   0.00000  Uiso   1.00
H439   H     0.60918   0.24455   0.88981   0.00000  Uiso   1.00
H440   H     0.60698   0.36867   0.94154   0.00000  Uiso   1.00
H441   H     0.51293   0.29906   0.09998   0.00000  Uiso   1.00
H442   H     0.65185   0.17733   0.83465   0.00000  Uiso   1.00
H443   H     0.64721   0.43905   0.94372   0.00000  Uiso   1.00
H444   H     0.44887   0.29228   0.27785   0.00000  Uiso   1.00
H445   H     0.64124   0.29149   0.40767   0.00000  Uiso   1.00
H446   H     0.67579   0.23161   0.33187   0.00000  Uiso   1.00
H447   H     0.67359   0.35574   0.38359   0.00000  Uiso   1.00
H448   H     0.57954   0.28613   0.54204   0.00000  Uiso   1.00
H449   H     0.70591   0.16683   0.19344   0.00000  Uiso   1.00
H450   H     0.70127   0.42856   0.30251   0.00000  Uiso   1.00
H451   H     0.50294   0.28178   0.63663   0.00000  Uiso   1.00
O452   O     0.70048   0.13292   0.95660   0.00000  Uiso   1.00
O453   O     0.69438   0.47629   0.09971   0.00000  Uiso   1.00
O454   O     0.43418   0.28373   0.53807   0.00000  Uiso   1.00
N455   N     0.65982   0.18307   0.92950   0.00000  Uiso   1.00
N456   N     0.65549   0.42776   0.03147   0.00000  Uiso   1.00
N457   N     0.47006   0.29055   0.34385   0.00000  Uiso   1.00
N458   N     0.68892   0.17742   0.12256   0.00000  Uiso   1.00
N459   N     0.68458   0.42212   0.22453   0.00000  Uiso   1.00
N460   N     0.49916   0.28491   0.53691   0.00000  Uiso   1.00
C461   C     0.40744   0.69906   0.08462   0.00000  Uiso   1.00
C462   C     0.38180   0.73293   0.08906   0.00000  Uiso   1.00
C463   C     0.37644   0.75826   0.98524   0.00000  Uiso   1.00
C464   C     0.35181   0.78736   0.00913   0.00000  Uiso   1.00
C465   C     0.31480   0.83938   0.99724   0.00000  Uiso   1.00
C466   C     0.38298   0.66549   0.11715   0.00000  Uiso   1.00
C467   C     0.37863   0.63412   0.03696   0.00000  Uiso   1.00
C468   C     0.35500   0.60644   0.08451   0.00000  Uiso   1.00
C469   C     0.31987   0.55376   0.11627   0.00000  Uiso   1.00
C470   C     0.43409   0.70331   0.20323   0.00000  Uiso   1.00
C471   C     0.47270   0.70373   0.19543   0.00000  Uiso   1.00
C472   C     0.49210   0.70789   0.31547   0.00000  Uiso   1.00
C473   C     0.53631   0.71393   0.48089   0.00000  Uiso   1.00
C474   C     0.37323   0.70570   0.31166   0.00000  Uiso   1.00
C475   C     0.36321   0.73653   0.21238   0.00000  Uiso   1.00
C476   C     0.33859   0.76560   0.23643   0.00000  Uiso   1.00
C477   C     0.33319   0.79097   0.13267   0.00000  Uiso   1.00
C478   C     0.36440   0.66910   0.24046   0.00000  Uiso   1.00
C479   C     0.34078   0.64146   0.28815   0.00000  Uiso   1.00
C480   C     0.33639   0.61006   0.20805   0.00000  Uiso   1.00
C481   C     0.41551   0.70692   0.32655   0.00000  Uiso   1.00
C482   C     0.43485   0.71108   0.44662   0.00000  Uiso   1.00
C483   C     0.47348   0.71150   0.43901   0.00000  Uiso   1.00
H484   H     0.42191   0.69625   0.98861   0.00000  Uiso   1.00
H485   H     0.39082   0.75545   0.88981   0.00000  Uiso   1.00
H486   H     0.39302   0.63133   0.94154   0.00000  Uiso   1.00
H487   H     0.48707   0.70094   0.09998   0.00000  Uiso   1.00
H488   H     0.34815   0.82267   0.83465   0.00000  Uiso   1.00
H489   H     0.35279   0.56095   0.94372   0.00000  Uiso   1.00
H490   H     0.55113   0.70772   0.27785   0.00000  Uiso   1.00
H491   H     0.35876   0.70851   0.40767   0.00000  Uiso   1.00
H492   H     0.32421   0.76839   0.33187   0.00000  Uiso   1.00
H493   H     0.32641   0.64426   0.38359   0.00000  Uiso   1.00
H494   H     0.42046   0.71387   0.54204   0.00000  Uiso   1.00
H495   H     0.29409   0.83317   0.19344   0.00000  Uiso   1.00
H496   H     0.29873   0.57144   0.30251   0.00000  Uiso   1.00
H497   H     0.49706   0.71822   0.63663   0.00000  Uiso   1.00
O498   O     0.29952   0.86708   0.95660   0.00000  Uiso   1.00
O499   O     0.30562   0.52371   0.09971   0.00000  Uiso   1.00
O500   O     0.56582   0.71627   0.53807   0.00000  Uiso   1.00
N501   N     0.34018   0.81693   0.92950   0.00000  Uiso   1.00
N502   N     0.34451   0.57224   0.03147   0.00000  Uiso   1.00
N503   N     0.52994   0.70945   0.34385   0.00000  Uiso   1.00
N504   N     0.31108   0.82258   0.12256   0.00000  Uiso   1.00
N505   N     0.31542   0.57788   0.22453   0.00000  Uiso   1.00
N506   N     0.50084   0.71509   0.53691   0.00000  Uiso   1.00
C507   C     0.90744   0.19906   0.58462   0.00000  Uiso   1.00
C508   C     0.88180   0.23293   0.58906   0.00000  Uiso   1.00
C509   C     0.87644   0.25826   0.48524   0.00000  Uiso   1.00
C510   C     0.85181   0.28736   0.50913   0.00000  Uiso   1.00
C511   C     0.81480   0.33938   0.49724   0.00000  Uiso   1.00
C512   C     0.88298   0.16549   0.61715   0.00000  Uiso   1.00
C513   C     0.87863   0.13412   0.53696   0.00000  Uiso   1.00
C514   C     0.85500   0.10644   0.58451   0.00000  Uiso   1.00
C515   C     0.81987   0.05376   0.61627   0.00000  Uiso   1.00
C516   C     0.93409   0.20331   0.70323   0.00000  Uiso   1.00
C517   C     0.97270   0.20373   0.69543   0.00000  Uiso   1.00
C518   C     0.99210   0.20789   0.81547   0.00000  Uiso   1.00
C519   C     0.03631   0.21393   0.98089   0.00000  Uiso   1.00
C520   C     0.87323   0.20570   0.81166   0.00000  Uiso   1.00
C521   C     0.86321   0.23653   0.71238   0.00000  Uiso   1.00
C522   C     0.83859   0.26560   0.73643   0.00000  Uiso   1.00
C523   C     0.83319   0.29097   0.63267   0.00000  Uiso   1.00
C524   C     0.86440   0.16910   0.74046   0.00000  Uiso   1.00
C525   C     0.84078   0.14146   0.78815   0.00000  Uiso   1.00
C526   C     0.83639   0.11006   0.70805   0.00000  Uiso   1.00
C527   C     0.91551   0.20692   0.82655   0.00000  Uiso   1.00
C528   C     0.93485   0.21108   0.94662   0.00000  Uiso   1.00
C529   C     0.97348   0.21150   0.93901   0.00000  Uiso   1.00
H530   H     0.92191   0.19625   0.48861   0.00000  Uiso   1.00
H531   H     0.89082   0.25545   0.38981   0.00000  Uiso   1.00
H532   H     0.89302   0.13133   0.44154   0.00000  Uiso   1.00
H533   H     0.98707   0.20094   0.59998   0.00000  Uiso   1.00
H534   H     0.84815   0.32267   0.33465   0.00000  Uiso   1.00
H535   H     0.85279   0.06095   0.44372   0.00000  Uiso   1.00
H536   H     0.05113   0.20772   0.77785   0.00000  Uiso   1.00
H537   H     0.85876   0.20851   0.90767   0.00000  Uiso   1.00
H538   H     0.82421   0.26839   0.83187   0.00000  Uiso   1.00
H539   H     0.82641   0.14426   0.88359   0.00000  Uiso   1.00
H540   H     0.92046   0.21387   0.04204   0.00000  Uiso   1.00
H541   H     0.79409   0.33317   0.69344   0.00000  Uiso   1.00
H542   H     0.79873   0.07144   0.80251   0.00000  Uiso   1.00
H543   H     0.99706   0.21822   0.13663   0.00000  Uiso   1.00
O544   O     0.79952   0.36708   0.45660   0.00000  Uiso   1.00
O545   O     0.80562   0.02371   0.59971   0.00000  Uiso   1.00
O546   O     0.06582   0.21627   0.03807   0.00000  Uiso   1.00
N547   N     0.84018   0.31693   0.42950   0.00000  Uiso   1.00
N548   N     0.84451   0.07224   0.53147   0.00000  Uiso   1.00
N549   N     0.02994   0.20945   0.84385   0.00000  Uiso   1.00
N550   N     0.81108   0.32258   0.62256   0.00000  Uiso   1.00
N551   N     0.81542   0.07788   0.72453   0.00000  Uiso   1.00
N552   N     0.00084   0.21509   0.03691   0.00000  Uiso   1.00
C553   C     0.69906   0.09256   0.33462   0.00000  Uiso   1.00
C554   C     0.73293   0.11820   0.33906   0.00000  Uiso   1.00
C555   C     0.75826   0.12356   0.23524   0.00000  Uiso   1.00
C556   C     0.78736   0.14819   0.25913   0.00000  Uiso   1.00
C557   C     0.83938   0.18520   0.24724   0.00000  Uiso   1.00
C558   C     0.66549   0.11702   0.36715   0.00000  Uiso   1.00
C559   C     0.63412   0.12137   0.28696   0.00000  Uiso   1.00
C560   C     0.60644   0.14500   0.33451   0.00000  Uiso   1.00
C561   C     0.55376   0.18013   0.36627   0.00000  Uiso   1.00
C562   C     0.70331   0.06591   0.45323   0.00000  Uiso   1.00
C563   C     0.70373   0.02730   0.44543   0.00000  Uiso   1.00
C564   C     0.70789   0.00790   0.56547   0.00000  Uiso   1.00
C565   C     0.71393   0.96369   0.73089   0.00000  Uiso   1.00
C566   C     0.70570   0.12677   0.56166   0.00000  Uiso   1.00
C567   C     0.73653   0.13679   0.46238   0.00000  Uiso   1.00
C568   C     0.76560   0.16141   0.48643   0.00000  Uiso   1.00
C569   C     0.79097   0.16681   0.38267   0.00000  Uiso   1.00
C570   C     0.66910   0.13560   0.49046   0.00000  Uiso   1.00
C571   C     0.64146   0.15922   0.53815   0.00000  Uiso   1.00
C572   C     0.61006   0.16361   0.45805   0.00000  Uiso   1.00
C573   C     0.70692   0.08449   0.57655   0.00000  Uiso   1.00
C574   C     0.71108   0.06515   0.69662   0.00000  Uiso   1.00
C575   C     0.71150   0.02652   0.68901   0.00000  Uiso   1.00
H576   H     0.69625   0.07809   0.23861   0.00000  Uiso   1.00
H577   H     0.75545   0.10918   0.13981   0.00000  Uiso   1.00
H578   H     0.63133   0.10698   0.19154   0.00000  Uiso   1.00
H579   H     0.70094   0.01293   0.34998   0.00000  Uiso   1.00
H580   H     0.82267   0.15185   0.08465   0.00000  Uiso   1.00
H581   H     0.56095   0.14721   0.19372   0.00000  Uiso   1.00
H582   H     0.70772   0.94887   0.52785   0.00000  Uiso   1.00
H583   H     0.70851   0.14124   0.65767   0.00000  Uiso   1.00
H584   H     0.76839   0.17579   0.58187   0.00000  Uiso   1.00
H585   H     0.64426   0.17359   0.63359   0.00000  Uiso   1.00
H586   H     0.71387   0.07954   0.79204   0.00000  Uiso   1.00
H587   H     0.83317   0.20591   0.44344   0.00000  Uiso   1.00
H588   H     0.57144   0.20127   0.55251   0.00000  Uiso   1.00
H589   H     0.71822   0.00294   0.88663   0.00000  Uiso   1.00
O590   O     0.86708   0.20048   0.20660   0.00000  Uiso   1.00
O591   O     0.52371   0.19438   0.34971   0.00000  Uiso   1.00
O592   O     0.71627   0.93418   0.78807   0.00000  Uiso   1.00
N593   N     0.81693   0.15982   0.17950   0.00000  Uiso   1.00
N594   N     0.57224   0.15549   0.28147   0.00000  Uiso   1.00
N595   N     0.70945   0.97006   0.59385   0.00000  Uiso   1.00
N596   N     0.82258   0.18892   0.37256   0.00000  Uiso   1.00
N597   N     0.57788   0.18458   0.47453   0.00000  Uiso   1.00
N598   N     0.71509   0.99916   0.78691   0.00000  Uiso   1.00
C599   C     0.19906   0.59256   0.83462   0.00000  Uiso   1.00
C600   C     0.23293   0.61820   0.83906   0.00000  Uiso   1.00
C601   C     0.25826   0.62356   0.73524   0.00000  Uiso   1.00
C602   C     0.28736   0.64819   0.75913   0.00000  Uiso   1.00
C603   C     0.33938   0.68520   0.74724   0.00000  Uiso   1.00
C604   C     0.16549   0.61702   0.86715   0.00000  Uiso   1.00
C605   C     0.13412   0.62137   0.78696   0.00000  Uiso   1.00
C606   C     0.10644   0.64500   0.83451   0.00000  Uiso   1.00
C607   C     0.05376   0.68013   0.86627   0.00000  Uiso   1.00
C608   C     0.20331   0.56591   0.95323   0.00000  Uiso   1.00
C609   C     0.20373   0.52730   0.94543   0.00000  Uiso   1.00
C610   C     0.20789   0.50790   0.06547   0.00000  Uiso   1.00
C611   C     0.21393   0.46369   0.23089   0.00000  Uiso   1.00
C612   C     0.20570   0.62677   0.06166   0.00000  Uiso   1.00
C613   C     0.23653   0.63679   0.96238   0.00000  Uiso   1.00
C614   C     0.26560   0.66141   0.98643   0.00000  Uiso   1.00
C615   C     0.29097   0.66681   0.88267   0.00000  Uiso   1.00
C616   C     0.16910   0.63560   0.99046   0.00000  Uiso   1.00
C617   C     0.14146   0.65922   0.03815   0.00000  Uiso   1.00
C618   C     0.11006   0.66361   0.95805   0.00000  Uiso   1.00
C619   C     0.20692   0.58449   0.07655   0.00000  Uiso   1.00
C620   C     0.21108   0.56515   0.19662   0.00000  Uiso   1.00
C621   C     0.21150   0.52652   0.18901   0.00000  Uiso   1.00
H622   H     0.19625   0.57809   0.73861   0.00000  Uiso   1.00
H623   H     0.25545   0.60918   0.63981   0.00000  Uiso   1.00
H624   H     0.13133   0.60698   0.69154   0.00000  Uiso   1.00
H625   H     0.20094   0.51293   0.84998   0.00000  Uiso   1.00
H626   H     0.32267   0.65185   0.58465   0.00000  Uiso   1.00
H627   H     0.06095   0.64721   0.69372   0.00000  Uiso   1.00
H628   H     0.20772   0.44887   0.02785   0.00000  Uiso   1.00
H629   H     0.20851   0.64124   0.15767   0.00000  Uiso   1.00
H630   H     0.26839   0.67579   0.08187   0.00000  Uiso   1.00
H631   H     0.14426   0.67359   0.13359   0.00000  Uiso   1.00
H632   H     0.21387   0.57954   0.29204   0.00000  Uiso   1.00
H633   H     0.33317   0.70591   0.94344   0.00000  Uiso   1.00
H634   H     0.07144   0.70127   0.05251   0.00000  Uiso   1.00
H635   H     0.21822   0.50294   0.38663   0.00000  Uiso   1.00
O636   O     0.36708   0.70048   0.70660   0.00000  Uiso   1.00
O637   O     0.02371   0.69438   0.84971   0.00000  Uiso   1.00
O638   O     0.21627   0.43418   0.28807   0.00000  Uiso   1.00
N639   N     0.31693   0.65982   0.67950   0.00000  Uiso   1.00
N640   N     0.07224   0.65549   0.78147   0.00000  Uiso   1.00
N641   N     0.20945   0.47006   0.09385   0.00000  Uiso   1.00
N642   N     0.32258   0.68892   0.87256   0.00000  Uiso   1.00
N643   N     0.07788   0.68458   0.97453   0.00000  Uiso   1.00
N644   N     0.21509   0.49916   0.28691   0.00000  Uiso   1.00
C645   C     0.80094   0.40744   0.83462   0.00000  Uiso   1.00
C646   C     0.76707   0.38180   0.83906   0.00000  Uiso   1.00
C647   C     0.74174   0.37644   0.73524   0.00000  Uiso   1.00
C648   C     0.71264   0.35181   0.75913   0.00000  Uiso   1.00
C649   C     0.66062   0.31480   0.74724   0.00000  Uiso   1.00
C650   C     0.83451   0.38298   0.86715   0.00000  Uiso   1.00
C651   C     0.86588   0.37863   0.78696   0.00000  Uiso   1.00
C652   C     0.89356   0.35500   0.83451   0.00000  Uiso   1.00
C653   C     0.94624   0.31987   0.86627   0.00000  Uiso   1.00
C654   C     0.79669   0.43409   0.95323   0.00000  Uiso   1.00
C655   C     0.79627   0.47270   0.94543   0.00000  Uiso   1.00
C656   C     0.79211   0.49210   0.06547   0.00000  Uiso   1.00
C657   C     0.78607   0.53631   0.23089   0.00000  Uiso   1.00
C658   C     0.79430   0.37323   0.06166   0.00000  Uiso   1.00
C659   C     0.76347   0.36321   0.96238   0.00000  Uiso   1.00
C660   C     0.73440   0.33859   0.98643   0.00000  Uiso   1.00
C661   C     0.70903   0.33319   0.88267   0.00000  Uiso   1.00
C662   C     0.83090   0.36440   0.99046   0.00000  Uiso   1.00
C663   C     0.85854   0.34078   0.03815   0.00000  Uiso   1.00
C664   C     0.88994   0.33639   0.95805   0.00000  Uiso   1.00
C665   C     0.79308   0.41551   0.07655   0.00000  Uiso   1.00
C666   C     0.78892   0.43485   0.19662   0.00000  Uiso   1.00
C667   C     0.78850   0.47348   0.18901   0.00000  Uiso   1.00
H668   H     0.80375   0.42191   0.73861   0.00000  Uiso   1.00
H669   H     0.74455   0.39082   0.63981   0.00000  Uiso   1.00
H670   H     0.86867   0.39302   0.69154   0.00000  Uiso   1.00
H671   H     0.79906   0.48707   0.84998   0.00000  Uiso   1.00
H672   H     0.67733   0.34815   0.58465   0.00000  Uiso   1.00
H673   H     0.93905   0.35279   0.69372   0.00000  Uiso   1.00
H674   H     0.79228   0.55113   0.02785   0.00000  Uiso   1.00
H675   H     0.79149   0.35876   0.15767   0.00000  Uiso   1.00
H676   H     0.73161   0.32421   0.08187   0.00000  Uiso   1.00
H677   H     0.85574   0.32641   0.13359   0.00000  Uiso   1.00
H678   H     0.78613   0.42046   0.29204   0.00000  Uiso   1.00
H679   H     0.66683   0.29409   0.94344   0.00000  Uiso   1.00
H680   H     0.92856   0.29873   0.05251   0.00000  Uiso   1.00
H681   H     0.78178   0.49706   0.38663   0.00000  Uiso   1.00
O682   O     0.63292   0.29952   0.70660   0.00000  Uiso   1.00
O683   O     0.97629   0.30562   0.84971   0.00000  Uiso   1.00
O684   O     0.78373   0.56582   0.28807   0.00000  Uiso   1.00
N685   N     0.68307   0.34018   0.67950   0.00000  Uiso   1.00
N686   N     0.92776   0.34451   0.78147   0.00000  Uiso   1.00
N687   N     0.79055   0.52994   0.09385   0.00000  Uiso   1.00
N688   N     0.67742   0.31108   0.87256   0.00000  Uiso   1.00
N689   N     0.92212   0.31542   0.97453   0.00000  Uiso   1.00
N690   N     0.78491   0.50084   0.28691   0.00000  Uiso   1.00
C691   C     0.30094   0.90744   0.33462   0.00000  Uiso   1.00
C692   C     0.26707   0.88180   0.33906   0.00000  Uiso   1.00
C693   C     0.24174   0.87644   0.23524   0.00000  Uiso   1.00
C694   C     0.21264   0.85181   0.25913   0.00000  Uiso   1.00
C695   C     0.16062   0.81480   0.24724   0.00000  Uiso   1.00
C696   C     0.33451   0.88298   0.36715   0.00000  Uiso   1.00
C697   C     0.36588   0.87863   0.28696   0.00000  Uiso   1.00
C698   C     0.39356   0.85500   0.33451   0.00000  Uiso   1.00
C699   C     0.44624   0.81987   0.36627   0.00000  Uiso   1.00
C700   C     0.29669   0.93409   0.45323   0.00000  Uiso   1.00
C701   C     0.29627   0.97270   0.44543   0.00000  Uiso   1.00
C702   C     0.29211   0.99210   0.56547   0.00000  Uiso   1.00
C703   C     0.28607   0.03631   0.73089   0.00000  Uiso   1.00
C704   C     0.29430   0.87323   0.56166   0.00000  Uiso   1.00
C705   C     0.26347   0.86321   0.46238   0.00000  Uiso   1.00
C706   C     0.23440   0.83859   0.48643   0.00000  Uiso   1.00
C707   C     0.20903   0.83319   0.38267   0.00000  Uiso   1.00
C708   C     0.33090   0.86440   0.49046   0.00000  Uiso   1.00
C709   C     0.35854   0.84078   0.53815   0.00000  Uiso   1.00
C710   C     0.38994   0.83639   0.45805   0.00000  Uiso   1.00
C711   C     0.29308   0.91551   0.57655   0.00000  Uiso   1.00
C712   C     0.28892   0.93485   0.69662   0.00000  Uiso   1.00
C713   C     0.28850   0.97348   0.68901   0.00000  Uiso   1.00
H714   H     0.30375   0.92191   0.23861   0.00000  Uiso   1.00
H715   H     0.24455   0.89082   0.13981   0.00000  Uiso   1.00
H716   H     0.36867   0.89302   0.19154   0.00000  Uiso   1.00
H717   H     0.29906   0.98707   0.34998   0.00000  Uiso   1.00
H718   H     0.17733   0.84815   0.08465   0.00000  Uiso   1.00
H719   H     0.43905   0.85279   0.19372   0.00000  Uiso   1.00
H720   H     0.29228   0.05113   0.52785   0.00000  Uiso   1.00
H721   H     0.29149   0.85876   0.65767   0.00000  Uiso   1.00
H722   H     0.23161   0.82421   0.58187   0.00000  Uiso   1.00
H723   H     0.35574   0.82641   0.63359   0.00000  Uiso   1.00
H724   H     0.28613   0.92046   0.79204   0.00000  Uiso   1.00
H725   H     0.16683   0.79409   0.44344   0.00000  Uiso   1.00
H726   H     0.42856   0.79873   0.55251   0.00000  Uiso   1.00
H727   H     0.28178   0.99706   0.88663   0.00000  Uiso   1.00
O728   O     0.13292   0.79952   0.20660   0.00000  Uiso   1.00
O729   O     0.47629   0.80562   0.34971   0.00000  Uiso   1.00
O730   O     0.28373   0.06582   0.78807   0.00000  Uiso   1.00
N731   N     0.18307   0.84018   0.17950   0.00000  Uiso   1.00
N732   N     0.42776   0.84451   0.28147   0.00000  Uiso   1.00
N733   N     0.29055   0.02994   0.59385   0.00000  Uiso   1.00
N734   N     0.17742   0.81108   0.37256   0.00000  Uiso   1.00
N735   N     0.42212   0.81542   0.47453   0.00000  Uiso   1.00
N736   N     0.28491   0.00084   0.78691   0.00000  Uiso   1.00
